MODEL 1
REMARK VINA RESULT:      -8.3      0.000      0.000
REMARK  Name = 
REMARK  7 active torsions:
REMARK  status: ('A' for Active; 'I' for Inactive)
REMARK    1  A    between atoms: N_2  and  C_4
REMARK    2  A    between atoms: C_7  and  N_8
REMARK    3  A    between atoms: N_8  and  C_9
REMARK    4  A    between atoms: C_12  and  O_13
REMARK    5  A    between atoms: O_13  and  C_14
REMARK    6  A    between atoms: C_14  and  C_15
REMARK    7  A    between atoms: C_25  and  O_26
REMARK                            x       y       z     vdW  Elec       q    Type
REMARK                         _______ _______ _______ _____ _____    ______ ____
ROOT
ATOM      1  N   UNL     1       2.331   6.799  17.760  0.00  0.00    +0.000 N 
ATOM      2  H   UNL     1       1.653   6.032  17.738  0.00  0.00    +0.000 HD
ENDROOT
BRANCH   1   6
ATOM      3  C   UNL     1       6.235   5.326  18.126  0.00  0.00    +0.000 A 
ATOM      4  C   UNL     1       6.027   6.544  17.479  0.00  0.00    +0.000 A 
ATOM      5  C   UNL     1       4.731   7.021  17.368  0.00  0.00    +0.000 A 
ATOM      6  C   UNL     1       3.653   6.271  17.866  0.00  0.00    +0.000 A 
ATOM      7  C   UNL     1       3.902   5.034  18.553  0.00  0.00    +0.000 A 
ATOM      8  C   UNL     1       2.937   4.197  19.136  0.00  0.00    +0.000 A 
ATOM      9  N   UNL     1       3.185   3.052  19.779  0.00  0.00    +0.000 NA
ATOM     10  C   UNL     1       4.463   2.693  19.829  0.00  0.00    +0.000 A 
ATOM     11  N   UNL     1       5.487   3.393  19.316  0.00  0.00    +0.000 NA
ATOM     12  C   UNL     1       5.217   4.545  18.682  0.00  0.00    +0.000 A 
BRANCH   3  14
ATOM     13  O   UNL     1       8.067   4.228  17.308  0.00  0.00    +0.000 OA
ATOM     14  N   UNL     1       7.607   4.881  18.254  0.00  0.00    +0.000 N 
ATOM     15  O   UNL     1       8.182   5.098  19.330  0.00  0.00    +0.000 OA
ENDBRANCH   3  14
BRANCH   8  16
ATOM     16  O   UNL     1       1.602   4.488  19.087  0.00  0.00    +0.000 OA
ATOM     17  H   UNL     1       1.373   4.833  19.968  0.00  0.00    +0.000 HD
ENDBRANCH   8  16
ENDBRANCH   1   6
BRANCH   1  18
ATOM     18  C   UNL     1       1.832   7.929  18.457  0.00  0.00    +0.000 A 
ATOM     19  C   UNL     1       1.571   9.126  17.780  0.00  0.00    +0.000 A 
ATOM     20  C   UNL     1       1.207  10.288  18.481  0.00  0.00    +0.000 A 
ATOM     21  C   UNL     1       1.115  10.281  19.877  0.00  0.00    +0.000 A 
ATOM     22  C   UNL     1       1.372   9.084  20.556  0.00  0.00    +0.000 A 
ATOM     23 CL   UNL     1       1.281   8.980  22.279  0.00  0.00    +0.000 Cl
ATOM     24  C   UNL     1       1.720   7.926  19.853  0.00  0.00    +0.000 A 
BRANCH  21  25
ATOM     25  O   UNL     1       0.870  11.394  20.638  0.00  0.00    +0.000 OA
BRANCH  25  26
ATOM     26  C   UNL     1      -0.128  12.294  20.161  0.00  0.00    +0.000 C 
BRANCH  26  27
ATOM     27  C   UNL     1      -1.276  12.313  21.143  0.00  0.00    +0.000 A 
ATOM     28  C   UNL     1      -2.490  12.933  20.807  0.00  0.00    +0.000 A 
ATOM     29  C   UNL     1      -3.537  12.990  21.728  0.00  0.00    +0.000 A 
ATOM     30  C   UNL     1      -3.388  12.416  22.989  0.00  0.00    +0.000 A 
ATOM     31  C   UNL     1      -2.200  11.768  23.323  0.00  0.00    +0.000 A 
ATOM     32  C   UNL     1      -1.150  11.715  22.404  0.00  0.00    +0.000 A 
ENDBRANCH  26  27
ENDBRANCH  25  26
ENDBRANCH  21  25
ENDBRANCH   1  18
TORSDOF 7
ENDMDL
MODEL 2
REMARK VINA RESULT:      -8.3      1.301      1.856
REMARK  Name = 
REMARK  7 active torsions:
REMARK  status: ('A' for Active; 'I' for Inactive)
REMARK    1  A    between atoms: N_2  and  C_4
REMARK    2  A    between atoms: C_7  and  N_8
REMARK    3  A    between atoms: N_8  and  C_9
REMARK    4  A    between atoms: C_12  and  O_13
REMARK    5  A    between atoms: O_13  and  C_14
REMARK    6  A    between atoms: C_14  and  C_15
REMARK    7  A    between atoms: C_25  and  O_26
REMARK                            x       y       z     vdW  Elec       q    Type
REMARK                         _______ _______ _______ _____ _____    ______ ____
ROOT
ATOM      1  N   UNL     1       2.092   6.960  18.431  0.00  0.00    +0.000 N 
ATOM      2  H   UNL     1       1.375   6.229  18.443  0.00  0.00    +0.000 HD
ENDROOT
BRANCH   1   6
ATOM      3  C   UNL     1       5.910   5.296  17.981  0.00  0.00    +0.000 A 
ATOM      4  C   UNL     1       5.650   6.555  17.441  0.00  0.00    +0.000 A 
ATOM      5  C   UNL     1       4.385   7.095  17.600  0.00  0.00    +0.000 A 
ATOM      6  C   UNL     1       3.381   6.369  18.261  0.00  0.00    +0.000 A 
ATOM      7  C   UNL     1       3.687   5.086  18.831  0.00  0.00    +0.000 A 
ATOM      8  C   UNL     1       2.804   4.262  19.549  0.00  0.00    +0.000 A 
ATOM      9  N   UNL     1       3.106   3.074  20.081  0.00  0.00    +0.000 NA
ATOM     10  C   UNL     1       4.350   2.657  19.871  0.00  0.00    +0.000 A 
ATOM     11  N   UNL     1       5.296   3.337  19.204  0.00  0.00    +0.000 NA
ATOM     12  C   UNL     1       4.974   4.533  18.685  0.00  0.00    +0.000 A 
BRANCH   3  14
ATOM     13  O   UNL     1       7.990   4.851  18.822  0.00  0.00    +0.000 OA
ATOM     14  N   UNL     1       7.255   4.784  17.826  0.00  0.00    +0.000 N 
ATOM     15  O   UNL     1       7.602   4.414  16.696  0.00  0.00    +0.000 OA
ENDBRANCH   3  14
BRANCH   8  16
ATOM     16  O   UNL     1       1.502   4.615  19.768  0.00  0.00    +0.000 OA
ATOM     17  H   UNL     1       1.219   4.115  20.554  0.00  0.00    +0.000 HD
ENDBRANCH   8  16
ENDBRANCH   1   6
BRANCH   1  18
ATOM     18  C   UNL     1       1.781   8.025  19.316  0.00  0.00    +0.000 A 
ATOM     19  C   UNL     1       1.702   7.804  20.696  0.00  0.00    +0.000 A 
ATOM     20  C   UNL     1       1.263   8.817  21.565  0.00  0.00    +0.000 A 
ATOM     21  C   UNL     1       0.876  10.066  21.069  0.00  0.00    +0.000 A 
ATOM     22  C   UNL     1       0.958  10.291  19.690  0.00  0.00    +0.000 A 
ATOM     23 CL   UNL     1       0.503  11.803  18.987  0.00  0.00    +0.000 Cl
ATOM     24  C   UNL     1       1.409   9.283  18.829  0.00  0.00    +0.000 A 
BRANCH  21  25
ATOM     25  O   UNL     1       0.340  11.067  21.836  0.00  0.00    +0.000 OA
BRANCH  25  26
ATOM     26  C   UNL     1      -0.814  10.739  22.608  0.00  0.00    +0.000 C 
BRANCH  26  27
ATOM     27  C   UNL     1      -1.525  12.016  22.988  0.00  0.00    +0.000 A 
ATOM     28  C   UNL     1      -2.847  11.982  23.459  0.00  0.00    +0.000 A 
ATOM     29  C   UNL     1      -3.521  13.164  23.770  0.00  0.00    +0.000 A 
ATOM     30  C   UNL     1      -2.878  14.392  23.626  0.00  0.00    +0.000 A 
ATOM     31  C   UNL     1      -1.555  14.437  23.192  0.00  0.00    +0.000 A 
ATOM     32  C   UNL     1      -0.881  13.255  22.876  0.00  0.00    +0.000 A 
ENDBRANCH  26  27
ENDBRANCH  25  26
ENDBRANCH  21  25
ENDBRANCH   1  18
TORSDOF 7
ENDMDL
MODEL 3
REMARK VINA RESULT:      -8.2      1.093      1.702
REMARK  Name = 
REMARK  7 active torsions:
REMARK  status: ('A' for Active; 'I' for Inactive)
REMARK    1  A    between atoms: N_2  and  C_4
REMARK    2  A    between atoms: C_7  and  N_8
REMARK    3  A    between atoms: N_8  and  C_9
REMARK    4  A    between atoms: C_12  and  O_13
REMARK    5  A    between atoms: O_13  and  C_14
REMARK    6  A    between atoms: C_14  and  C_15
REMARK    7  A    between atoms: C_25  and  O_26
REMARK                            x       y       z     vdW  Elec       q    Type
REMARK                         _______ _______ _______ _____ _____    ______ ____
ROOT
ATOM      1  N   UNL     1       2.187   6.964  18.352  0.00  0.00    +0.000 N 
ATOM      2  H   UNL     1       1.474   6.229  18.373  0.00  0.00    +0.000 HD
ENDROOT
BRANCH   1   6
ATOM      3  C   UNL     1       6.018   5.316  17.965  0.00  0.00    +0.000 A 
ATOM      4  C   UNL     1       5.764   6.578  17.427  0.00  0.00    +0.000 A 
ATOM      5  C   UNL     1       4.494   7.113  17.566  0.00  0.00    +0.000 A 
ATOM      6  C   UNL     1       3.480   6.379  18.202  0.00  0.00    +0.000 A 
ATOM      7  C   UNL     1       3.780   5.094  18.771  0.00  0.00    +0.000 A 
ATOM      8  C   UNL     1       2.886   4.262  19.466  0.00  0.00    +0.000 A 
ATOM      9  N   UNL     1       3.183   3.072  19.997  0.00  0.00    +0.000 NA
ATOM     10  C   UNL     1       4.432   2.660  19.808  0.00  0.00    +0.000 A 
ATOM     11  N   UNL     1       5.388   3.348  19.164  0.00  0.00    +0.000 NA
ATOM     12  C   UNL     1       5.072   4.545  18.646  0.00  0.00    +0.000 A 
BRANCH   3  14
ATOM     13  O   UNL     1       7.680   4.352  16.725  0.00  0.00    +0.000 OA
ATOM     14  N   UNL     1       7.368   4.811  17.833  0.00  0.00    +0.000 N 
ATOM     15  O   UNL     1       8.072   4.782  18.851  0.00  0.00    +0.000 OA
ENDBRANCH   3  14
BRANCH   8  16
ATOM     16  O   UNL     1       1.579   4.609  19.663  0.00  0.00    +0.000 OA
ATOM     17  H   UNL     1       1.581   5.247  20.398  0.00  0.00    +0.000 HD
ENDBRANCH   8  16
ENDBRANCH   1   6
BRANCH   1  18
ATOM     18  C   UNL     1       1.861   8.044  19.213  0.00  0.00    +0.000 A 
ATOM     19  C   UNL     1       1.729   7.841  20.592  0.00  0.00    +0.000 A 
ATOM     20  C   UNL     1       1.276   8.871  21.433  0.00  0.00    +0.000 A 
ATOM     21  C   UNL     1       0.928  10.120  20.909  0.00  0.00    +0.000 A 
ATOM     22  C   UNL     1       1.063  10.327  19.532  0.00  0.00    +0.000 A 
ATOM     23 CL   UNL     1       0.659  11.838  18.796  0.00  0.00    +0.000 Cl
ATOM     24  C   UNL     1       1.528   9.303  18.699  0.00  0.00    +0.000 A 
BRANCH  21  25
ATOM     25  O   UNL     1       0.381  11.139  21.645  0.00  0.00    +0.000 OA
BRANCH  25  26
ATOM     26  C   UNL     1      -0.643  10.786  22.573  0.00  0.00    +0.000 C 
BRANCH  26  27
ATOM     27  C   UNL     1      -1.818  11.714  22.379  0.00  0.00    +0.000 A 
ATOM     28  C   UNL     1      -2.710  11.964  23.433  0.00  0.00    +0.000 A 
ATOM     29  C   UNL     1      -3.820  12.789  23.244  0.00  0.00    +0.000 A 
ATOM     30  C   UNL     1      -4.044  13.383  22.004  0.00  0.00    +0.000 A 
ATOM     31  C   UNL     1      -3.147  13.171  20.959  0.00  0.00    +0.000 A 
ATOM     32  C   UNL     1      -2.038  12.342  21.145  0.00  0.00    +0.000 A 
ENDBRANCH  26  27
ENDBRANCH  25  26
ENDBRANCH  21  25
ENDBRANCH   1  18
TORSDOF 7
ENDMDL
MODEL 4
REMARK VINA RESULT:      -8.0      4.168      9.707
REMARK  Name = 
REMARK  7 active torsions:
REMARK  status: ('A' for Active; 'I' for Inactive)
REMARK    1  A    between atoms: N_2  and  C_4
REMARK    2  A    between atoms: C_7  and  N_8
REMARK    3  A    between atoms: N_8  and  C_9
REMARK    4  A    between atoms: C_12  and  O_13
REMARK    5  A    between atoms: O_13  and  C_14
REMARK    6  A    between atoms: C_14  and  C_15
REMARK    7  A    between atoms: C_25  and  O_26
REMARK                            x       y       z     vdW  Elec       q    Type
REMARK                         _______ _______ _______ _____ _____    ______ ____
ROOT
ATOM      1  N   UNL     1      -0.256  11.669  18.398  0.00  0.00    +0.000 N 
ATOM      2  H   UNL     1       0.024  12.509  18.912  0.00  0.00    +0.000 HD
ENDROOT
BRANCH   1   6
ATOM      3  C   UNL     1      -4.426  11.415  18.113  0.00  0.00    +0.000 A 
ATOM      4  C   UNL     1      -3.641  10.808  17.133  0.00  0.00    +0.000 A 
ATOM      5  C   UNL     1      -2.263  10.896  17.242  0.00  0.00    +0.000 A 
ATOM      6  C   UNL     1      -1.679  11.614  18.298  0.00  0.00    +0.000 A 
ATOM      7  C   UNL     1      -2.513  12.204  19.308  0.00  0.00    +0.000 A 
ATOM      8  C   UNL     1      -2.077  12.915  20.437  0.00  0.00    +0.000 A 
ATOM      9  N   UNL     1      -2.867  13.451  21.372  0.00  0.00    +0.000 NA
ATOM     10  C   UNL     1      -4.172  13.302  21.170  0.00  0.00    +0.000 A 
ATOM     11  N   UNL     1      -4.727  12.649  20.137  0.00  0.00    +0.000 NA
ATOM     12  C   UNL     1      -3.916  12.110  19.213  0.00  0.00    +0.000 A 
BRANCH   3  14
ATOM     13  O   UNL     1      -6.447  12.123  17.307  0.00  0.00    +0.000 OA
ATOM     14  N   UNL     1      -5.861  11.266  17.984  0.00  0.00    +0.000 N 
ATOM     15  O   UNL     1      -6.405  10.362  18.633  0.00  0.00    +0.000 OA
ENDBRANCH   3  14
BRANCH   8  16
ATOM     16  O   UNL     1      -0.752  13.137  20.685  0.00  0.00    +0.000 OA
ATOM     17  H   UNL     1      -0.267  12.639  20.004  0.00  0.00    +0.000 HD
ENDBRANCH   8  16
ENDBRANCH   1   6
BRANCH   1  18
ATOM     18  C   UNL     1       0.597  10.569  18.676  0.00  0.00    +0.000 A 
ATOM     19  C   UNL     1       1.421  10.035  17.677  0.00  0.00    +0.000 A 
ATOM     20  C   UNL     1       2.165   8.866  17.904  0.00  0.00    +0.000 A 
ATOM     21  C   UNL     1       2.087   8.195  19.129  0.00  0.00    +0.000 A 
ATOM     22  C   UNL     1       1.268   8.728  20.130  0.00  0.00    +0.000 A 
ATOM     23 CL   UNL     1       1.111   7.969  21.675  0.00  0.00    +0.000 Cl
ATOM     24  C   UNL     1       0.539   9.901  19.905  0.00  0.00    +0.000 A 
BRANCH  21  25
ATOM     25  O   UNL     1       2.698   6.997  19.390  0.00  0.00    +0.000 OA
BRANCH  25  26
ATOM     26  C   UNL     1       2.772   6.062  18.315  0.00  0.00    +0.000 C 
BRANCH  26  27
ATOM     27  C   UNL     1       2.149   4.760  18.757  0.00  0.00    +0.000 A 
ATOM     28  C   UNL     1       1.533   4.656  20.015  0.00  0.00    +0.000 A 
ATOM     29  C   UNL     1       0.995   3.442  20.443  0.00  0.00    +0.000 A 
ATOM     30  C   UNL     1       1.053   2.322  19.616  0.00  0.00    +0.000 A 
ATOM     31  C   UNL     1       1.630   2.421  18.352  0.00  0.00    +0.000 A 
ATOM     32  C   UNL     1       2.174   3.634  17.923  0.00  0.00    +0.000 A 
ENDBRANCH  26  27
ENDBRANCH  25  26
ENDBRANCH  21  25
ENDBRANCH   1  18
TORSDOF 7
ENDMDL
MODEL 5
REMARK VINA RESULT:      -8.0      4.004      9.635
REMARK  Name = 
REMARK  7 active torsions:
REMARK  status: ('A' for Active; 'I' for Inactive)
REMARK    1  A    between atoms: N_2  and  C_4
REMARK    2  A    between atoms: C_7  and  N_8
REMARK    3  A    between atoms: N_8  and  C_9
REMARK    4  A    between atoms: C_12  and  O_13
REMARK    5  A    between atoms: O_13  and  C_14
REMARK    6  A    between atoms: C_14  and  C_15
REMARK    7  A    between atoms: C_25  and  O_26
REMARK                            x       y       z     vdW  Elec       q    Type
REMARK                         _______ _______ _______ _____ _____    ______ ____
ROOT
ATOM      1  N   UNL     1       0.376  10.552  18.209  0.00  0.00    +0.000 N 
ATOM      2  H   UNL     1       0.843  11.392  18.562  0.00  0.00    +0.000 HD
ENDROOT
BRANCH   1   6
ATOM      3  C   UNL     1      -3.764  11.141  17.966  0.00  0.00    +0.000 A 
ATOM      4  C   UNL     1      -3.152  10.252  17.083  0.00  0.00    +0.000 A 
ATOM      5  C   UNL     1      -1.783  10.064  17.177  0.00  0.00    +0.000 A 
ATOM      6  C   UNL     1      -1.030  10.784  18.118  0.00  0.00    +0.000 A 
ATOM      7  C   UNL     1      -1.693  11.671  19.034  0.00  0.00    +0.000 A 
ATOM      8  C   UNL     1      -1.085  12.426  20.049  0.00  0.00    +0.000 A 
ATOM      9  N   UNL     1      -1.717  13.242  20.898  0.00  0.00    +0.000 NA
ATOM     10  C   UNL     1      -3.030  13.342  20.720  0.00  0.00    +0.000 A 
ATOM     11  N   UNL     1      -3.740  12.682  19.792  0.00  0.00    +0.000 NA
ATOM     12  C   UNL     1      -3.087  11.861  18.954  0.00  0.00    +0.000 A 
BRANCH   3  14
ATOM     13  O   UNL     1      -5.883  10.512  18.554  0.00  0.00    +0.000 OA
ATOM     14  N   UNL     1      -5.201  11.279  17.860  0.00  0.00    +0.000 N 
ATOM     15  O   UNL     1      -5.641  12.076  17.019  0.00  0.00    +0.000 OA
ENDBRANCH   3  14
BRANCH   8  16
ATOM     16  O   UNL     1       0.265  12.398  20.262  0.00  0.00    +0.000 OA
ATOM     17  H   UNL     1       0.659  12.084  19.429  0.00  0.00    +0.000 HD
ENDBRANCH   8  16
ENDBRANCH   1   6
BRANCH   1  18
ATOM     18  C   UNL     1       0.990   9.364  18.683  0.00  0.00    +0.000 A 
ATOM     19  C   UNL     1       0.826   8.958  20.013  0.00  0.00    +0.000 A 
ATOM     20  C   UNL     1       1.538   7.861  20.526  0.00  0.00    +0.000 A 
ATOM     21  C   UNL     1       2.442   7.158  19.724  0.00  0.00    +0.000 A 
ATOM     22  C   UNL     1       2.605   7.559  18.393  0.00  0.00    +0.000 A 
ATOM     23 CL   UNL     1       3.700   6.749  17.328  0.00  0.00    +0.000 Cl
ATOM     24  C   UNL     1       1.884   8.644  17.882  0.00  0.00    +0.000 A 
BRANCH  21  25
ATOM     25  O   UNL     1       3.249   6.147  20.178  0.00  0.00    +0.000 OA
BRANCH  25  26
ATOM     26  C   UNL     1       2.603   5.031  20.787  0.00  0.00    +0.000 C 
BRANCH  26  27
ATOM     27  C   UNL     1       2.469   3.928  19.765  0.00  0.00    +0.000 A 
ATOM     28  C   UNL     1       3.582   3.512  19.017  0.00  0.00    +0.000 A 
ATOM     29  C   UNL     1       3.452   2.522  18.042  0.00  0.00    +0.000 A 
ATOM     30  C   UNL     1       2.213   1.927  17.813  0.00  0.00    +0.000 A 
ATOM     31  C   UNL     1       1.108   2.306  18.573  0.00  0.00    +0.000 A 
ATOM     32  C   UNL     1       1.236   3.300  19.546  0.00  0.00    +0.000 A 
ENDBRANCH  26  27
ENDBRANCH  25  26
ENDBRANCH  21  25
ENDBRANCH   1  18
TORSDOF 7
ENDMDL
MODEL 6
REMARK VINA RESULT:      -8.0      2.217      2.742
REMARK  Name = 
REMARK  7 active torsions:
REMARK  status: ('A' for Active; 'I' for Inactive)
REMARK    1  A    between atoms: N_2  and  C_4
REMARK    2  A    between atoms: C_7  and  N_8
REMARK    3  A    between atoms: N_8  and  C_9
REMARK    4  A    between atoms: C_12  and  O_13
REMARK    5  A    between atoms: O_13  and  C_14
REMARK    6  A    between atoms: C_14  and  C_15
REMARK    7  A    between atoms: C_25  and  O_26
REMARK                            x       y       z     vdW  Elec       q    Type
REMARK                         _______ _______ _______ _____ _____    ______ ____
ROOT
ATOM      1  N   UNL     1       2.738   6.569  20.000  0.00  0.00    +0.000 N 
ATOM      2  H   UNL     1       3.343   6.594  20.827  0.00  0.00    +0.000 HD
ENDROOT
BRANCH   1   6
ATOM      3  C   UNL     1       4.878   4.867  16.828  0.00  0.00    +0.000 A 
ATOM      4  C   UNL     1       5.017   6.231  17.086  0.00  0.00    +0.000 A 
ATOM      5  C   UNL     1       4.307   6.780  18.140  0.00  0.00    +0.000 A 
ATOM      6  C   UNL     1       3.440   5.982  18.905  0.00  0.00    +0.000 A 
ATOM      7  C   UNL     1       3.340   4.575  18.633  0.00  0.00    +0.000 A 
ATOM      8  C   UNL     1       2.550   3.646  19.330  0.00  0.00    +0.000 A 
ATOM      9  N   UNL     1       2.475   2.338  19.069  0.00  0.00    +0.000 NA
ATOM     10  C   UNL     1       3.202   1.919  18.039  0.00  0.00    +0.000 A 
ATOM     11  N   UNL     1       3.999   2.693  17.286  0.00  0.00    +0.000 NA
ATOM     12  C   UNL     1       4.068   4.004  17.570  0.00  0.00    +0.000 A 
BRANCH   3  14
ATOM     13  O   UNL     1       6.835   4.010  16.011  0.00  0.00    +0.000 OA
ATOM     14  N   UNL     1       5.668   4.326  15.742  0.00  0.00    +0.000 N 
ATOM     15  O   UNL     1       5.157   4.311  14.613  0.00  0.00    +0.000 OA
ENDBRANCH   3  14
BRANCH   8  16
ATOM     16  O   UNL     1       1.751   4.016  20.374  0.00  0.00    +0.000 OA
ATOM     17  H   UNL     1       2.353   4.322  21.075  0.00  0.00    +0.000 HD
ENDBRANCH   8  16
ENDBRANCH   1   6
BRANCH   1  18
ATOM     18  C   UNL     1       1.893   7.707  19.927  0.00  0.00    +0.000 A 
ATOM     19  C   UNL     1       1.818   8.466  18.754  0.00  0.00    +0.000 A 
ATOM     20  C   UNL     1       1.091   9.667  18.715  0.00  0.00    +0.000 A 
ATOM     21  C   UNL     1       0.439  10.144  19.857  0.00  0.00    +0.000 A 
ATOM     22  C   UNL     1       0.508   9.386  21.030  0.00  0.00    +0.000 A 
ATOM     23 CL   UNL     1      -0.268   9.895  22.488  0.00  0.00    +0.000 Cl
ATOM     24  C   UNL     1       1.222   8.182  21.061  0.00  0.00    +0.000 A 
BRANCH  21  25
ATOM     25  O   UNL     1      -0.200  11.354  19.928  0.00  0.00    +0.000 OA
BRANCH  25  26
ATOM     26  C   UNL     1      -0.534  11.982  18.692  0.00  0.00    +0.000 C 
BRANCH  26  27
ATOM     27  C   UNL     1      -1.934  11.575  18.300  0.00  0.00    +0.000 A 
ATOM     28  C   UNL     1      -2.147  10.712  17.213  0.00  0.00    +0.000 A 
ATOM     29  C   UNL     1      -3.443  10.368  16.823  0.00  0.00    +0.000 A 
ATOM     30  C   UNL     1      -4.538  10.870  17.522  0.00  0.00    +0.000 A 
ATOM     31  C   UNL     1      -4.339  11.699  18.624  0.00  0.00    +0.000 A 
ATOM     32  C   UNL     1      -3.044  12.048  19.013  0.00  0.00    +0.000 A 
ENDBRANCH  26  27
ENDBRANCH  25  26
ENDBRANCH  21  25
ENDBRANCH   1  18
TORSDOF 7
ENDMDL
MODEL 7
REMARK VINA RESULT:      -7.9      0.640      1.048
REMARK  Name = 
REMARK  7 active torsions:
REMARK  status: ('A' for Active; 'I' for Inactive)
REMARK    1  A    between atoms: N_2  and  C_4
REMARK    2  A    between atoms: C_7  and  N_8
REMARK    3  A    between atoms: N_8  and  C_9
REMARK    4  A    between atoms: C_12  and  O_13
REMARK    5  A    between atoms: O_13  and  C_14
REMARK    6  A    between atoms: C_14  and  C_15
REMARK    7  A    between atoms: C_25  and  O_26
REMARK                            x       y       z     vdW  Elec       q    Type
REMARK                         _______ _______ _______ _____ _____    ______ ____
ROOT
ATOM      1  N   UNL     1       2.229   6.820  17.929  0.00  0.00    +0.000 N 
ATOM      2  H   UNL     1       1.545   6.064  18.018  0.00  0.00    +0.000 HD
ENDROOT
BRANCH   1   6
ATOM      3  C   UNL     1       6.135   5.324  18.132  0.00  0.00    +0.000 A 
ATOM      4  C   UNL     1       5.907   6.539  17.487  0.00  0.00    +0.000 A 
ATOM      5  C   UNL     1       4.611   7.024  17.430  0.00  0.00    +0.000 A 
ATOM      6  C   UNL     1       3.551   6.285  17.980  0.00  0.00    +0.000 A 
ATOM      7  C   UNL     1       3.822   5.051  18.664  0.00  0.00    +0.000 A 
ATOM      8  C   UNL     1       2.878   4.224  19.294  0.00  0.00    +0.000 A 
ATOM      9  N   UNL     1       3.147   3.081  19.933  0.00  0.00    +0.000 NA
ATOM     10  C   UNL     1       4.424   2.714  19.930  0.00  0.00    +0.000 A 
ATOM     11  N   UNL     1       5.429   3.404  19.368  0.00  0.00    +0.000 NA
ATOM     12  C   UNL     1       5.139   4.554  18.738  0.00  0.00    +0.000 A 
BRANCH   3  14
ATOM     13  O   UNL     1       8.126   5.139  19.243  0.00  0.00    +0.000 OA
ATOM     14  N   UNL     1       7.509   4.872  18.203  0.00  0.00    +0.000 N 
ATOM     15  O   UNL     1       7.992   4.344  17.192  0.00  0.00    +0.000 OA
ENDBRANCH   3  14
BRANCH   8  16
ATOM     16  O   UNL     1       1.545   4.523  19.302  0.00  0.00    +0.000 OA
ATOM     17  H   UNL     1       1.479   5.434  19.639  0.00  0.00    +0.000 HD
ENDBRANCH   8  16
ENDBRANCH   1   6
BRANCH   1  18
ATOM     18  C   UNL     1       1.792   8.010  18.568  0.00  0.00    +0.000 A 
ATOM     19  C   UNL     1       1.692   9.209  17.852  0.00  0.00    +0.000 A 
ATOM     20  C   UNL     1       1.392  10.416  18.504  0.00  0.00    +0.000 A 
ATOM     21  C   UNL     1       1.203  10.452  19.889  0.00  0.00    +0.000 A 
ATOM     22  C   UNL     1       1.298   9.255  20.607  0.00  0.00    +0.000 A 
ATOM     23 CL   UNL     1       1.078   9.203  22.321  0.00  0.00    +0.000 Cl
ATOM     24  C   UNL     1       1.583   8.051  19.952  0.00  0.00    +0.000 A 
BRANCH  21  25
ATOM     25  O   UNL     1       1.012  11.602  20.610  0.00  0.00    +0.000 OA
BRANCH  25  26
ATOM     26  C   UNL     1      -0.017  12.482  20.161  0.00  0.00    +0.000 C 
BRANCH  26  27
ATOM     27  C   UNL     1      -0.943  12.779  21.315  0.00  0.00    +0.000 A 
ATOM     28  C   UNL     1      -0.496  13.534  22.411  0.00  0.00    +0.000 A 
ATOM     29  C   UNL     1      -1.337  13.773  23.499  0.00  0.00    +0.000 A 
ATOM     30  C   UNL     1      -2.637  13.273  23.499  0.00  0.00    +0.000 A 
ATOM     31  C   UNL     1      -3.104  12.552  22.402  0.00  0.00    +0.000 A 
ATOM     32  C   UNL     1      -2.263  12.307  21.315  0.00  0.00    +0.000 A 
ENDBRANCH  26  27
ENDBRANCH  25  26
ENDBRANCH  21  25
ENDBRANCH   1  18
TORSDOF 7
ENDMDL
MODEL 8
REMARK VINA RESULT:      -7.9      1.836      3.110
REMARK  Name = 
REMARK  7 active torsions:
REMARK  status: ('A' for Active; 'I' for Inactive)
REMARK    1  A    between atoms: N_2  and  C_4
REMARK    2  A    between atoms: C_7  and  N_8
REMARK    3  A    between atoms: N_8  and  C_9
REMARK    4  A    between atoms: C_12  and  O_13
REMARK    5  A    between atoms: O_13  and  C_14
REMARK    6  A    between atoms: C_14  and  C_15
REMARK    7  A    between atoms: C_25  and  O_26
REMARK                            x       y       z     vdW  Elec       q    Type
REMARK                         _______ _______ _______ _____ _____    ______ ____
ROOT
ATOM      1  N   UNL     1       2.227   6.743  17.885  0.00  0.00    +0.000 N 
ATOM      2  H   UNL     1       1.550   5.978  17.957  0.00  0.00    +0.000 HD
ENDROOT
BRANCH   1   6
ATOM      3  C   UNL     1       6.147   5.284  18.090  0.00  0.00    +0.000 A 
ATOM      4  C   UNL     1       5.907   6.494  17.440  0.00  0.00    +0.000 A 
ATOM      5  C   UNL     1       4.606   6.967  17.383  0.00  0.00    +0.000 A 
ATOM      6  C   UNL     1       3.554   6.220  17.938  0.00  0.00    +0.000 A 
ATOM      7  C   UNL     1       3.838   4.992  18.626  0.00  0.00    +0.000 A 
ATOM      8  C   UNL     1       2.902   4.158  19.261  0.00  0.00    +0.000 A 
ATOM      9  N   UNL     1       3.183   3.022  19.905  0.00  0.00    +0.000 NA
ATOM     10  C   UNL     1       4.464   2.667  19.902  0.00  0.00    +0.000 A 
ATOM     11  N   UNL     1       5.461   3.364  19.335  0.00  0.00    +0.000 NA
ATOM     12  C   UNL     1       5.159   4.507  18.701  0.00  0.00    +0.000 A 
BRANCH   3  14
ATOM     13  O   UNL     1       8.139   5.118  19.203  0.00  0.00    +0.000 OA
ATOM     14  N   UNL     1       7.525   4.845  18.161  0.00  0.00    +0.000 N 
ATOM     15  O   UNL     1       8.014   4.324  17.150  0.00  0.00    +0.000 OA
ENDBRANCH   3  14
BRANCH   8  16
ATOM     16  O   UNL     1       1.566   4.445  19.270  0.00  0.00    +0.000 OA
ATOM     17  H   UNL     1       1.422   5.016  20.045  0.00  0.00    +0.000 HD
ENDBRANCH   8  16
ENDBRANCH   1   6
BRANCH   1  18
ATOM     18  C   UNL     1       1.773   7.917  18.541  0.00  0.00    +0.000 A 
ATOM     19  C   UNL     1       1.583   9.105  17.826  0.00  0.00    +0.000 A 
ATOM     20  C   UNL     1       1.266  10.303  18.487  0.00  0.00    +0.000 A 
ATOM     21  C   UNL     1       1.150  10.341  19.880  0.00  0.00    +0.000 A 
ATOM     22  C   UNL     1       1.335   9.154  20.597  0.00  0.00    +0.000 A 
ATOM     23 CL   UNL     1       1.209   9.105  22.321  0.00  0.00    +0.000 Cl
ATOM     24  C   UNL     1       1.637   7.960  19.934  0.00  0.00    +0.000 A 
BRANCH  21  25
ATOM     25  O   UNL     1       0.947  11.486  20.604  0.00  0.00    +0.000 OA
BRANCH  25  26
ATOM     26  C   UNL     1       0.671  12.676  19.867  0.00  0.00    +0.000 C 
BRANCH  26  27
ATOM     27  C   UNL     1       1.955  13.450  19.691  0.00  0.00    +0.000 A 
ATOM     28  C   UNL     1       2.748  13.774  20.803  0.00  0.00    +0.000 A 
ATOM     29  C   UNL     1       3.914  14.527  20.649  0.00  0.00    +0.000 A 
ATOM     30  C   UNL     1       4.307  14.951  19.381  0.00  0.00    +0.000 A 
ATOM     31  C   UNL     1       3.547  14.606  18.266  0.00  0.00    +0.000 A 
ATOM     32  C   UNL     1       2.378  13.858  18.419  0.00  0.00    +0.000 A 
ENDBRANCH  26  27
ENDBRANCH  25  26
ENDBRANCH  21  25
ENDBRANCH   1  18
TORSDOF 7
ENDMDL
MODEL 9
REMARK VINA RESULT:      -7.9      4.146      9.741
REMARK  Name = 
REMARK  7 active torsions:
REMARK  status: ('A' for Active; 'I' for Inactive)
REMARK    1  A    between atoms: N_2  and  C_4
REMARK    2  A    between atoms: C_7  and  N_8
REMARK    3  A    between atoms: N_8  and  C_9
REMARK    4  A    between atoms: C_12  and  O_13
REMARK    5  A    between atoms: O_13  and  C_14
REMARK    6  A    between atoms: C_14  and  C_15
REMARK    7  A    between atoms: C_25  and  O_26
REMARK                            x       y       z     vdW  Elec       q    Type
REMARK                         _______ _______ _______ _____ _____    ______ ____
ROOT
ATOM      1  N   UNL     1       0.052  10.848  18.316  0.00  0.00    +0.000 N 
ATOM      2  H   UNL     1       0.464  11.684  18.740  0.00  0.00    +0.000 HD
ENDROOT
BRANCH   1   6
ATOM      3  C   UNL     1      -4.092  11.284  17.890  0.00  0.00    +0.000 A 
ATOM      4  C   UNL     1      -3.401  10.463  16.999  0.00  0.00    +0.000 A 
ATOM      5  C   UNL     1      -2.031  10.325  17.154  0.00  0.00    +0.000 A 
ATOM      6  C   UNL     1      -1.356  11.028  18.165  0.00  0.00    +0.000 A 
ATOM      7  C   UNL     1      -2.100  11.844  19.084  0.00  0.00    +0.000 A 
ATOM      8  C   UNL     1      -1.574  12.573  20.163  0.00  0.00    +0.000 A 
ATOM      9  N   UNL     1      -2.281  13.322  21.015  0.00  0.00    +0.000 NA
ATOM     10  C   UNL     1      -3.587  13.378  20.775  0.00  0.00    +0.000 A 
ATOM     11  N   UNL     1      -4.222  12.736  19.783  0.00  0.00    +0.000 NA
ATOM     12  C   UNL     1      -3.495  11.982  18.943  0.00  0.00    +0.000 A 
BRANCH   3  14
ATOM     13  O   UNL     1      -5.944  12.306  17.020  0.00  0.00    +0.000 OA
ATOM     14  N   UNL     1      -5.527  11.371  17.717  0.00  0.00    +0.000 N 
ATOM     15  O   UNL     1      -6.230  10.573  18.352  0.00  0.00    +0.000 OA
ENDBRANCH   3  14
BRANCH   8  16
ATOM     16  O   UNL     1      -0.237  12.588  20.443  0.00  0.00    +0.000 OA
ATOM     17  H   UNL     1       0.083  11.686  20.266  0.00  0.00    +0.000 HD
ENDBRANCH   8  16
ENDBRANCH   1   6
BRANCH   1  18
ATOM     18  C   UNL     1       0.692   9.660  18.754  0.00  0.00    +0.000 A 
ATOM     19  C   UNL     1       0.515   9.195  20.062  0.00  0.00    +0.000 A 
ATOM     20  C   UNL     1       1.249   8.099  20.545  0.00  0.00    +0.000 A 
ATOM     21  C   UNL     1       2.189   7.456  19.733  0.00  0.00    +0.000 A 
ATOM     22  C   UNL     1       2.365   7.916  18.424  0.00  0.00    +0.000 A 
ATOM     23 CL   UNL     1       3.503   7.182  17.349  0.00  0.00    +0.000 Cl
ATOM     24  C   UNL     1       1.622   8.999  17.942  0.00  0.00    +0.000 A 
BRANCH  21  25
ATOM     25  O   UNL     1       3.017   6.451  20.162  0.00  0.00    +0.000 OA
BRANCH  25  26
ATOM     26  C   UNL     1       2.394   5.310  20.751  0.00  0.00    +0.000 C 
BRANCH  26  27
ATOM     27  C   UNL     1       2.326   4.207  19.722  0.00  0.00    +0.000 A 
ATOM     28  C   UNL     1       1.168   3.425  19.593  0.00  0.00    +0.000 A 
ATOM     29  C   UNL     1       1.118   2.377  18.672  0.00  0.00    +0.000 A 
ATOM     30  C   UNL     1       2.219   2.108  17.861  0.00  0.00    +0.000 A 
ATOM     31  C   UNL     1       3.362   2.899  17.956  0.00  0.00    +0.000 A 
ATOM     32  C   UNL     1       3.415   3.945  18.880  0.00  0.00    +0.000 A 
ENDBRANCH  26  27
ENDBRANCH  25  26
ENDBRANCH  21  25
ENDBRANCH   1  18
TORSDOF 7
ENDMDL
