MODEL 1
REMARK VINA RESULT:      -8.4      0.000      0.000
REMARK  Name = 
REMARK  5 active torsions:
REMARK  status: ('A' for Active; 'I' for Inactive)
REMARK    1  A    between atoms: C_1  and  C_2
REMARK    2  A    between atoms: C_5  and  N_6
REMARK    3  A    between atoms: N_6  and  C_7
REMARK    4  A    between atoms: C_14  and  N_15
REMARK    5  A    between atoms: C_18  and  C_19
REMARK                            x       y       z     vdW  Elec       q    Type
REMARK                         _______ _______ _______ _____ _____    ______ ____
ROOT
ATOM      1  C   UNL     1       6.342   4.889  17.733  0.00  0.00    +0.000 A 
ATOM      2  N   UNL     1       7.054   4.609  18.850  0.00  0.00    +0.000 NA
ATOM      3  C   UNL     1       7.909   5.517  19.304  0.00  0.00    +0.000 A 
ATOM      4  N   UNL     1       8.623   5.198  20.438  0.00  0.00    +0.000 N 
ATOM      5  N   UNL     1       8.088   6.723  18.768  0.00  0.00    +0.000 NA
ATOM      6  C   UNL     1       7.376   7.007  17.662  0.00  0.00    +0.000 A 
ATOM      7  N   UNL     1       7.656   8.272  17.118  0.00  0.00    +0.000 N 
ATOM      8  C   UNL     1       6.482   6.112  17.063  0.00  0.00    +0.000 A 
ATOM      9  H   UNL     1       8.155   4.462  20.950  0.00  0.00    +0.000 HD
ATOM     10  H   UNL     1       8.892   6.029  20.943  0.00  0.00    +0.000 HD
ATOM     11  H   UNL     1       8.271   8.764  17.760  0.00  0.00    +0.000 HD
ATOM     12  H   UNL     1       6.821   8.798  16.886  0.00  0.00    +0.000 HD
ENDROOT
BRANCH   1  13
ATOM     13  N   UNL     1       5.406   3.914  17.281  0.00  0.00    +0.000 N 
ATOM     14  H   UNL     1       5.889   3.102  16.910  0.00  0.00    +0.000 HD
BRANCH  13  19
ATOM     15  C   UNL     1       0.345   3.199  19.869  0.00  0.00    +0.000 C 
ATOM     16  C   UNL     1       1.686   3.275  19.196  0.00  0.00    +0.000 A 
ATOM     17  C   UNL     1       1.746   3.657  17.851  0.00  0.00    +0.000 A 
ATOM     18  C   UNL     1       2.974   3.830  17.220  0.00  0.00    +0.000 A 
ATOM     19  C   UNL     1       4.175   3.626  17.905  0.00  0.00    +0.000 A 
ATOM     20  C   UNL     1       4.119   3.180  19.231  0.00  0.00    +0.000 A 
ATOM     21  C   UNL     1       2.884   3.001  19.887  0.00  0.00    +0.000 A 
ATOM     22  C   UNL     1       2.863   2.553  21.323  0.00  0.00    +0.000 C 
ENDBRANCH  13  19
ENDBRANCH   1  13
BRANCH   8  23
ATOM     23  N   UNL     1       5.742   6.492  15.954  0.00  0.00    +0.000 NA
ATOM     24  O   UNL     1       6.005   5.844  14.936  0.00  0.00    +0.000 OA
ENDBRANCH   8  23
TORSDOF 3
ENDMDL
MODEL 2
REMARK VINA RESULT:      -8.1      1.903      2.793
REMARK  Name = 
REMARK  5 active torsions:
REMARK  status: ('A' for Active; 'I' for Inactive)
REMARK    1  A    between atoms: C_1  and  C_2
REMARK    2  A    between atoms: C_5  and  N_6
REMARK    3  A    between atoms: N_6  and  C_7
REMARK    4  A    between atoms: C_14  and  N_15
REMARK    5  A    between atoms: C_18  and  C_19
REMARK                            x       y       z     vdW  Elec       q    Type
REMARK                         _______ _______ _______ _____ _____    ______ ____
ROOT
ATOM      1  C   UNL     1       6.385   4.595  18.055  0.00  0.00    +0.000 A 
ATOM      2  N   UNL     1       6.283   4.536  16.706  0.00  0.00    +0.000 NA
ATOM      3  C   UNL     1       6.807   5.520  15.985  0.00  0.00    +0.000 A 
ATOM      4  N   UNL     1       6.679   5.434  14.616  0.00  0.00    +0.000 N 
ATOM      5  N   UNL     1       7.481   6.552  16.489  0.00  0.00    +0.000 NA
ATOM      6  C   UNL     1       7.591   6.609  17.829  0.00  0.00    +0.000 A 
ATOM      7  N   UNL     1       8.264   7.751  18.294  0.00  0.00    +0.000 N 
ATOM      8  C   UNL     1       7.038   5.657  18.694  0.00  0.00    +0.000 A 
ATOM      9  H   UNL     1       6.501   4.477  14.341  0.00  0.00    +0.000 HD
ATOM     10  H   UNL     1       7.423   5.929  14.150  0.00  0.00    +0.000 HD
ATOM     11  H   UNL     1       8.636   8.249  17.489  0.00  0.00    +0.000 HD
ATOM     12  H   UNL     1       8.968   7.541  18.991  0.00  0.00    +0.000 HD
ENDROOT
BRANCH   1  13
ATOM     13  N   UNL     1       5.845   3.513  18.809  0.00  0.00    +0.000 N 
ATOM     14  H   UNL     1       6.434   3.308  19.610  0.00  0.00    +0.000 HD
BRANCH  13  19
ATOM     15  C   UNL     1       0.189   2.708  19.241  0.00  0.00    +0.000 C 
ATOM     16  C   UNL     1       1.679   2.903  19.239  0.00  0.00    +0.000 A 
ATOM     17  C   UNL     1       2.485   1.946  18.612  0.00  0.00    +0.000 A 
ATOM     18  C   UNL     1       3.859   2.139  18.507  0.00  0.00    +0.000 A 
ATOM     19  C   UNL     1       4.470   3.285  19.023  0.00  0.00    +0.000 A 
ATOM     20  C   UNL     1       3.677   4.213  19.709  0.00  0.00    +0.000 A 
ATOM     21  C   UNL     1       2.283   4.034  19.824  0.00  0.00    +0.000 A 
ATOM     22  C   UNL     1       1.458   5.070  20.539  0.00  0.00    +0.000 C 
ENDBRANCH  13  19
ENDBRANCH   1  13
BRANCH   8  23
ATOM     23  N   UNL     1       7.236   5.752  20.063  0.00  0.00    +0.000 NA
ATOM     24  O   UNL     1       8.247   5.162  20.460  0.00  0.00    +0.000 OA
ENDBRANCH   8  23
TORSDOF 3
ENDMDL
MODEL 3
REMARK VINA RESULT:      -7.9      2.146      3.309
REMARK  Name = 
REMARK  5 active torsions:
REMARK  status: ('A' for Active; 'I' for Inactive)
REMARK    1  A    between atoms: C_1  and  C_2
REMARK    2  A    between atoms: C_5  and  N_6
REMARK    3  A    between atoms: N_6  and  C_7
REMARK    4  A    between atoms: C_14  and  N_15
REMARK    5  A    between atoms: C_18  and  C_19
REMARK                            x       y       z     vdW  Elec       q    Type
REMARK                         _______ _______ _______ _____ _____    ______ ____
ROOT
ATOM      1  C   UNL     1       5.389   5.609  17.120  0.00  0.00    +0.000 A 
ATOM      2  N   UNL     1       5.568   5.625  15.778  0.00  0.00    +0.000 NA
ATOM      3  C   UNL     1       6.710   5.164  15.283  0.00  0.00    +0.000 A 
ATOM      4  N   UNL     1       6.864   5.201  13.915  0.00  0.00    +0.000 N 
ATOM      5  N   UNL     1       7.690   4.630  16.011  0.00  0.00    +0.000 NA
ATOM      6  C   UNL     1       7.511   4.606  17.344  0.00  0.00    +0.000 A 
ATOM      7  N   UNL     1       8.606   4.082  18.053  0.00  0.00    +0.000 N 
ATOM      8  C   UNL     1       6.372   5.108  17.984  0.00  0.00    +0.000 A 
ATOM      9  H   UNL     1       5.961   5.263  13.463  0.00  0.00    +0.000 HD
ATOM     10  H   UNL     1       7.502   4.485  13.602  0.00  0.00    +0.000 HD
ATOM     11  H   UNL     1       9.274   3.717  17.379  0.00  0.00    +0.000 HD
ATOM     12  H   UNL     1       8.337   3.402  18.754  0.00  0.00    +0.000 HD
ENDROOT
BRANCH   1  13
ATOM     13  N   UNL     1       4.143   6.078  17.629  0.00  0.00    +0.000 N 
ATOM     14  H   UNL     1       3.665   6.644  16.935  0.00  0.00    +0.000 HD
BRANCH  13  19
ATOM     15  C   UNL     1       1.031   2.969  21.300  0.00  0.00    +0.000 C 
ATOM     16  C   UNL     1       1.755   3.794  20.273  0.00  0.00    +0.000 A 
ATOM     17  C   UNL     1       2.183   5.080  20.620  0.00  0.00    +0.000 A 
ATOM     18  C   UNL     1       2.938   5.837  19.730  0.00  0.00    +0.000 A 
ATOM     19  C   UNL     1       3.286   5.340  18.471  0.00  0.00    +0.000 A 
ATOM     20  C   UNL     1       2.803   4.081  18.095  0.00  0.00    +0.000 A 
ATOM     21  C   UNL     1       2.038   3.299  18.984  0.00  0.00    +0.000 A 
ATOM     22  C   UNL     1       1.566   1.936  18.557  0.00  0.00    +0.000 C 
ENDBRANCH  13  19
ENDBRANCH   1  13
BRANCH   8  23
ATOM     23  N   UNL     1       6.233   5.001  19.359  0.00  0.00    +0.000 NA
ATOM     24  O   UNL     1       7.167   5.504  19.993  0.00  0.00    +0.000 OA
ENDBRANCH   8  23
TORSDOF 3
ENDMDL
MODEL 4
REMARK VINA RESULT:      -7.8      4.167      5.575
REMARK  Name = 
REMARK  5 active torsions:
REMARK  status: ('A' for Active; 'I' for Inactive)
REMARK    1  A    between atoms: C_1  and  C_2
REMARK    2  A    between atoms: C_5  and  N_6
REMARK    3  A    between atoms: N_6  and  C_7
REMARK    4  A    between atoms: C_14  and  N_15
REMARK    5  A    between atoms: C_18  and  C_19
REMARK                            x       y       z     vdW  Elec       q    Type
REMARK                         _______ _______ _______ _____ _____    ______ ____
ROOT
ATOM      1  C   UNL     1       3.367   4.811  18.573  0.00  0.00    +0.000 A 
ATOM      2  N   UNL     1       2.154   4.226  18.426  0.00  0.00    +0.000 NA
ATOM      3  C   UNL     1       2.002   2.969  18.825  0.00  0.00    +0.000 A 
ATOM      4  N   UNL     1       0.760   2.401  18.654  0.00  0.00    +0.000 N 
ATOM      5  N   UNL     1       2.950   2.242  19.415  0.00  0.00    +0.000 NA
ATOM      6  C   UNL     1       4.153   2.824  19.569  0.00  0.00    +0.000 A 
ATOM      7  N   UNL     1       5.119   1.982  20.146  0.00  0.00    +0.000 N 
ATOM      8  C   UNL     1       4.447   4.125  19.144  0.00  0.00    +0.000 A 
ATOM      9  H   UNL     1       0.056   3.121  18.559  0.00  0.00    +0.000 HD
ATOM     10  H   UNL     1       0.599   1.668  19.329  0.00  0.00    +0.000 HD
ATOM     11  H   UNL     1       4.658   1.124  20.438  0.00  0.00    +0.000 HD
ATOM     12  H   UNL     1       5.639   2.428  20.893  0.00  0.00    +0.000 HD
ENDROOT
BRANCH   1  13
ATOM     13  N   UNL     1       3.500   6.171  18.169  0.00  0.00    +0.000 N 
ATOM     14  H   UNL     1       3.817   6.227  17.206  0.00  0.00    +0.000 HD
BRANCH  13  19
ATOM     15  C   UNL     1       0.380  10.704  19.765  0.00  0.00    +0.000 C 
ATOM     16  C   UNL     1       1.107   9.451  19.365  0.00  0.00    +0.000 A 
ATOM     17  C   UNL     1       1.491   9.290  18.028  0.00  0.00    +0.000 A 
ATOM     18  C   UNL     1       2.248   8.190  17.639  0.00  0.00    +0.000 A 
ATOM     19  C   UNL     1       2.642   7.218  18.563  0.00  0.00    +0.000 A 
ATOM     20  C   UNL     1       2.204   7.341  19.887  0.00  0.00    +0.000 A 
ATOM     21  C   UNL     1       1.438   8.450  20.300  0.00  0.00    +0.000 A 
ATOM     22  C   UNL     1       1.015   8.566  21.740  0.00  0.00    +0.000 C 
ENDBRANCH  13  19
ENDBRANCH   1  13
BRANCH   8  23
ATOM     23  N   UNL     1       5.695   4.679  19.384  0.00  0.00    +0.000 NA
ATOM     24  O   UNL     1       6.579   4.254  18.633  0.00  0.00    +0.000 OA
ENDBRANCH   8  23
TORSDOF 3
ENDMDL
MODEL 5
REMARK VINA RESULT:      -7.8      3.338      4.425
REMARK  Name = 
REMARK  5 active torsions:
REMARK  status: ('A' for Active; 'I' for Inactive)
REMARK    1  A    between atoms: C_1  and  C_2
REMARK    2  A    between atoms: C_5  and  N_6
REMARK    3  A    between atoms: N_6  and  C_7
REMARK    4  A    between atoms: C_14  and  N_15
REMARK    5  A    between atoms: C_18  and  C_19
REMARK                            x       y       z     vdW  Elec       q    Type
REMARK                         _______ _______ _______ _____ _____    ______ ____
ROOT
ATOM      1  C   UNL     1       4.963   4.935  17.073  0.00  0.00    +0.000 A 
ATOM      2  N   UNL     1       5.195   5.165  15.758  0.00  0.00    +0.000 NA
ATOM      3  C   UNL     1       6.443   5.094  15.311  0.00  0.00    +0.000 A 
ATOM      4  N   UNL     1       6.646   5.341  13.972  0.00  0.00    +0.000 N 
ATOM      5  N   UNL     1       7.496   4.758  16.055  0.00  0.00    +0.000 NA
ATOM      6  C   UNL     1       7.266   4.521  17.359  0.00  0.00    +0.000 A 
ATOM      7  N   UNL     1       8.428   4.229  18.094  0.00  0.00    +0.000 N 
ATOM      8  C   UNL     1       6.003   4.614  17.955  0.00  0.00    +0.000 A 
ATOM      9  H   UNL     1       5.785   5.213  13.458  0.00  0.00    +0.000 HD
ATOM     10  H   UNL     1       7.472   4.868  13.636  0.00  0.00    +0.000 HD
ATOM     11  H   UNL     1       9.203   4.143  17.442  0.00  0.00    +0.000 HD
ATOM     12  H   UNL     1       8.324   3.420  18.695  0.00  0.00    +0.000 HD
ENDROOT
BRANCH   1  13
ATOM     13  N   UNL     1       3.613   4.984  17.526  0.00  0.00    +0.000 N 
ATOM     14  H   UNL     1       3.288   4.056  17.778  0.00  0.00    +0.000 HD
BRANCH  13  19
ATOM     15  C   UNL     1       0.945   9.020  20.595  0.00  0.00    +0.000 C 
ATOM     16  C   UNL     1       1.739   8.023  19.799  0.00  0.00    +0.000 A 
ATOM     17  C   UNL     1       1.993   6.764  20.353  0.00  0.00    +0.000 A 
ATOM     18  C   UNL     1       2.641   5.782  19.610  0.00  0.00    +0.000 A 
ATOM     19  C   UNL     1       3.058   6.025  18.298  0.00  0.00    +0.000 A 
ATOM     20  C   UNL     1       2.865   7.304  17.763  0.00  0.00    +0.000 A 
ATOM     21  C   UNL     1       2.208   8.310  18.501  0.00  0.00    +0.000 A 
ATOM     22  C   UNL     1       1.988   9.663  17.880  0.00  0.00    +0.000 C 
ENDBRANCH  13  19
ENDBRANCH   1  13
BRANCH   8  23
ATOM     23  N   UNL     1       5.833   4.304  19.295  0.00  0.00    +0.000 NA
ATOM     24  O   UNL     1       5.190   3.266  19.487  0.00  0.00    +0.000 OA
ENDBRANCH   8  23
TORSDOF 3
ENDMDL
MODEL 6
REMARK VINA RESULT:      -7.7      1.792      2.988
REMARK  Name = 
REMARK  5 active torsions:
REMARK  status: ('A' for Active; 'I' for Inactive)
REMARK    1  A    between atoms: C_1  and  C_2
REMARK    2  A    between atoms: C_5  and  N_6
REMARK    3  A    between atoms: N_6  and  C_7
REMARK    4  A    between atoms: C_14  and  N_15
REMARK    5  A    between atoms: C_18  and  C_19
REMARK                            x       y       z     vdW  Elec       q    Type
REMARK                         _______ _______ _______ _____ _____    ______ ____
ROOT
ATOM      1  C   UNL     1       6.514   4.570  17.868  0.00  0.00    +0.000 A 
ATOM      2  N   UNL     1       6.589   4.507  16.517  0.00  0.00    +0.000 NA
ATOM      3  C   UNL     1       7.179   5.503  15.866  0.00  0.00    +0.000 A 
ATOM      4  N   UNL     1       7.232   5.413  14.493  0.00  0.00    +0.000 N 
ATOM      5  N   UNL     1       7.758   6.551  16.450  0.00  0.00    +0.000 NA
ATOM      6  C   UNL     1       7.691   6.611  17.792  0.00  0.00    +0.000 A 
ATOM      7  N   UNL     1       8.271   7.770  18.337  0.00  0.00    +0.000 N 
ATOM      8  C   UNL     1       7.053   5.648  18.582  0.00  0.00    +0.000 A 
ATOM      9  H   UNL     1       7.114   4.453  14.201  0.00  0.00    +0.000 HD
ATOM     10  H   UNL     1       8.019   5.926  14.126  0.00  0.00    +0.000 HD
ATOM     11  H   UNL     1       8.733   8.276  17.586  0.00  0.00    +0.000 HD
ATOM     12  H   UNL     1       8.884   7.577  19.121  0.00  0.00    +0.000 HD
ENDROOT
BRANCH   1  13
ATOM     13  N   UNL     1       5.906   3.476  18.549  0.00  0.00    +0.000 N 
ATOM     14  H   UNL     1       6.552   3.072  19.220  0.00  0.00    +0.000 HD
BRANCH  13  19
ATOM     15  C   UNL     1       0.398   2.799  19.972  0.00  0.00    +0.000 C 
ATOM     16  C   UNL     1       1.830   3.086  19.622  0.00  0.00    +0.000 A 
ATOM     17  C   UNL     1       2.842   2.575  20.443  0.00  0.00    +0.000 A 
ATOM     18  C   UNL     1       4.181   2.739  20.099  0.00  0.00    +0.000 A 
ATOM     19  C   UNL     1       4.551   3.417  18.935  0.00  0.00    +0.000 A 
ATOM     20  C   UNL     1       3.545   3.987  18.146  0.00  0.00    +0.000 A 
ATOM     21  C   UNL     1       2.184   3.830  18.478  0.00  0.00    +0.000 A 
ATOM     22  C   UNL     1       1.128   4.428  17.587  0.00  0.00    +0.000 C 
ENDBRANCH  13  19
ENDBRANCH   1  13
BRANCH   8  23
ATOM     23  N   UNL     1       7.070   5.748  19.965  0.00  0.00    +0.000 NA
ATOM     24  O   UNL     1       8.035   5.183  20.491  0.00  0.00    +0.000 OA
ENDBRANCH   8  23
TORSDOF 3
ENDMDL
MODEL 7
REMARK VINA RESULT:      -7.6      4.616      6.014
REMARK  Name = 
REMARK  5 active torsions:
REMARK  status: ('A' for Active; 'I' for Inactive)
REMARK    1  A    between atoms: C_1  and  C_2
REMARK    2  A    between atoms: C_5  and  N_6
REMARK    3  A    between atoms: N_6  and  C_7
REMARK    4  A    between atoms: C_14  and  N_15
REMARK    5  A    between atoms: C_18  and  C_19
REMARK                            x       y       z     vdW  Elec       q    Type
REMARK                         _______ _______ _______ _____ _____    ______ ____
ROOT
ATOM      1  C   UNL     1       2.729   4.846  19.852  0.00  0.00    +0.000 A 
ATOM      2  N   UNL     1       2.286   4.325  21.021  0.00  0.00    +0.000 NA
ATOM      3  C   UNL     1       1.897   3.056  21.045  0.00  0.00    +0.000 A 
ATOM      4  N   UNL     1       1.444   2.560  22.247  0.00  0.00    +0.000 N 
ATOM      5  N   UNL     1       1.957   2.226  20.005  0.00  0.00    +0.000 NA
ATOM      6  C   UNL     1       2.404   2.739  18.844  0.00  0.00    +0.000 A 
ATOM      7  N   UNL     1       2.387   1.825  17.777  0.00  0.00    +0.000 N 
ATOM      8  C   UNL     1       2.795   4.074  18.685  0.00  0.00    +0.000 A 
ATOM      9  H   UNL     1       1.785   3.128  23.011  0.00  0.00    +0.000 HD
ATOM     10  H   UNL     1       1.582   1.561  22.302  0.00  0.00    +0.000 HD
ATOM     11  H   UNL     1       2.141   0.911  18.147  0.00  0.00    +0.000 HD
ATOM     12  H   UNL     1       3.250   1.819  17.245  0.00  0.00    +0.000 HD
ENDROOT
BRANCH   1  13
ATOM     13  N   UNL     1       3.173   6.200  19.855  0.00  0.00    +0.000 N 
ATOM     14  H   UNL     1       4.114   6.267  19.481  0.00  0.00    +0.000 HD
BRANCH  13  19
ATOM     15  C   UNL     1       0.238  11.000  18.768  0.00  0.00    +0.000 C 
ATOM     16  C   UNL     1       0.909   9.688  19.064  0.00  0.00    +0.000 A 
ATOM     17  C   UNL     1       1.635   9.056  18.048  0.00  0.00    +0.000 A 
ATOM     18  C   UNL     1       2.348   7.890  18.310  0.00  0.00    +0.000 A 
ATOM     19  C   UNL     1       2.357   7.318  19.585  0.00  0.00    +0.000 A 
ATOM     20  C   UNL     1       1.578   7.910  20.587  0.00  0.00    +0.000 A 
ATOM     21  C   UNL     1       0.851   9.093  20.340  0.00  0.00    +0.000 A 
ATOM     22  C   UNL     1       0.054   9.720  21.452  0.00  0.00    +0.000 C 
ENDBRANCH  13  19
ENDBRANCH   1  13
BRANCH   8  23
ATOM     23  N   UNL     1       3.296   4.520  17.471  0.00  0.00    +0.000 NA
ATOM     24  O   UNL     1       4.520   4.392  17.363  0.00  0.00    +0.000 OA
ENDBRANCH   8  23
TORSDOF 3
ENDMDL
MODEL 8
REMARK VINA RESULT:      -7.6      1.858      2.892
REMARK  Name = 
REMARK  5 active torsions:
REMARK  status: ('A' for Active; 'I' for Inactive)
REMARK    1  A    between atoms: C_1  and  C_2
REMARK    2  A    between atoms: C_5  and  N_6
REMARK    3  A    between atoms: N_6  and  C_7
REMARK    4  A    between atoms: C_14  and  N_15
REMARK    5  A    between atoms: C_18  and  C_19
REMARK                            x       y       z     vdW  Elec       q    Type
REMARK                         _______ _______ _______ _____ _____    ______ ____
ROOT
ATOM      1  C   UNL     1       5.722   3.874  16.392  0.00  0.00    +0.000 A 
ATOM      2  N   UNL     1       5.955   3.692  15.071  0.00  0.00    +0.000 NA
ATOM      3  C   UNL     1       6.705   4.580  14.429  0.00  0.00    +0.000 A 
ATOM      4  N   UNL     1       6.915   4.371  13.084  0.00  0.00    +0.000 N 
ATOM      5  N   UNL     1       7.300   5.624  15.003  0.00  0.00    +0.000 NA
ATOM      6  C   UNL     1       7.078   5.802  16.318  0.00  0.00    +0.000 A 
ATOM      7  N   UNL     1       7.689   6.952  16.845  0.00  0.00    +0.000 N 
ATOM      8  C   UNL     1       6.266   4.962  17.089  0.00  0.00    +0.000 A 
ATOM      9  H   UNL     1       6.748   3.402  12.850  0.00  0.00    +0.000 HD
ATOM     10  H   UNL     1       7.783   4.788  12.783  0.00  0.00    +0.000 HD
ATOM     11  H   UNL     1       8.281   7.356  16.124  0.00  0.00    +0.000 HD
ATOM     12  H   UNL     1       8.183   6.778  17.713  0.00  0.00    +0.000 HD
ENDROOT
BRANCH   1  13
ATOM     13  N   UNL     1       4.942   2.892  17.070  0.00  0.00    +0.000 N 
ATOM     14  H   UNL     1       5.532   2.137  17.404  0.00  0.00    +0.000 HD
BRANCH  13  19
ATOM     15  C   UNL     1       0.595   4.449  20.461  0.00  0.00    +0.000 C 
ATOM     16  C   UNL     1       1.695   3.936  19.576  0.00  0.00    +0.000 A 
ATOM     17  C   UNL     1       1.729   4.342  18.237  0.00  0.00    +0.000 A 
ATOM     18  C   UNL     1       2.784   3.964  17.411  0.00  0.00    +0.000 A 
ATOM     19  C   UNL     1       3.830   3.171  17.890  0.00  0.00    +0.000 A 
ATOM     20  C   UNL     1       3.766   2.708  19.210  0.00  0.00    +0.000 A 
ATOM     21  C   UNL     1       2.706   3.082  20.062  0.00  0.00    +0.000 A 
ATOM     22  C   UNL     1       2.688   2.593  21.485  0.00  0.00    +0.000 C 
ENDBRANCH  13  19
ENDBRANCH   1  13
BRANCH   8  23
ATOM     23  N   UNL     1       6.124   5.176  18.451  0.00  0.00    +0.000 NA
ATOM     24  O   UNL     1       7.123   4.864  19.108  0.00  0.00    +0.000 OA
ENDBRANCH   8  23
TORSDOF 3
ENDMDL
MODEL 9
REMARK VINA RESULT:      -7.6      4.631      6.054
REMARK  Name = 
REMARK  5 active torsions:
REMARK  status: ('A' for Active; 'I' for Inactive)
REMARK    1  A    between atoms: C_1  and  C_2
REMARK    2  A    between atoms: C_5  and  N_6
REMARK    3  A    between atoms: N_6  and  C_7
REMARK    4  A    between atoms: C_14  and  N_15
REMARK    5  A    between atoms: C_18  and  C_19
REMARK                            x       y       z     vdW  Elec       q    Type
REMARK                         _______ _______ _______ _____ _____    ______ ____
ROOT
ATOM      1  C   UNL     1       3.183   4.822  19.287  0.00  0.00    +0.000 A 
ATOM      2  N   UNL     1       4.182   4.682  18.384  0.00  0.00    +0.000 NA
ATOM      3  C   UNL     1       4.227   3.576  17.650  0.00  0.00    +0.000 A 
ATOM      4  N   UNL     1       5.260   3.461  16.748  0.00  0.00    +0.000 N 
ATOM      5  N   UNL     1       3.321   2.601  17.696  0.00  0.00    +0.000 NA
ATOM      6  C   UNL     1       2.322   2.742  18.586  0.00  0.00    +0.000 A 
ATOM      7  N   UNL     1       1.436   1.651  18.621  0.00  0.00    +0.000 N 
ATOM      8  C   UNL     1       2.198   3.838  19.448  0.00  0.00    +0.000 A 
ATOM      9  H   UNL     1       5.643   4.373  16.536  0.00  0.00    +0.000 HD
ATOM     10  H   UNL     1       5.003   2.865  15.975  0.00  0.00    +0.000 HD
ATOM     11  H   UNL     1       1.681   1.020  17.862  0.00  0.00    +0.000 HD
ATOM     12  H   UNL     1       0.462   1.930  18.607  0.00  0.00    +0.000 HD
ENDROOT
BRANCH   1  13
ATOM     13  N   UNL     1       3.135   6.030  20.041  0.00  0.00    +0.000 N 
ATOM     14  H   UNL     1       4.045   6.238  20.440  0.00  0.00    +0.000 HD
BRANCH  13  19
ATOM     15  C   UNL     1       0.446  10.894  18.649  0.00  0.00    +0.000 C 
ATOM     16  C   UNL     1       1.050   9.571  19.024  0.00  0.00    +0.000 A 
ATOM     17  C   UNL     1       1.779   8.864  18.061  0.00  0.00    +0.000 A 
ATOM     18  C   UNL     1       2.432   7.682  18.397  0.00  0.00    +0.000 A 
ATOM     19  C   UNL     1       2.376   7.168  19.695  0.00  0.00    +0.000 A 
ATOM     20  C   UNL     1       1.593   7.836  20.644  0.00  0.00    +0.000 A 
ATOM     21  C   UNL     1       0.926   9.036  20.322  0.00  0.00    +0.000 A 
ATOM     22  C   UNL     1       0.122   9.745  21.378  0.00  0.00    +0.000 C 
ENDBRANCH  13  19
ENDBRANCH   1  13
BRANCH   8  23
ATOM     23  N   UNL     1       1.112   3.942  20.303  0.00  0.00    +0.000 NA
ATOM     24  O   UNL     1       1.142   3.138  21.242  0.00  0.00    +0.000 OA
ENDBRANCH   8  23
TORSDOF 3
ENDMDL
