MODEL 1
REMARK VINA RESULT:      -7.1      0.000      0.000
REMARK  Name = 
REMARK  13 active torsions:
REMARK  status: ('A' for Active; 'I' for Inactive)
REMARK    1  A    between atoms: C_1  and  C_2
REMARK    2  A    between atoms: C_2  and  C_3
REMARK    3  A    between atoms: C_3  and  C_4
REMARK    4  A    between atoms: C_4  and  C_5
REMARK    5  A    between atoms: C_5  and  C_6
REMARK    6  A    between atoms: C_6  and  O_7
REMARK    7  A    between atoms: O_7  and  C_8
REMARK    8  A    between atoms: C_8  and  C_10
REMARK    9  A    between atoms: C_14  and  C_15
REMARK   10  A    between atoms: C_18  and  O_19
REMARK   11  A    between atoms: O_19  and  C_20
REMARK   12  A    between atoms: C_21  and  O_22
REMARK   13  A    between atoms: O_22  and  C_23
REMARK                            x       y       z     vdW  Elec       q    Type
REMARK                         _______ _______ _______ _____ _____    ______ ____
ROOT
ATOM      1  C   UNL     1       5.212   4.565  16.607  0.00  0.00    +0.000 A 
ATOM      2  N   UNL     1       4.086   3.785  16.738  0.00  0.00    +0.000 N 
ATOM      3  C   UNL     1       3.130   4.430  17.473  0.00  0.00    +0.000 A 
ATOM      4 BR   UNL     1       1.529   3.568  17.914  0.00  0.00    +0.000 Br
ATOM      5  C   UNL     1       3.589   5.699  17.794  0.00  0.00    +0.000 A 
ATOM      6  C   UNL     1       4.904   5.766  17.215  0.00  0.00    +0.000 A 
ATOM      7 BR   UNL     1       6.030   7.289  17.201  0.00  0.00    +0.000 Br
ATOM      8  H   UNL     1       3.983   2.859  16.346  0.00  0.00    +0.000 HD
ENDROOT
BRANCH   5   9
ATOM      9  C   UNL     1       2.862   6.708  18.576  0.00  0.00    +0.000 A 
ATOM     10  C   UNL     1       2.527   6.526  19.917  0.00  0.00    +0.000 A 
ATOM     11  C   UNL     1       1.832   7.518  20.616  0.00  0.00    +0.000 A 
ATOM     12  C   UNL     1       1.396   8.690  19.981  0.00  0.00    +0.000 A 
ATOM     13  C   UNL     1       1.688   8.876  18.622  0.00  0.00    +0.000 A 
ATOM     14  C   UNL     1       2.453   7.902  17.958  0.00  0.00    +0.000 A 
BRANCH  12  15
ATOM     15  O   UNL     1       0.719   9.520  20.835  0.00  0.00    +0.000 OA
ATOM     16  C   UNL     1      -0.262   8.960  21.694  0.00  0.00    +0.000 C 
ENDBRANCH  12  15
BRANCH  13  17
ATOM     17  O   UNL     1       1.216   9.998  17.994  0.00  0.00    +0.000 OA
ATOM     18  C   UNL     1       2.021  11.171  17.996  0.00  0.00    +0.000 C 
ENDBRANCH  13  17
ENDBRANCH   5   9
BRANCH   1  19
ATOM     19  C   UNL     1       6.396   4.161  15.884  0.00  0.00    +0.000 C 
ATOM     20  O   UNL     1       7.558   4.311  16.227  0.00  0.00    +0.000 OA
BRANCH  19  21
ATOM     21  O   UNL     1       6.017   3.707  14.654  0.00  0.00    +0.000 OA
BRANCH  21  22
ATOM     22  C   UNL     1       7.050   3.871  13.681  0.00  0.00    +0.000 C 
BRANCH  22  23
ATOM     23  C   UNL     1       6.520   4.177  12.290  0.00  0.00    +0.000 C 
BRANCH  23  24
ATOM     24  C   UNL     1       5.612   3.029  11.843  0.00  0.00    +0.000 C 
BRANCH  24  25
ATOM     25  C   UNL     1       4.136   3.413  11.856  0.00  0.00    +0.000 C 
BRANCH  25  27
ATOM     26  C   UNL     1       3.002   4.270   9.779  0.00  0.00    +0.000 C 
ATOM     27  C   UNL     1       3.459   3.035  10.538  0.00  0.00    +0.000 C 
ENDBRANCH  25  27
ENDBRANCH  24  25
ENDBRANCH  23  24
ENDBRANCH  22  23
ENDBRANCH  21  22
ENDBRANCH  19  21
ENDBRANCH   1  19
TORSDOF 10
ENDMDL
MODEL 2
REMARK VINA RESULT:      -7.0      1.494      2.322
REMARK  Name = 
REMARK  13 active torsions:
REMARK  status: ('A' for Active; 'I' for Inactive)
REMARK    1  A    between atoms: C_1  and  C_2
REMARK    2  A    between atoms: C_2  and  C_3
REMARK    3  A    between atoms: C_3  and  C_4
REMARK    4  A    between atoms: C_4  and  C_5
REMARK    5  A    between atoms: C_5  and  C_6
REMARK    6  A    between atoms: C_6  and  O_7
REMARK    7  A    between atoms: O_7  and  C_8
REMARK    8  A    between atoms: C_8  and  C_10
REMARK    9  A    between atoms: C_14  and  C_15
REMARK   10  A    between atoms: C_18  and  O_19
REMARK   11  A    between atoms: O_19  and  C_20
REMARK   12  A    between atoms: C_21  and  O_22
REMARK   13  A    between atoms: O_22  and  C_23
REMARK                            x       y       z     vdW  Elec       q    Type
REMARK                         _______ _______ _______ _____ _____    ______ ____
ROOT
ATOM      1  C   UNL     1       4.892   4.800  18.236  0.00  0.00    +0.000 A 
ATOM      2  N   UNL     1       3.957   4.191  19.040  0.00  0.00    +0.000 N 
ATOM      3  C   UNL     1       2.963   5.065  19.379  0.00  0.00    +0.000 A 
ATOM      4 BR   UNL     1       1.607   4.549  20.561  0.00  0.00    +0.000 Br
ATOM      5  C   UNL     1       3.189   6.275  18.741  0.00  0.00    +0.000 A 
ATOM      6  C   UNL     1       4.409   6.074  18.006  0.00  0.00    +0.000 A 
ATOM      7 BR   UNL     1       5.209   7.321  16.827  0.00  0.00    +0.000 Br
ATOM      8  H   UNL     1       4.003   3.226  19.341  0.00  0.00    +0.000 HD
ENDROOT
BRANCH   5   9
ATOM      9  C   UNL     1       2.351   7.477  18.845  0.00  0.00    +0.000 A 
ATOM     10  C   UNL     1       2.108   8.324  17.764  0.00  0.00    +0.000 A 
ATOM     11  C   UNL     1       1.303   9.457  17.917  0.00  0.00    +0.000 A 
ATOM     12  C   UNL     1       0.771   9.812  19.164  0.00  0.00    +0.000 A 
ATOM     13  C   UNL     1       1.036   8.997  20.274  0.00  0.00    +0.000 A 
ATOM     14  C   UNL     1       1.783   7.822  20.084  0.00  0.00    +0.000 A 
BRANCH  12  15
ATOM     15  O   UNL     1       0.031  10.964  19.103  0.00  0.00    +0.000 OA
ATOM     16  C   UNL     1      -1.366  10.864  18.873  0.00  0.00    +0.000 C 
ENDBRANCH  12  15
BRANCH  13  17
ATOM     17  O   UNL     1       0.558   9.376  21.501  0.00  0.00    +0.000 OA
ATOM     18  C   UNL     1       1.415   9.264  22.631  0.00  0.00    +0.000 C 
ENDBRANCH  13  17
ENDBRANCH   5   9
BRANCH   1  19
ATOM     19  C   UNL     1       6.064   4.137  17.711  0.00  0.00    +0.000 C 
ATOM     20  O   UNL     1       7.206   4.212  18.133  0.00  0.00    +0.000 OA
BRANCH  19  21
ATOM     21  O   UNL     1       5.721   3.513  16.546  0.00  0.00    +0.000 OA
BRANCH  21  22
ATOM     22  C   UNL     1       6.496   3.981  15.440  0.00  0.00    +0.000 C 
BRANCH  22  23
ATOM     23  C   UNL     1       5.671   4.206  14.184  0.00  0.00    +0.000 C 
BRANCH  23  24
ATOM     24  C   UNL     1       6.499   3.783  12.967  0.00  0.00    +0.000 C 
BRANCH  24  25
ATOM     25  C   UNL     1       5.674   3.016  11.938  0.00  0.00    +0.000 C 
BRANCH  25  27
ATOM     26  C   UNL     1       3.534   2.997  10.613  0.00  0.00    +0.000 C 
ATOM     27  C   UNL     1       4.301   3.661  11.744  0.00  0.00    +0.000 C 
ENDBRANCH  25  27
ENDBRANCH  24  25
ENDBRANCH  23  24
ENDBRANCH  22  23
ENDBRANCH  21  22
ENDBRANCH  19  21
ENDBRANCH   1  19
TORSDOF 10
ENDMDL
MODEL 3
REMARK VINA RESULT:      -6.7      1.455      2.295
REMARK  Name = 
REMARK  13 active torsions:
REMARK  status: ('A' for Active; 'I' for Inactive)
REMARK    1  A    between atoms: C_1  and  C_2
REMARK    2  A    between atoms: C_2  and  C_3
REMARK    3  A    between atoms: C_3  and  C_4
REMARK    4  A    between atoms: C_4  and  C_5
REMARK    5  A    between atoms: C_5  and  C_6
REMARK    6  A    between atoms: C_6  and  O_7
REMARK    7  A    between atoms: O_7  and  C_8
REMARK    8  A    between atoms: C_8  and  C_10
REMARK    9  A    between atoms: C_14  and  C_15
REMARK   10  A    between atoms: C_18  and  O_19
REMARK   11  A    between atoms: O_19  and  C_20
REMARK   12  A    between atoms: C_21  and  O_22
REMARK   13  A    between atoms: O_22  and  C_23
REMARK                            x       y       z     vdW  Elec       q    Type
REMARK                         _______ _______ _______ _____ _____    ______ ____
ROOT
ATOM      1  C   UNL     1       5.884   5.035  17.414  0.00  0.00    +0.000 A 
ATOM      2  N   UNL     1       4.804   4.182  17.424  0.00  0.00    +0.000 N 
ATOM      3  C   UNL     1       3.663   4.845  17.781  0.00  0.00    +0.000 A 
ATOM      4 BR   UNL     1       2.051   3.918  17.992  0.00  0.00    +0.000 Br
ATOM      5  C   UNL     1       3.958   6.190  17.952  0.00  0.00    +0.000 A 
ATOM      6  C   UNL     1       5.370   6.286  17.693  0.00  0.00    +0.000 A 
ATOM      7 BR   UNL     1       6.380   7.887  17.653  0.00  0.00    +0.000 Br
ATOM      8  H   UNL     1       4.851   3.197  17.202  0.00  0.00    +0.000 HD
ENDROOT
BRANCH   5   9
ATOM      9  C   UNL     1       3.007   7.241  18.338  0.00  0.00    +0.000 A 
ATOM     10  C   UNL     1       2.701   8.322  17.513  0.00  0.00    +0.000 A 
ATOM     11  C   UNL     1       1.789   9.297  17.929  0.00  0.00    +0.000 A 
ATOM     12  C   UNL     1       1.207   9.256  19.203  0.00  0.00    +0.000 A 
ATOM     13  C   UNL     1       1.531   8.199  20.066  0.00  0.00    +0.000 A 
ATOM     14  C   UNL     1       2.390   7.189  19.600  0.00  0.00    +0.000 A 
BRANCH  12  15
ATOM     15  O   UNL     1       0.361  10.312  19.420  0.00  0.00    +0.000 OA
ATOM     16  C   UNL     1      -0.990  10.200  19.001  0.00  0.00    +0.000 C 
ENDBRANCH  12  15
BRANCH  13  17
ATOM     17  O   UNL     1       1.000   8.191  21.328  0.00  0.00    +0.000 OA
ATOM     18  C   UNL     1       1.412   9.195  22.248  0.00  0.00    +0.000 C 
ENDBRANCH  13  17
ENDBRANCH   5   9
BRANCH   1  19
ATOM     19  C   UNL     1       7.230   4.632  17.076  0.00  0.00    +0.000 C 
ATOM     20  O   UNL     1       8.019   4.028  17.784  0.00  0.00    +0.000 OA
BRANCH  19  21
ATOM     21  O   UNL     1       7.551   5.173  15.865  0.00  0.00    +0.000 OA
BRANCH  21  22
ATOM     22  C   UNL     1       6.468   5.089  14.937  0.00  0.00    +0.000 C 
BRANCH  22  23
ATOM     23  C   UNL     1       6.309   3.706  14.327  0.00  0.00    +0.000 C 
BRANCH  23  24
ATOM     24  C   UNL     1       5.383   3.806  13.112  0.00  0.00    +0.000 C 
BRANCH  24  25
ATOM     25  C   UNL     1       6.052   3.327  11.828  0.00  0.00    +0.000 C 
BRANCH  25  27
ATOM     26  C   UNL     1       6.662   1.037  10.982  0.00  0.00    +0.000 C 
ATOM     27  C   UNL     1       5.528   1.950  11.417  0.00  0.00    +0.000 C 
ENDBRANCH  25  27
ENDBRANCH  24  25
ENDBRANCH  23  24
ENDBRANCH  22  23
ENDBRANCH  21  22
ENDBRANCH  19  21
ENDBRANCH   1  19
TORSDOF 10
ENDMDL
MODEL 4
REMARK VINA RESULT:      -6.5      2.732      8.068
REMARK  Name = 
REMARK  13 active torsions:
REMARK  status: ('A' for Active; 'I' for Inactive)
REMARK    1  A    between atoms: C_1  and  C_2
REMARK    2  A    between atoms: C_2  and  C_3
REMARK    3  A    between atoms: C_3  and  C_4
REMARK    4  A    between atoms: C_4  and  C_5
REMARK    5  A    between atoms: C_5  and  C_6
REMARK    6  A    between atoms: C_6  and  O_7
REMARK    7  A    between atoms: O_7  and  C_8
REMARK    8  A    between atoms: C_8  and  C_10
REMARK    9  A    between atoms: C_14  and  C_15
REMARK   10  A    between atoms: C_18  and  O_19
REMARK   11  A    between atoms: O_19  and  C_20
REMARK   12  A    between atoms: C_21  and  O_22
REMARK   13  A    between atoms: O_22  and  C_23
REMARK                            x       y       z     vdW  Elec       q    Type
REMARK                         _______ _______ _______ _____ _____    ______ ____
ROOT
ATOM      1  C   UNL     1       1.440   7.856  20.473  0.00  0.00    +0.000 A 
ATOM      2  N   UNL     1       1.525   6.700  21.214  0.00  0.00    +0.000 N 
ATOM      3  C   UNL     1       2.240   5.745  20.548  0.00  0.00    +0.000 A 
ATOM      4 BR   UNL     1       2.426   4.026  21.263  0.00  0.00    +0.000 Br
ATOM      5  C   UNL     1       2.708   6.281  19.358  0.00  0.00    +0.000 A 
ATOM      6  C   UNL     1       2.204   7.628  19.344  0.00  0.00    +0.000 A 
ATOM      7 BR   UNL     1       2.583   8.938  18.030  0.00  0.00    +0.000 Br
ATOM      8  H   UNL     1       1.110   6.576  22.128  0.00  0.00    +0.000 HD
ENDROOT
BRANCH   5   9
ATOM      9  C   UNL     1       3.518   5.578  18.353  0.00  0.00    +0.000 A 
ATOM     10  C   UNL     1       3.027   4.515  17.597  0.00  0.00    +0.000 A 
ATOM     11  C   UNL     1       3.841   3.879  16.654  0.00  0.00    +0.000 A 
ATOM     12  C   UNL     1       5.184   4.243  16.484  0.00  0.00    +0.000 A 
ATOM     13  C   UNL     1       5.711   5.284  17.263  0.00  0.00    +0.000 A 
ATOM     14  C   UNL     1       4.856   5.960  18.150  0.00  0.00    +0.000 A 
BRANCH  12  15
ATOM     15  O   UNL     1       5.809   3.486  15.529  0.00  0.00    +0.000 OA
ATOM     16  C   UNL     1       5.994   4.039  14.235  0.00  0.00    +0.000 C 
ENDBRANCH  12  15
BRANCH  13  17
ATOM     17  O   UNL     1       7.036   5.601  17.132  0.00  0.00    +0.000 OA
ATOM     18  C   UNL     1       7.458   6.920  17.460  0.00  0.00    +0.000 C 
ENDBRANCH  13  17
ENDBRANCH   5   9
BRANCH   1  19
ATOM     19  C   UNL     1       0.749   9.048  20.907  0.00  0.00    +0.000 C 
ATOM     20  O   UNL     1       0.765   9.546  22.021  0.00  0.00    +0.000 OA
BRANCH  19  21
ATOM     21  O   UNL     1      -0.069   9.465  19.897  0.00  0.00    +0.000 OA
BRANCH  21  22
ATOM     22  C   UNL     1      -0.244  10.883  19.901  0.00  0.00    +0.000 C 
BRANCH  22  23
ATOM     23  C   UNL     1      -1.619  11.318  19.421  0.00  0.00    +0.000 C 
BRANCH  23  24
ATOM     24  C   UNL     1      -1.472  12.011  18.064  0.00  0.00    +0.000 C 
BRANCH  24  25
ATOM     25  C   UNL     1      -2.492  11.517  17.043  0.00  0.00    +0.000 C 
BRANCH  25  27
ATOM     26  C   UNL     1      -2.951   9.678  15.387  0.00  0.00    +0.000 C 
ATOM     27  C   UNL     1      -2.233  10.057  16.672  0.00  0.00    +0.000 C 
ENDBRANCH  25  27
ENDBRANCH  24  25
ENDBRANCH  23  24
ENDBRANCH  22  23
ENDBRANCH  21  22
ENDBRANCH  19  21
ENDBRANCH   1  19
TORSDOF 10
ENDMDL
MODEL 5
REMARK VINA RESULT:      -6.4      1.186      1.667
REMARK  Name = 
REMARK  13 active torsions:
REMARK  status: ('A' for Active; 'I' for Inactive)
REMARK    1  A    between atoms: C_1  and  C_2
REMARK    2  A    between atoms: C_2  and  C_3
REMARK    3  A    between atoms: C_3  and  C_4
REMARK    4  A    between atoms: C_4  and  C_5
REMARK    5  A    between atoms: C_5  and  C_6
REMARK    6  A    between atoms: C_6  and  O_7
REMARK    7  A    between atoms: O_7  and  C_8
REMARK    8  A    between atoms: C_8  and  C_10
REMARK    9  A    between atoms: C_14  and  C_15
REMARK   10  A    between atoms: C_18  and  O_19
REMARK   11  A    between atoms: O_19  and  C_20
REMARK   12  A    between atoms: C_21  and  O_22
REMARK   13  A    between atoms: O_22  and  C_23
REMARK                            x       y       z     vdW  Elec       q    Type
REMARK                         _______ _______ _______ _____ _____    ______ ____
ROOT
ATOM      1  C   UNL     1       5.453   4.798  16.567  0.00  0.00    +0.000 A 
ATOM      2  N   UNL     1       4.376   3.944  16.628  0.00  0.00    +0.000 N 
ATOM      3  C   UNL     1       3.374   4.475  17.392  0.00  0.00    +0.000 A 
ATOM      4 BR   UNL     1       1.825   3.489  17.748  0.00  0.00    +0.000 Br
ATOM      5  C   UNL     1       3.750   5.745  17.806  0.00  0.00    +0.000 A 
ATOM      6  C   UNL     1       5.064   5.933  17.252  0.00  0.00    +0.000 A 
ATOM      7 BR   UNL     1       6.093   7.518  17.359  0.00  0.00    +0.000 Br
ATOM      8  H   UNL     1       4.334   3.042  16.170  0.00  0.00    +0.000 HD
ENDROOT
BRANCH   5   9
ATOM      9  C   UNL     1       2.954   6.650  18.646  0.00  0.00    +0.000 A 
ATOM     10  C   UNL     1       2.523   6.308  19.926  0.00  0.00    +0.000 A 
ATOM     11  C   UNL     1       1.765   7.207  20.684  0.00  0.00    +0.000 A 
ATOM     12  C   UNL     1       1.363   8.444  20.162  0.00  0.00    +0.000 A 
ATOM     13  C   UNL     1       1.751   8.793  18.860  0.00  0.00    +0.000 A 
ATOM     14  C   UNL     1       2.576   7.908  18.145  0.00  0.00    +0.000 A 
BRANCH  12  15
ATOM     15  O   UNL     1       0.613   9.164  21.055  0.00  0.00    +0.000 OA
ATOM     16  C   UNL     1       0.977   9.139  22.426  0.00  0.00    +0.000 C 
ENDBRANCH  12  15
BRANCH  13  17
ATOM     17  O   UNL     1       1.313   9.979  18.336  0.00  0.00    +0.000 OA
ATOM     18  C   UNL     1       2.277  10.926  17.889  0.00  0.00    +0.000 C 
ENDBRANCH  13  17
ENDBRANCH   5   9
BRANCH   1  19
ATOM     19  C   UNL     1       6.667   4.519  15.835  0.00  0.00    +0.000 C 
ATOM     20  O   UNL     1       7.768   4.273  16.298  0.00  0.00    +0.000 OA
BRANCH  19  21
ATOM     21  O   UNL     1       6.427   4.724  14.507  0.00  0.00    +0.000 OA
BRANCH  21  22
ATOM     22  C   UNL     1       5.991   3.531  13.852  0.00  0.00    +0.000 C 
BRANCH  22  23
ATOM     23  C   UNL     1       6.355   3.490  12.377  0.00  0.00    +0.000 C 
BRANCH  23  24
ATOM     24  C   UNL     1       5.432   2.497  11.667  0.00  0.00    +0.000 C 
BRANCH  24  25
ATOM     25  C   UNL     1       6.203   1.465  10.850  0.00  0.00    +0.000 C 
BRANCH  25  27
ATOM     26  C   UNL     1       5.821  -1.012  11.081  0.00  0.00    +0.000 C 
ATOM     27  C   UNL     1       6.492   0.213  11.679  0.00  0.00    +0.000 C 
ENDBRANCH  25  27
ENDBRANCH  24  25
ENDBRANCH  23  24
ENDBRANCH  22  23
ENDBRANCH  21  22
ENDBRANCH  19  21
ENDBRANCH   1  19
TORSDOF 10
ENDMDL
MODEL 6
REMARK VINA RESULT:      -6.3      1.765      2.617
REMARK  Name = 
REMARK  13 active torsions:
REMARK  status: ('A' for Active; 'I' for Inactive)
REMARK    1  A    between atoms: C_1  and  C_2
REMARK    2  A    between atoms: C_2  and  C_3
REMARK    3  A    between atoms: C_3  and  C_4
REMARK    4  A    between atoms: C_4  and  C_5
REMARK    5  A    between atoms: C_5  and  C_6
REMARK    6  A    between atoms: C_6  and  O_7
REMARK    7  A    between atoms: O_7  and  C_8
REMARK    8  A    between atoms: C_8  and  C_10
REMARK    9  A    between atoms: C_14  and  C_15
REMARK   10  A    between atoms: C_18  and  O_19
REMARK   11  A    between atoms: O_19  and  C_20
REMARK   12  A    between atoms: C_21  and  O_22
REMARK   13  A    between atoms: O_22  and  C_23
REMARK                            x       y       z     vdW  Elec       q    Type
REMARK                         _______ _______ _______ _____ _____    ______ ____
ROOT
ATOM      1  C   UNL     1       5.129   4.991  18.381  0.00  0.00    +0.000 A 
ATOM      2  N   UNL     1       4.239   4.358  19.218  0.00  0.00    +0.000 N 
ATOM      3  C   UNL     1       3.181   5.173  19.509  0.00  0.00    +0.000 A 
ATOM      4 BR   UNL     1       1.863   4.623  20.719  0.00  0.00    +0.000 Br
ATOM      5  C   UNL     1       3.319   6.360  18.805  0.00  0.00    +0.000 A 
ATOM      6  C   UNL     1       4.553   6.210  18.081  0.00  0.00    +0.000 A 
ATOM      7 BR   UNL     1       5.261   7.446  16.834  0.00  0.00    +0.000 Br
ATOM      8  H   UNL     1       4.357   3.418  19.572  0.00  0.00    +0.000 HD
ENDROOT
BRANCH   5   9
ATOM      9  C   UNL     1       2.392   7.499  18.842  0.00  0.00    +0.000 A 
ATOM     10  C   UNL     1       2.129   8.294  17.728  0.00  0.00    +0.000 A 
ATOM     11  C   UNL     1       1.239   9.369  17.817  0.00  0.00    +0.000 A 
ATOM     12  C   UNL     1       0.637   9.720  19.034  0.00  0.00    +0.000 A 
ATOM     13  C   UNL     1       0.919   8.958  20.177  0.00  0.00    +0.000 A 
ATOM     14  C   UNL     1       1.755   7.836  20.049  0.00  0.00    +0.000 A 
BRANCH  12  15
ATOM     15  O   UNL     1      -0.182  10.812  18.911  0.00  0.00    +0.000 OA
ATOM     16  C   UNL     1      -1.544  10.606  18.569  0.00  0.00    +0.000 C 
ENDBRANCH  12  15
BRANCH  13  17
ATOM     17  O   UNL     1       0.369   9.335  21.373  0.00  0.00    +0.000 OA
ATOM     18  C   UNL     1       0.834  10.530  21.991  0.00  0.00    +0.000 C 
ENDBRANCH  13  17
ENDBRANCH   5   9
BRANCH   1  19
ATOM     19  C   UNL     1       6.349   4.389  17.893  0.00  0.00    +0.000 C 
ATOM     20  O   UNL     1       7.423   4.327  18.469  0.00  0.00    +0.000 OA
BRANCH  19  21
ATOM     21  O   UNL     1       6.159   4.021  16.592  0.00  0.00    +0.000 OA
BRANCH  21  22
ATOM     22  C   UNL     1       7.260   4.396  15.763  0.00  0.00    +0.000 C 
BRANCH  22  23
ATOM     23  C   UNL     1       6.835   4.898  14.393  0.00  0.00    +0.000 C 
BRANCH  23  24
ATOM     24  C   UNL     1       5.460   4.315  14.058  0.00  0.00    +0.000 C 
BRANCH  24  25
ATOM     25  C   UNL     1       5.492   3.410  12.831  0.00  0.00    +0.000 C 
BRANCH  25  27
ATOM     26  C   UNL     1       7.168   2.317  11.304  0.00  0.00    +0.000 C 
ATOM     27  C   UNL     1       6.799   3.585  12.055  0.00  0.00    +0.000 C 
ENDBRANCH  25  27
ENDBRANCH  24  25
ENDBRANCH  23  24
ENDBRANCH  22  23
ENDBRANCH  21  22
ENDBRANCH  19  21
ENDBRANCH   1  19
TORSDOF 10
ENDMDL
MODEL 7
REMARK VINA RESULT:      -6.3      2.721      9.580
REMARK  Name = 
REMARK  13 active torsions:
REMARK  status: ('A' for Active; 'I' for Inactive)
REMARK    1  A    between atoms: C_1  and  C_2
REMARK    2  A    between atoms: C_2  and  C_3
REMARK    3  A    between atoms: C_3  and  C_4
REMARK    4  A    between atoms: C_4  and  C_5
REMARK    5  A    between atoms: C_5  and  C_6
REMARK    6  A    between atoms: C_6  and  O_7
REMARK    7  A    between atoms: O_7  and  C_8
REMARK    8  A    between atoms: C_8  and  C_10
REMARK    9  A    between atoms: C_14  and  C_15
REMARK   10  A    between atoms: C_18  and  O_19
REMARK   11  A    between atoms: O_19  and  C_20
REMARK   12  A    between atoms: C_21  and  O_22
REMARK   13  A    between atoms: O_22  and  C_23
REMARK                            x       y       z     vdW  Elec       q    Type
REMARK                         _______ _______ _______ _____ _____    ______ ____
ROOT
ATOM      1  C   UNL     1       1.307   8.043  20.111  0.00  0.00    +0.000 A 
ATOM      2  N   UNL     1       1.443   6.923  20.898  0.00  0.00    +0.000 N 
ATOM      3  C   UNL     1       2.235   5.991  20.288  0.00  0.00    +0.000 A 
ATOM      4 BR   UNL     1       2.507   4.315  21.073  0.00  0.00    +0.000 Br
ATOM      5  C   UNL     1       2.701   6.512  19.089  0.00  0.00    +0.000 A 
ATOM      6  C   UNL     1       2.114   7.823  19.011  0.00  0.00    +0.000 A 
ATOM      7 BR   UNL     1       2.447   9.105  17.658  0.00  0.00    +0.000 Br
ATOM      8  H   UNL     1       1.011   6.807  21.805  0.00  0.00    +0.000 HD
ENDROOT
BRANCH   5   9
ATOM      9  C   UNL     1       3.581   5.825  18.133  0.00  0.00    +0.000 A 
ATOM     10  C   UNL     1       3.283   4.573  17.599  0.00  0.00    +0.000 A 
ATOM     11  C   UNL     1       4.156   3.962  16.693  0.00  0.00    +0.000 A 
ATOM     12  C   UNL     1       5.378   4.553  16.345  0.00  0.00    +0.000 A 
ATOM     13  C   UNL     1       5.717   5.795  16.902  0.00  0.00    +0.000 A 
ATOM     14  C   UNL     1       4.792   6.427  17.750  0.00  0.00    +0.000 A 
BRANCH  12  15
ATOM     15  O   UNL     1       6.092   3.785  15.463  0.00  0.00    +0.000 OA
ATOM     16  C   UNL     1       5.972   4.053  14.074  0.00  0.00    +0.000 C 
ENDBRANCH  12  15
BRANCH  13  17
ATOM     17  O   UNL     1       6.935   6.344  16.600  0.00  0.00    +0.000 OA
ATOM     18  C   UNL     1       7.417   7.417  17.400  0.00  0.00    +0.000 C 
ENDBRANCH  13  17
ENDBRANCH   5   9
BRANCH   1  19
ATOM     19  C   UNL     1       0.531   9.204  20.481  0.00  0.00    +0.000 C 
ATOM     20  O   UNL     1      -0.355   9.738  19.833  0.00  0.00    +0.000 OA
BRANCH  19  21
ATOM     21  O   UNL     1       1.052   9.722  21.632  0.00  0.00    +0.000 OA
BRANCH  21  22
ATOM     22  C   UNL     1       0.270  10.809  22.131  0.00  0.00    +0.000 C 
BRANCH  22  23
ATOM     23  C   UNL     1      -0.785  10.376  23.135  0.00  0.00    +0.000 C 
BRANCH  23  24
ATOM     24  C   UNL     1      -1.908  11.416  23.151  0.00  0.00    +0.000 C 
BRANCH  24  25
ATOM     25  C   UNL     1      -1.380  12.846  23.193  0.00  0.00    +0.000 C 
BRANCH  25  27
ATOM     26  C   UNL     1      -3.724  13.075  24.081  0.00  0.00    +0.000 C 
ATOM     27  C   UNL     1      -2.455  13.813  23.689  0.00  0.00    +0.000 C 
ENDBRANCH  25  27
ENDBRANCH  24  25
ENDBRANCH  23  24
ENDBRANCH  22  23
ENDBRANCH  21  22
ENDBRANCH  19  21
ENDBRANCH   1  19
TORSDOF 10
ENDMDL
MODEL 8
REMARK VINA RESULT:      -6.2      4.249      6.623
REMARK  Name = 
REMARK  13 active torsions:
REMARK  status: ('A' for Active; 'I' for Inactive)
REMARK    1  A    between atoms: C_1  and  C_2
REMARK    2  A    between atoms: C_2  and  C_3
REMARK    3  A    between atoms: C_3  and  C_4
REMARK    4  A    between atoms: C_4  and  C_5
REMARK    5  A    between atoms: C_5  and  C_6
REMARK    6  A    between atoms: C_6  and  O_7
REMARK    7  A    between atoms: O_7  and  C_8
REMARK    8  A    between atoms: C_8  and  C_10
REMARK    9  A    between atoms: C_14  and  C_15
REMARK   10  A    between atoms: C_18  and  O_19
REMARK   11  A    between atoms: O_19  and  C_20
REMARK   12  A    between atoms: C_21  and  O_22
REMARK   13  A    between atoms: O_22  and  C_23
REMARK                            x       y       z     vdW  Elec       q    Type
REMARK                         _______ _______ _______ _____ _____    ______ ____
ROOT
ATOM      1  C   UNL     1       1.865   7.641  20.215  0.00  0.00    +0.000 A 
ATOM      2  N   UNL     1       1.314   7.763  21.470  0.00  0.00    +0.000 N 
ATOM      3  C   UNL     1       0.736   8.991  21.631  0.00  0.00    +0.000 A 
ATOM      4 BR   UNL     1       0.004   9.488  23.280  0.00  0.00    +0.000 Br
ATOM      5  C   UNL     1       0.836   9.696  20.441  0.00  0.00    +0.000 A 
ATOM      6  C   UNL     1       1.538   8.808  19.553  0.00  0.00    +0.000 A 
ATOM      7 BR   UNL     1       1.900   9.132  17.723  0.00  0.00    +0.000 Br
ATOM      8  H   UNL     1       1.339   7.041  22.178  0.00  0.00    +0.000 HD
ENDROOT
BRANCH   5   9
ATOM      9  C   UNL     1       0.339  11.057  20.197  0.00  0.00    +0.000 A 
ATOM     10  C   UNL     1       1.175  12.172  20.171  0.00  0.00    +0.000 A 
ATOM     11  C   UNL     1       0.650  13.447  19.937  0.00  0.00    +0.000 A 
ATOM     12  C   UNL     1      -0.728  13.653  19.787  0.00  0.00    +0.000 A 
ATOM     13  C   UNL     1      -1.592  12.550  19.849  0.00  0.00    +0.000 A 
ATOM     14  C   UNL     1      -1.038  11.269  20.008  0.00  0.00    +0.000 A 
BRANCH  12  15
ATOM     15  O   UNL     1      -1.036  14.973  19.587  0.00  0.00    +0.000 OA
ATOM     16  C   UNL     1      -0.149  15.770  18.817  0.00  0.00    +0.000 C 
ENDBRANCH  12  15
BRANCH  13  17
ATOM     17  O   UNL     1      -2.942  12.762  19.753  0.00  0.00    +0.000 OA
ATOM     18  C   UNL     1      -3.711  11.900  18.922  0.00  0.00    +0.000 C 
ENDBRANCH  13  17
ENDBRANCH   5   9
BRANCH   1  19
ATOM     19  C   UNL     1       2.547   6.458  19.742  0.00  0.00    +0.000 C 
ATOM     20  O   UNL     1       3.595   6.410  19.119  0.00  0.00    +0.000 OA
BRANCH  19  21
ATOM     21  O   UNL     1       1.747   5.376  19.973  0.00  0.00    +0.000 OA
BRANCH  21  22
ATOM     22  C   UNL     1       2.394   4.396  20.786  0.00  0.00    +0.000 C 
BRANCH  22  23
ATOM     23  C   UNL     1       1.485   3.239  21.166  0.00  0.00    +0.000 C 
BRANCH  23  24
ATOM     24  C   UNL     1       1.350   2.300  19.964  0.00  0.00    +0.000 C 
BRANCH  24  25
ATOM     25  C   UNL     1       2.661   2.136  19.202  0.00  0.00    +0.000 C 
BRANCH  25  27
ATOM     26  C   UNL     1       3.226   3.514  17.173  0.00  0.00    +0.000 C 
ATOM     27  C   UNL     1       2.448   2.320  17.699  0.00  0.00    +0.000 C 
ENDBRANCH  25  27
ENDBRANCH  24  25
ENDBRANCH  23  24
ENDBRANCH  22  23
ENDBRANCH  21  22
ENDBRANCH  19  21
ENDBRANCH   1  19
TORSDOF 10
ENDMDL
MODEL 9
REMARK VINA RESULT:      -6.2      1.412      1.773
REMARK  Name = 
REMARK  13 active torsions:
REMARK  status: ('A' for Active; 'I' for Inactive)
REMARK    1  A    between atoms: C_1  and  C_2
REMARK    2  A    between atoms: C_2  and  C_3
REMARK    3  A    between atoms: C_3  and  C_4
REMARK    4  A    between atoms: C_4  and  C_5
REMARK    5  A    between atoms: C_5  and  C_6
REMARK    6  A    between atoms: C_6  and  O_7
REMARK    7  A    between atoms: O_7  and  C_8
REMARK    8  A    between atoms: C_8  and  C_10
REMARK    9  A    between atoms: C_14  and  C_15
REMARK   10  A    between atoms: C_18  and  O_19
REMARK   11  A    between atoms: O_19  and  C_20
REMARK   12  A    between atoms: C_21  and  O_22
REMARK   13  A    between atoms: O_22  and  C_23
REMARK                            x       y       z     vdW  Elec       q    Type
REMARK                         _______ _______ _______ _____ _____    ______ ____
ROOT
ATOM      1  C   UNL     1       4.544   4.859  17.707  0.00  0.00    +0.000 A 
ATOM      2  N   UNL     1       3.572   4.052  18.252  0.00  0.00    +0.000 N 
ATOM      3  C   UNL     1       2.646   4.795  18.930  0.00  0.00    +0.000 A 
ATOM      4 BR   UNL     1       1.264   3.959  19.875  0.00  0.00    +0.000 Br
ATOM      5  C   UNL     1       2.956   6.139  18.789  0.00  0.00    +0.000 A 
ATOM      6  C   UNL     1       4.153   6.153  17.991  0.00  0.00    +0.000 A 
ATOM      7 BR   UNL     1       5.033   7.699  17.344  0.00  0.00    +0.000 Br
ATOM      8  H   UNL     1       3.550   3.044  18.165  0.00  0.00    +0.000 HD
ENDROOT
BRANCH   5   9
ATOM      9  C   UNL     1       2.208   7.264  19.367  0.00  0.00    +0.000 A 
ATOM     10  C   UNL     1       1.899   7.348  20.723  0.00  0.00    +0.000 A 
ATOM     11  C   UNL     1       1.182   8.440  21.222  0.00  0.00    +0.000 A 
ATOM     12  C   UNL     1       0.699   9.445  20.374  0.00  0.00    +0.000 A 
ATOM     13  C   UNL     1       0.964   9.361  18.999  0.00  0.00    +0.000 A 
ATOM     14  C   UNL     1       1.751   8.296  18.529  0.00  0.00    +0.000 A 
BRANCH  12  15
ATOM     15  O   UNL     1       0.007  10.411  21.057  0.00  0.00    +0.000 OA
ATOM     16  C   UNL     1      -0.271  10.205  22.433  0.00  0.00    +0.000 C 
ENDBRANCH  12  15
BRANCH  13  17
ATOM     17  O   UNL     1       0.446  10.318  18.167  0.00  0.00    +0.000 OA
ATOM     18  C   UNL     1      -0.932  10.246  17.819  0.00  0.00    +0.000 C 
ENDBRANCH  13  17
ENDBRANCH   5   9
BRANCH   1  19
ATOM     19  C   UNL     1       5.660   4.369  16.931  0.00  0.00    +0.000 C 
ATOM     20  O   UNL     1       6.796   4.159  17.324  0.00  0.00    +0.000 OA
BRANCH  19  21
ATOM     21  O   UNL     1       5.285   4.317  15.620  0.00  0.00    +0.000 OA
BRANCH  21  22
ATOM     22  C   UNL     1       6.312   3.771  14.790  0.00  0.00    +0.000 C 
BRANCH  22  23
ATOM     23  C   UNL     1       6.673   4.665  13.616  0.00  0.00    +0.000 C 
BRANCH  23  24
ATOM     24  C   UNL     1       6.700   3.819  12.340  0.00  0.00    +0.000 C 
BRANCH  24  25
ATOM     25  C   UNL     1       5.377   3.104  12.086  0.00  0.00    +0.000 C 
BRANCH  25  27
ATOM     26  C   UNL     1       7.073   1.548  11.069  0.00  0.00    +0.000 C 
ATOM     27  C   UNL     1       5.595   1.812  11.298  0.00  0.00    +0.000 C 
ENDBRANCH  25  27
ENDBRANCH  24  25
ENDBRANCH  23  24
ENDBRANCH  22  23
ENDBRANCH  21  22
ENDBRANCH  19  21
ENDBRANCH   1  19
TORSDOF 10
ENDMDL
