MODEL 1
REMARK VINA RESULT:      -9.6      0.000      0.000
REMARK  Name = 
REMARK  5 active torsions:
REMARK  status: ('A' for Active; 'I' for Inactive)
REMARK    1  A    between atoms: C_1  and  C_2
REMARK    2  A    between atoms: N_10  and  C_11
REMARK    3  A    between atoms: C_11  and  C_12
REMARK    4  A    between atoms: N_17  and  C_18
REMARK    5  A    between atoms: C_22  and  C_23
REMARK                            x       y       z     vdW  Elec       q    Type
REMARK                         _______ _______ _______ _____ _____    ______ ____
ROOT
ATOM      1  C   UNL     1       0.688  11.198  19.582  0.00  0.00    +0.000 C 
ATOM      2  O   UNL     1       0.535  12.006  18.663  0.00  0.00    +0.000 OA
ATOM      3  N   UNL     1       1.013   9.873  19.329  0.00  0.00    +0.000 N 
ATOM      4  C   UNL     1       1.348   9.447  17.963  0.00  0.00    +0.000 C 
ATOM      5  C   UNL     1       2.579   8.514  17.952  0.00  0.00    +0.000 C 
ATOM      6  N   UNL     1       2.376   7.413  18.911  0.00  0.00    +0.000 N 
ATOM      7  C   UNL     1       2.054   7.827  20.282  0.00  0.00    +0.000 C 
ATOM      8  C   UNL     1       0.836   8.761  20.276  0.00  0.00    +0.000 C 
ENDROOT
BRANCH   6   9
ATOM      9  C   UNL     1       2.623   6.098  18.580  0.00  0.00    +0.000 A 
ATOM     10  C   UNL     1       3.577   5.750  17.618  0.00  0.00    +0.000 A 
ATOM     11  C   UNL     1       3.787   4.423  17.233  0.00  0.00    +0.000 A 
ATOM     12  C   UNL     1       3.020   3.410  17.796  0.00  0.00    +0.000 A 
ATOM     13  C   UNL     1       2.051   3.711  18.756  0.00  0.00    +0.000 A 
ATOM     14  C   UNL     1       1.886   5.051  19.158  0.00  0.00    +0.000 A 
BRANCH  13  15
ATOM     15  C   UNL     1       1.157   2.638  19.320  0.00  0.00    +0.000 C 
ATOM     16  F   UNL     1       0.614   2.963  20.527  0.00  0.00    +0.000 F 
ATOM     17  F   UNL     1       0.107   2.340  18.507  0.00  0.00    +0.000 F 
ATOM     18  F   UNL     1       1.818   1.462  19.520  0.00  0.00    +0.000 F 
ENDBRANCH  13  15
ENDBRANCH   6   9
BRANCH   1  19
ATOM     19  C   UNL     1       0.588  11.651  21.042  0.00  0.00    +0.000 C 
BRANCH  19  29
ATOM     20  C   UNL     1      -7.914  15.182  22.270  0.00  0.00    +0.000 C 
ATOM     21  C   UNL     1      -6.791  14.299  22.733  0.00  0.00    +0.000 A 
ATOM     22  C   UNL     1      -6.905  13.554  23.912  0.00  0.00    +0.000 A 
ATOM     23  C   UNL     1      -5.866  12.731  24.360  0.00  0.00    +0.000 A 
ATOM     24  C   UNL     1      -4.698  12.678  23.589  0.00  0.00    +0.000 A 
ATOM     25  N   UNL     1      -3.531  11.970  23.792  0.00  0.00    +0.000 N 
ATOM     26  C   UNL     1      -2.652  12.235  22.781  0.00  0.00    +0.000 A 
ATOM     27  C   UNL     1      -1.331  11.710  22.595  0.00  0.00    +0.000 A 
ATOM     28  O   UNL     1      -0.841  10.888  23.357  0.00  0.00    +0.000 OA
ATOM     29  N   UNL     1      -0.706  12.201  21.430  0.00  0.00    +0.000 N 
ATOM     30  N   UNL     1      -1.318  13.086  20.514  0.00  0.00    +0.000 NA
ATOM     31  C   UNL     1      -2.525  13.520  20.743  0.00  0.00    +0.000 A 
ATOM     32  C   UNL     1      -3.252  13.106  21.908  0.00  0.00    +0.000 A 
ATOM     33  C   UNL     1      -4.546  13.408  22.405  0.00  0.00    +0.000 A 
ATOM     34  C   UNL     1      -5.610  14.226  21.974  0.00  0.00    +0.000 A 
ATOM     35  H   UNL     1      -3.346  11.347  24.569  0.00  0.00    +0.000 HD
ENDBRANCH  19  29
ENDBRANCH   1  19
TORSDOF 4
ENDMDL
MODEL 2
REMARK VINA RESULT:      -9.2      0.835      1.168
REMARK  Name = 
REMARK  5 active torsions:
REMARK  status: ('A' for Active; 'I' for Inactive)
REMARK    1  A    between atoms: C_1  and  C_2
REMARK    2  A    between atoms: N_10  and  C_11
REMARK    3  A    between atoms: C_11  and  C_12
REMARK    4  A    between atoms: N_17  and  C_18
REMARK    5  A    between atoms: C_22  and  C_23
REMARK                            x       y       z     vdW  Elec       q    Type
REMARK                         _______ _______ _______ _____ _____    ______ ____
ROOT
ATOM      1  C   UNL     1       0.724  11.390  19.860  0.00  0.00    +0.000 C 
ATOM      2  O   UNL     1       0.650  12.163  18.902  0.00  0.00    +0.000 OA
ATOM      3  N   UNL     1       0.942  10.032  19.675  0.00  0.00    +0.000 N 
ATOM      4  C   UNL     1       1.259   9.516  18.336  0.00  0.00    +0.000 C 
ATOM      5  C   UNL     1       2.409   8.486  18.391  0.00  0.00    +0.000 C 
ATOM      6  N   UNL     1       2.103   7.452  19.396  0.00  0.00    +0.000 N 
ATOM      7  C   UNL     1       1.797   7.956  20.740  0.00  0.00    +0.000 C 
ATOM      8  C   UNL     1       0.660   8.985  20.670  0.00  0.00    +0.000 C 
ENDROOT
BRANCH   6   9
ATOM      9  C   UNL     1       2.245   6.107  19.131  0.00  0.00    +0.000 A 
ATOM     10  C   UNL     1       2.376   5.626  17.824  0.00  0.00    +0.000 A 
ATOM     11  C   UNL     1       2.457   4.259  17.545  0.00  0.00    +0.000 A 
ATOM     12  C   UNL     1       2.384   3.337  18.582  0.00  0.00    +0.000 A 
ATOM     13  C   UNL     1       2.245   3.771  19.903  0.00  0.00    +0.000 A 
ATOM     14  C   UNL     1       2.208   5.154  20.162  0.00  0.00    +0.000 A 
BRANCH  13  15
ATOM     15  C   UNL     1       2.086   2.785  21.030  0.00  0.00    +0.000 C 
ATOM     16  F   UNL     1       1.513   1.609  20.645  0.00  0.00    +0.000 F 
ATOM     17  F   UNL     1       3.268   2.449  21.614  0.00  0.00    +0.000 F 
ATOM     18  F   UNL     1       1.297   3.264  22.034  0.00  0.00    +0.000 F 
ENDBRANCH  13  15
ENDBRANCH   6   9
BRANCH   1  19
ATOM     19  C   UNL     1       0.641  11.919  21.296  0.00  0.00    +0.000 C 
BRANCH  19  29
ATOM     20  C   UNL     1      -7.887  15.362  22.589  0.00  0.00    +0.000 C 
ATOM     21  C   UNL     1      -6.799  14.399  22.970  0.00  0.00    +0.000 A 
ATOM     22  C   UNL     1      -6.987  13.483  24.010  0.00  0.00    +0.000 A 
ATOM     23  C   UNL     1      -5.982  12.582  24.381  0.00  0.00    +0.000 A 
ATOM     24  C   UNL     1      -4.773  12.629  23.677  0.00  0.00    +0.000 A 
ATOM     25  N   UNL     1      -3.625  11.878  23.831  0.00  0.00    +0.000 N 
ATOM     26  C   UNL     1      -2.688  12.282  22.924  0.00  0.00    +0.000 A 
ATOM     27  C   UNL     1      -1.363  11.769  22.731  0.00  0.00    +0.000 A 
ATOM     28  O   UNL     1      -0.923  10.831  23.382  0.00  0.00    +0.000 OA
ATOM     29  N   UNL     1      -0.668  12.424  21.693  0.00  0.00    +0.000 N 
ATOM     30  N   UNL     1      -1.220  13.451  20.893  0.00  0.00    +0.000 NA
ATOM     31  C   UNL     1      -2.434  13.865  21.121  0.00  0.00    +0.000 A 
ATOM     32  C   UNL     1      -3.230  13.288  22.165  0.00  0.00    +0.000 A 
ATOM     33  C   UNL     1      -4.547  13.531  22.631  0.00  0.00    +0.000 A 
ATOM     34  C   UNL     1      -5.578  14.424  22.275  0.00  0.00    +0.000 A 
ATOM     35  H   UNL     1      -3.489  11.140  24.511  0.00  0.00    +0.000 HD
ENDBRANCH  19  29
ENDBRANCH   1  19
TORSDOF 4
ENDMDL
MODEL 3
REMARK VINA RESULT:      -9.0      4.808     11.733
REMARK  Name = 
REMARK  5 active torsions:
REMARK  status: ('A' for Active; 'I' for Inactive)
REMARK    1  A    between atoms: C_1  and  C_2
REMARK    2  A    between atoms: N_10  and  C_11
REMARK    3  A    between atoms: C_11  and  C_12
REMARK    4  A    between atoms: N_17  and  C_18
REMARK    5  A    between atoms: C_22  and  C_23
REMARK                            x       y       z     vdW  Elec       q    Type
REMARK                         _______ _______ _______ _____ _____    ______ ____
ROOT
ATOM      1  C   UNL     1       3.393   5.803  19.910  0.00  0.00    +0.000 C 
ATOM      2  O   UNL     1       3.055   4.842  20.605  0.00  0.00    +0.000 OA
ATOM      3  N   UNL     1       2.489   6.799  19.568  0.00  0.00    +0.000 N 
ATOM      4  C   UNL     1       1.150   6.812  20.171  0.00  0.00    +0.000 C 
ATOM      5  C   UNL     1       0.744   8.238  20.604  0.00  0.00    +0.000 C 
ATOM      6  N   UNL     1       0.923   9.169  19.474  0.00  0.00    +0.000 N 
ATOM      7  C   UNL     1       2.262   9.174  18.872  0.00  0.00    +0.000 C 
ATOM      8  C   UNL     1       2.655   7.749  18.457  0.00  0.00    +0.000 C 
ENDROOT
BRANCH   6   9
ATOM      9  C   UNL     1      -0.047  10.079  19.113  0.00  0.00    +0.000 A 
ATOM     10  C   UNL     1      -0.354  11.183  19.915  0.00  0.00    +0.000 A 
ATOM     11  C   UNL     1      -1.380  12.073  19.585  0.00  0.00    +0.000 A 
ATOM     12  C   UNL     1      -2.142  11.857  18.443  0.00  0.00    +0.000 A 
ATOM     13  C   UNL     1      -1.876  10.763  17.616  0.00  0.00    +0.000 A 
ATOM     14  C   UNL     1      -0.810   9.904  17.947  0.00  0.00    +0.000 A 
BRANCH  13  15
ATOM     15  C   UNL     1      -2.740  10.469  16.418  0.00  0.00    +0.000 C 
ATOM     16  F   UNL     1      -4.073  10.443  16.704  0.00  0.00    +0.000 F 
ATOM     17  F   UNL     1      -2.592  11.382  15.419  0.00  0.00    +0.000 F 
ATOM     18  F   UNL     1      -2.462   9.257  15.859  0.00  0.00    +0.000 F 
ENDBRANCH  13  15
ENDBRANCH   6   9
BRANCH   1  19
ATOM     19  C   UNL     1       4.848   5.960  19.454  0.00  0.00    +0.000 C 
BRANCH  19  29
ATOM     20  C   UNL     1       5.526   2.176  11.000  0.00  0.00    +0.000 C 
ATOM     21  C   UNL     1       6.032   3.129  12.045  0.00  0.00    +0.000 A 
ATOM     22  C   UNL     1       7.147   3.937  11.798  0.00  0.00    +0.000 A 
ATOM     23  C   UNL     1       7.634   4.826  12.763  0.00  0.00    +0.000 A 
ATOM     24  C   UNL     1       6.970   4.879  13.994  0.00  0.00    +0.000 A 
ATOM     25  N   UNL     1       7.231   5.643  15.113  0.00  0.00    +0.000 N 
ATOM     26  C   UNL     1       6.322   5.353  16.090  0.00  0.00    +0.000 A 
ATOM     27  C   UNL     1       6.223   5.918  17.403  0.00  0.00    +0.000 A 
ATOM     28  O   UNL     1       6.973   6.802  17.794  0.00  0.00    +0.000 OA
ATOM     29  N   UNL     1       5.152   5.384  18.149  0.00  0.00    +0.000 N 
ATOM     30  N   UNL     1       4.241   4.423  17.654  0.00  0.00    +0.000 NA
ATOM     31  C   UNL     1       4.388   3.956  16.447  0.00  0.00    +0.000 A 
ATOM     32  C   UNL     1       5.455   4.409  15.602  0.00  0.00    +0.000 A 
ATOM     33  C   UNL     1       5.852   4.087  14.279  0.00  0.00    +0.000 A 
ATOM     34  C   UNL     1       5.378   3.203  13.288  0.00  0.00    +0.000 A 
ATOM     35  H   UNL     1       7.982   6.317  15.205  0.00  0.00    +0.000 HD
ENDBRANCH  19  29
ENDBRANCH   1  19
TORSDOF 4
ENDMDL
MODEL 4
REMARK VINA RESULT:      -9.0      1.874      2.356
REMARK  Name = 
REMARK  5 active torsions:
REMARK  status: ('A' for Active; 'I' for Inactive)
REMARK    1  A    between atoms: C_1  and  C_2
REMARK    2  A    between atoms: N_10  and  C_11
REMARK    3  A    between atoms: C_11  and  C_12
REMARK    4  A    between atoms: N_17  and  C_18
REMARK    5  A    between atoms: C_22  and  C_23
REMARK                            x       y       z     vdW  Elec       q    Type
REMARK                         _______ _______ _______ _____ _____    ______ ____
ROOT
ATOM      1  C   UNL     1       0.866  11.130  19.583  0.00  0.00    +0.000 C 
ATOM      2  O   UNL     1       0.785  12.021  18.734  0.00  0.00    +0.000 OA
ATOM      3  N   UNL     1       1.177   9.825  19.230  0.00  0.00    +0.000 N 
ATOM      4  C   UNL     1       1.583   9.514  17.852  0.00  0.00    +0.000 C 
ATOM      5  C   UNL     1       2.792   8.554  17.827  0.00  0.00    +0.000 C 
ATOM      6  N   UNL     1       2.509   7.376  18.669  0.00  0.00    +0.000 N 
ATOM      7  C   UNL     1       2.115   7.674  20.051  0.00  0.00    +0.000 C 
ATOM      8  C   UNL     1       0.920   8.638  20.060  0.00  0.00    +0.000 C 
ENDROOT
BRANCH   6   9
ATOM      9  C   UNL     1       2.747   6.090  18.234  0.00  0.00    +0.000 A 
ATOM     10  C   UNL     1       1.977   5.011  18.680  0.00  0.00    +0.000 A 
ATOM     11  C   UNL     1       2.253   3.697  18.293  0.00  0.00    +0.000 A 
ATOM     12  C   UNL     1       3.334   3.435  17.460  0.00  0.00    +0.000 A 
ATOM     13  C   UNL     1       4.136   4.481  16.996  0.00  0.00    +0.000 A 
ATOM     14  C   UNL     1       3.812   5.800  17.366  0.00  0.00    +0.000 A 
BRANCH  13  15
ATOM     15  C   UNL     1       5.357   4.208  16.157  0.00  0.00    +0.000 C 
ATOM     16  F   UNL     1       6.504   4.717  16.689  0.00  0.00    +0.000 F 
ATOM     17  F   UNL     1       5.589   2.880  15.972  0.00  0.00    +0.000 F 
ATOM     18  F   UNL     1       5.262   4.747  14.908  0.00  0.00    +0.000 F 
ENDBRANCH  13  15
ENDBRANCH   6   9
BRANCH   1  19
ATOM     19  C   UNL     1       0.689  11.453  21.071  0.00  0.00    +0.000 C 
BRANCH  19  29
ATOM     20  C   UNL     1      -7.871  14.898  22.130  0.00  0.00    +0.000 C 
ATOM     21  C   UNL     1      -6.727  14.071  22.643  0.00  0.00    +0.000 A 
ATOM     22  C   UNL     1      -6.817  13.407  23.871  0.00  0.00    +0.000 A 
ATOM     23  C   UNL     1      -5.759  12.636  24.365  0.00  0.00    +0.000 A 
ATOM     24  C   UNL     1      -4.596  12.552  23.589  0.00  0.00    +0.000 A 
ATOM     25  N   UNL     1      -3.414  11.882  23.829  0.00  0.00    +0.000 N 
ATOM     26  C   UNL     1      -2.548  12.094  22.795  0.00  0.00    +0.000 A 
ATOM     27  C   UNL     1      -1.219  11.582  22.633  0.00  0.00    +0.000 A 
ATOM     28  O   UNL     1      -0.706  10.824  23.445  0.00  0.00    +0.000 OA
ATOM     29  N   UNL     1      -0.613  12.004  21.431  0.00  0.00    +0.000 N 
ATOM     30  N   UNL     1      -1.249  12.811  20.462  0.00  0.00    +0.000 NA
ATOM     31  C   UNL     1      -2.462  13.238  20.672  0.00  0.00    +0.000 A 
ATOM     32  C   UNL     1      -3.172  12.891  21.869  0.00  0.00    +0.000 A 
ATOM     33  C   UNL     1      -4.468  13.202  22.357  0.00  0.00    +0.000 A 
ATOM     34  C   UNL     1      -5.551  13.968  21.880  0.00  0.00    +0.000 A 
ATOM     35  H   UNL     1      -3.210  11.318  24.646  0.00  0.00    +0.000 HD
ENDBRANCH  19  29
ENDBRANCH   1  19
TORSDOF 4
ENDMDL
MODEL 5
REMARK VINA RESULT:      -9.0      1.371      1.894
REMARK  Name = 
REMARK  5 active torsions:
REMARK  status: ('A' for Active; 'I' for Inactive)
REMARK    1  A    between atoms: C_1  and  C_2
REMARK    2  A    between atoms: N_10  and  C_11
REMARK    3  A    between atoms: C_11  and  C_12
REMARK    4  A    between atoms: N_17  and  C_18
REMARK    5  A    between atoms: C_22  and  C_23
REMARK                            x       y       z     vdW  Elec       q    Type
REMARK                         _______ _______ _______ _____ _____    ______ ____
ROOT
ATOM      1  C   UNL     1       1.024  10.999  19.659  0.00  0.00    +0.000 C 
ATOM      2  O   UNL     1       1.135  11.622  18.600  0.00  0.00    +0.000 OA
ATOM      3  N   UNL     1       1.078   9.612  19.687  0.00  0.00    +0.000 N 
ATOM      4  C   UNL     1       1.437   8.867  18.472  0.00  0.00    +0.000 C 
ATOM      5  C   UNL     1       2.434   7.730  18.787  0.00  0.00    +0.000 C 
ATOM      6  N   UNL     1       1.910   6.901  19.889  0.00  0.00    +0.000 N 
ATOM      7  C   UNL     1       1.560   7.634  21.112  0.00  0.00    +0.000 C 
ATOM      8  C   UNL     1       0.578   8.767  20.782  0.00  0.00    +0.000 C 
ENDROOT
BRANCH   6   9
ATOM      9  C   UNL     1       1.897   5.525  19.829  0.00  0.00    +0.000 A 
ATOM     10  C   UNL     1       0.929   4.770  20.501  0.00  0.00    +0.000 A 
ATOM     11  C   UNL     1       0.948   3.373  20.496  0.00  0.00    +0.000 A 
ATOM     12  C   UNL     1       1.964   2.698  19.828  0.00  0.00    +0.000 A 
ATOM     13  C   UNL     1       2.956   3.410  19.150  0.00  0.00    +0.000 A 
ATOM     14  C   UNL     1       2.892   4.817  19.135  0.00  0.00    +0.000 A 
BRANCH  13  15
ATOM     15  C   UNL     1       4.106   2.698  18.488  0.00  0.00    +0.000 C 
ATOM     16  F   UNL     1       4.113   2.825  17.130  0.00  0.00    +0.000 F 
ATOM     17  F   UNL     1       5.321   3.143  18.911  0.00  0.00    +0.000 F 
ATOM     18  F   UNL     1       4.097   1.356  18.730  0.00  0.00    +0.000 F 
ENDBRANCH  13  15
ENDBRANCH   6   9
BRANCH   1  19
ATOM     19  C   UNL     1       0.889  11.744  20.991  0.00  0.00    +0.000 C 
BRANCH  19  29
ATOM     20  C   UNL     1      -7.914  14.612  21.712  0.00  0.00    +0.000 C 
ATOM     21  C   UNL     1      -6.721  13.911  22.295  0.00  0.00    +0.000 A 
ATOM     22  C   UNL     1      -6.781  13.333  23.567  0.00  0.00    +0.000 A 
ATOM     23  C   UNL     1      -5.676  12.681  24.127  0.00  0.00    +0.000 A 
ATOM     24  C   UNL     1      -4.499  12.628  23.371  0.00  0.00    +0.000 A 
ATOM     25  N   UNL     1      -3.274  12.066  23.671  0.00  0.00    +0.000 N 
ATOM     26  C   UNL     1      -2.412  12.266  22.632  0.00  0.00    +0.000 A 
ATOM     27  C   UNL     1      -1.046  11.844  22.522  0.00  0.00    +0.000 A 
ATOM     28  O   UNL     1      -0.491  11.187  23.392  0.00  0.00    +0.000 OA
ATOM     29  N   UNL     1      -0.454  12.221  21.298  0.00  0.00    +0.000 N 
ATOM     30  N   UNL     1      -1.133  12.906  20.266  0.00  0.00    +0.000 NA
ATOM     31  C   UNL     1      -2.378  13.255  20.432  0.00  0.00    +0.000 A 
ATOM     32  C   UNL     1      -3.078  12.945  21.644  0.00  0.00    +0.000 A 
ATOM     33  C   UNL     1      -4.400  13.193  22.095  0.00  0.00    +0.000 A 
ATOM     34  C   UNL     1      -5.529  13.840  21.552  0.00  0.00    +0.000 A 
ATOM     35  H   UNL     1      -3.042  11.580  24.529  0.00  0.00    +0.000 HD
ENDBRANCH  19  29
ENDBRANCH   1  19
TORSDOF 4
ENDMDL
MODEL 6
REMARK VINA RESULT:      -9.0      4.182     10.585
REMARK  Name = 
REMARK  5 active torsions:
REMARK  status: ('A' for Active; 'I' for Inactive)
REMARK    1  A    between atoms: C_1  and  C_2
REMARK    2  A    between atoms: N_10  and  C_11
REMARK    3  A    between atoms: C_11  and  C_12
REMARK    4  A    between atoms: N_17  and  C_18
REMARK    5  A    between atoms: C_22  and  C_23
REMARK                            x       y       z     vdW  Elec       q    Type
REMARK                         _______ _______ _______ _____ _____    ______ ____
ROOT
ATOM      1  C   UNL     1       0.795  12.011  20.375  0.00  0.00    +0.000 C 
ATOM      2  O   UNL     1       1.777  12.433  20.991  0.00  0.00    +0.000 OA
ATOM      3  N   UNL     1      -0.494  12.374  20.739  0.00  0.00    +0.000 N 
ATOM      4  C   UNL     1      -0.704  13.405  21.764  0.00  0.00    +0.000 C 
ATOM      5  C   UNL     1      -1.815  14.393  21.346  0.00  0.00    +0.000 C 
ATOM      6  N   UNL     1      -3.027  13.645  20.965  0.00  0.00    +0.000 N 
ATOM      7  C   UNL     1      -2.832  12.620  19.932  0.00  0.00    +0.000 C 
ATOM      8  C   UNL     1      -1.717  11.653  20.356  0.00  0.00    +0.000 C 
ENDROOT
BRANCH   6   9
ATOM      9  C   UNL     1      -4.278  13.987  21.431  0.00  0.00    +0.000 A 
ATOM     10  C   UNL     1      -4.906  15.176  21.042  0.00  0.00    +0.000 A 
ATOM     11  C   UNL     1      -6.146  15.559  21.560  0.00  0.00    +0.000 A 
ATOM     12  C   UNL     1      -6.777  14.760  22.506  0.00  0.00    +0.000 A 
ATOM     13  C   UNL     1      -6.184  13.568  22.930  0.00  0.00    +0.000 A 
ATOM     14  C   UNL     1      -4.953  13.182  22.362  0.00  0.00    +0.000 A 
BRANCH  13  15
ATOM     15  C   UNL     1      -6.814  12.729  24.011  0.00  0.00    +0.000 C 
ATOM     16  F   UNL     1      -7.552  11.689  23.528  0.00  0.00    +0.000 F 
ATOM     17  F   UNL     1      -5.900  12.178  24.856  0.00  0.00    +0.000 F 
ATOM     18  F   UNL     1      -7.664  13.447  24.798  0.00  0.00    +0.000 F 
ENDBRANCH  13  15
ENDBRANCH   6   9
BRANCH   1  19
ATOM     19  C   UNL     1       0.974  11.120  19.140  0.00  0.00    +0.000 C 
BRANCH  19  29
ATOM     20  C   UNL     1       2.562   2.326  21.669  0.00  0.00    +0.000 C 
ATOM     21  C   UNL     1       2.629   3.418  20.640  0.00  0.00    +0.000 A 
ATOM     22  C   UNL     1       3.155   3.171  19.367  0.00  0.00    +0.000 A 
ATOM     23  C   UNL     1       3.229   4.179  18.399  0.00  0.00    +0.000 A 
ATOM     24  C   UNL     1       2.762   5.452  18.746  0.00  0.00    +0.000 A 
ATOM     25  N   UNL     1       2.721   6.617  18.006  0.00  0.00    +0.000 N 
ATOM     26  C   UNL     1       2.189   7.622  18.762  0.00  0.00    +0.000 A 
ATOM     27  C   UNL     1       1.959   8.986  18.385  0.00  0.00    +0.000 A 
ATOM     28  O   UNL     1       2.201   9.404  17.262  0.00  0.00    +0.000 OA
ATOM     29  N   UNL     1       1.385   9.750  19.423  0.00  0.00    +0.000 N 
ATOM     30  N   UNL     1       1.033   9.232  20.690  0.00  0.00    +0.000 NA
ATOM     31  C   UNL     1       1.267   7.979  20.962  0.00  0.00    +0.000 A 
ATOM     32  C   UNL     1       1.866   7.110  19.992  0.00  0.00    +0.000 A 
ATOM     33  C   UNL     1       2.229   5.738  20.008  0.00  0.00    +0.000 A 
ATOM     34  C   UNL     1       2.161   4.704  20.964  0.00  0.00    +0.000 A 
ATOM     35  H   UNL     1       3.037   6.719  17.050  0.00  0.00    +0.000 HD
ENDBRANCH  19  29
ENDBRANCH   1  19
TORSDOF 4
ENDMDL
MODEL 7
REMARK VINA RESULT:      -8.9      4.277     10.711
REMARK  Name = 
REMARK  5 active torsions:
REMARK  status: ('A' for Active; 'I' for Inactive)
REMARK    1  A    between atoms: C_1  and  C_2
REMARK    2  A    between atoms: N_10  and  C_11
REMARK    3  A    between atoms: C_11  and  C_12
REMARK    4  A    between atoms: N_17  and  C_18
REMARK    5  A    between atoms: C_22  and  C_23
REMARK                            x       y       z     vdW  Elec       q    Type
REMARK                         _______ _______ _______ _____ _____    ______ ____
ROOT
ATOM      1  C   UNL     1       0.809  12.366  20.434  0.00  0.00    +0.000 C 
ATOM      2  O   UNL     1       1.924  12.756  20.789  0.00  0.00    +0.000 OA
ATOM      3  N   UNL     1      -0.346  12.838  21.041  0.00  0.00    +0.000 N 
ATOM      4  C   UNL     1      -0.268  13.942  22.008  0.00  0.00    +0.000 C 
ATOM      5  C   UNL     1      -1.390  14.977  21.768  0.00  0.00    +0.000 C 
ATOM      6  N   UNL     1      -2.695  14.291  21.716  0.00  0.00    +0.000 N 
ATOM      7  C   UNL     1      -2.788  13.194  20.745  0.00  0.00    +0.000 C 
ATOM      8  C   UNL     1      -1.661  12.180  20.988  0.00  0.00    +0.000 C 
ENDROOT
BRANCH   6   9
ATOM      9  C   UNL     1      -3.791  14.747  22.416  0.00  0.00    +0.000 A 
ATOM     10  C   UNL     1      -3.856  16.055  22.907  0.00  0.00    +0.000 A 
ATOM     11  C   UNL     1      -4.937  16.503  23.671  0.00  0.00    +0.000 A 
ATOM     12  C   UNL     1      -5.974  15.631  23.980  0.00  0.00    +0.000 A 
ATOM     13  C   UNL     1      -5.949  14.314  23.517  0.00  0.00    +0.000 A 
ATOM     14  C   UNL     1      -4.869  13.897  22.714  0.00  0.00    +0.000 A 
BRANCH  13  15
ATOM     15  C   UNL     1      -7.024  13.333  23.906  0.00  0.00    +0.000 C 
ATOM     16  F   UNL     1      -7.916  13.837  24.805  0.00  0.00    +0.000 F 
ATOM     17  F   UNL     1      -7.763  12.907  22.846  0.00  0.00    +0.000 F 
ATOM     18  F   UNL     1      -6.518  12.207  24.484  0.00  0.00    +0.000 F 
ENDBRANCH  13  15
ENDBRANCH   6   9
BRANCH   1  19
ATOM     19  C   UNL     1       0.662  11.391  19.260  0.00  0.00    +0.000 C 
BRANCH  19  29
ATOM     20  C   UNL     1       2.514   2.607  21.638  0.00  0.00    +0.000 C 
ATOM     21  C   UNL     1       2.577   3.727  20.639  0.00  0.00    +0.000 A 
ATOM     22  C   UNL     1       3.164   3.534  19.384  0.00  0.00    +0.000 A 
ATOM     23  C   UNL     1       3.234   4.569  18.444  0.00  0.00    +0.000 A 
ATOM     24  C   UNL     1       2.701   5.813  18.803  0.00  0.00    +0.000 A 
ATOM     25  N   UNL     1       2.641   6.994  18.090  0.00  0.00    +0.000 N 
ATOM     26  C   UNL     1       2.037   7.956  18.848  0.00  0.00    +0.000 A 
ATOM     27  C   UNL     1       1.766   9.319  18.495  0.00  0.00    +0.000 A 
ATOM     28  O   UNL     1       2.035   9.776  17.393  0.00  0.00    +0.000 OA
ATOM     29  N   UNL     1       1.119  10.032  19.527  0.00  0.00    +0.000 N 
ATOM     30  N   UNL     1       0.739   9.467  20.764  0.00  0.00    +0.000 NA
ATOM     31  C   UNL     1       1.013   8.218  21.016  0.00  0.00    +0.000 A 
ATOM     32  C   UNL     1       1.687   7.399  20.051  0.00  0.00    +0.000 A 
ATOM     33  C   UNL     1       2.106   6.044  20.048  0.00  0.00    +0.000 A 
ATOM     34  C   UNL     1       2.043   4.983  20.975  0.00  0.00    +0.000 A 
ATOM     35  H   UNL     1       2.991   7.134  17.150  0.00  0.00    +0.000 HD
ENDBRANCH  19  29
ENDBRANCH   1  19
TORSDOF 4
ENDMDL
MODEL 8
REMARK VINA RESULT:      -8.8      1.605      2.461
REMARK  Name = 
REMARK  5 active torsions:
REMARK  status: ('A' for Active; 'I' for Inactive)
REMARK    1  A    between atoms: C_1  and  C_2
REMARK    2  A    between atoms: N_10  and  C_11
REMARK    3  A    between atoms: C_11  and  C_12
REMARK    4  A    between atoms: N_17  and  C_18
REMARK    5  A    between atoms: C_22  and  C_23
REMARK                            x       y       z     vdW  Elec       q    Type
REMARK                         _______ _______ _______ _____ _____    ______ ____
ROOT
ATOM      1  C   UNL     1       1.014  11.226  19.417  0.00  0.00    +0.000 C 
ATOM      2  O   UNL     1       1.118  11.801  18.331  0.00  0.00    +0.000 OA
ATOM      3  N   UNL     1       1.108   9.845  19.513  0.00  0.00    +0.000 N 
ATOM      4  C   UNL     1       1.502   9.053  18.339  0.00  0.00    +0.000 C 
ATOM      5  C   UNL     1       2.527   7.962  18.719  0.00  0.00    +0.000 C 
ATOM      6  N   UNL     1       2.015   7.173  19.854  0.00  0.00    +0.000 N 
ATOM      7  C   UNL     1       1.630   7.953  21.037  0.00  0.00    +0.000 C 
ATOM      8  C   UNL     1       0.620   9.039  20.643  0.00  0.00    +0.000 C 
ENDROOT
BRANCH   6   9
ATOM      9  C   UNL     1       2.043   5.795  19.861  0.00  0.00    +0.000 A 
ATOM     10  C   UNL     1       1.709   5.060  21.004  0.00  0.00    +0.000 A 
ATOM     11  C   UNL     1       1.796   3.665  21.036  0.00  0.00    +0.000 A 
ATOM     12  C   UNL     1       2.246   2.975  19.917  0.00  0.00    +0.000 A 
ATOM     13  C   UNL     1       2.597   3.668  18.755  0.00  0.00    +0.000 A 
ATOM     14  C   UNL     1       2.461   5.069  18.734  0.00  0.00    +0.000 A 
BRANCH  13  15
ATOM     15  C   UNL     1       3.160   2.944  17.561  0.00  0.00    +0.000 C 
ATOM     16  F   UNL     1       4.475   3.220  17.329  0.00  0.00    +0.000 F 
ATOM     17  F   UNL     1       3.078   1.589  17.673  0.00  0.00    +0.000 F 
ATOM     18  F   UNL     1       2.510   3.261  16.405  0.00  0.00    +0.000 F 
ENDBRANCH  13  15
ENDBRANCH   6   9
BRANCH   1  19
ATOM     19  C   UNL     1       0.843  12.031  20.710  0.00  0.00    +0.000 C 
BRANCH  19  29
ATOM     20  C   UNL     1      -7.588  13.529  24.305  0.00  0.00    +0.000 C 
ATOM     21  C   UNL     1      -6.528  13.852  23.290  0.00  0.00    +0.000 A 
ATOM     22  C   UNL     1      -6.732  14.855  22.337  0.00  0.00    +0.000 A 
ATOM     23  C   UNL     1      -5.756  15.164  21.383  0.00  0.00    +0.000 A 
ATOM     24  C   UNL     1      -4.563  14.431  21.408  0.00  0.00    +0.000 A 
ATOM     25  N   UNL     1      -3.451  14.515  20.595  0.00  0.00    +0.000 N 
ATOM     26  C   UNL     1      -2.527  13.589  20.987  0.00  0.00    +0.000 A 
ATOM     27  C   UNL     1      -1.231  13.339  20.425  0.00  0.00    +0.000 A 
ATOM     28  O   UNL     1      -0.781  13.998  19.498  0.00  0.00    +0.000 OA
ATOM     29  N   UNL     1      -0.538  12.304  21.088  0.00  0.00    +0.000 N 
ATOM     30  N   UNL     1      -1.037  11.608  22.212  0.00  0.00    +0.000 NA
ATOM     31  C   UNL     1      -2.222  11.891  22.673  0.00  0.00    +0.000 A 
ATOM     32  C   UNL     1      -3.029  12.910  22.067  0.00  0.00    +0.000 A 
ATOM     33  C   UNL     1      -4.323  13.421  22.346  0.00  0.00    +0.000 A 
ATOM     34  C   UNL     1      -5.320  13.132  23.300  0.00  0.00    +0.000 A 
ATOM     35  H   UNL     1      -3.331  15.160  19.824  0.00  0.00    +0.000 HD
ENDBRANCH  19  29
ENDBRANCH   1  19
TORSDOF 4
ENDMDL
MODEL 9
REMARK VINA RESULT:      -8.8      1.510      2.177
REMARK  Name = 
REMARK  5 active torsions:
REMARK  status: ('A' for Active; 'I' for Inactive)
REMARK    1  A    between atoms: C_1  and  C_2
REMARK    2  A    between atoms: N_10  and  C_11
REMARK    3  A    between atoms: C_11  and  C_12
REMARK    4  A    between atoms: N_17  and  C_18
REMARK    5  A    between atoms: C_22  and  C_23
REMARK                            x       y       z     vdW  Elec       q    Type
REMARK                         _______ _______ _______ _____ _____    ______ ____
ROOT
ATOM      1  C   UNL     1       1.165  11.550  19.117  0.00  0.00    +0.000 C 
ATOM      2  O   UNL     1       1.257  12.212  18.080  0.00  0.00    +0.000 OA
ATOM      3  N   UNL     1       1.266  10.166  19.099  0.00  0.00    +0.000 N 
ATOM      4  C   UNL     1       1.654   9.475  17.862  0.00  0.00    +0.000 C 
ATOM      5  C   UNL     1       2.688   8.362  18.143  0.00  0.00    +0.000 C 
ATOM      6  N   UNL     1       2.190   7.480  19.214  0.00  0.00    +0.000 N 
ATOM      7  C   UNL     1       1.811   8.159  20.459  0.00  0.00    +0.000 C 
ATOM      8  C   UNL     1       0.791   9.268  20.164  0.00  0.00    +0.000 C 
ENDROOT
BRANCH   6   9
ATOM      9  C   UNL     1       2.224   6.106  19.109  0.00  0.00    +0.000 A 
ATOM     10  C   UNL     1       2.186   5.464  17.866  0.00  0.00    +0.000 A 
ATOM     11  C   UNL     1       2.157   4.072  17.755  0.00  0.00    +0.000 A 
ATOM     12  C   UNL     1       2.141   3.287  18.902  0.00  0.00    +0.000 A 
ATOM     13  C   UNL     1       2.170   3.885  20.165  0.00  0.00    +0.000 A 
ATOM     14  C   UNL     1       2.242   5.289  20.250  0.00  0.00    +0.000 A 
BRANCH  13  15
ATOM     15  C   UNL     1       2.075   3.054  21.418  0.00  0.00    +0.000 C 
ATOM     16  F   UNL     1       0.834   2.530  21.628  0.00  0.00    +0.000 F 
ATOM     17  F   UNL     1       2.932   1.996  21.421  0.00  0.00    +0.000 F 
ATOM     18  F   UNL     1       2.365   3.771  22.541  0.00  0.00    +0.000 F 
ENDBRANCH  13  15
ENDBRANCH   6   9
BRANCH   1  19
ATOM     19  C   UNL     1       1.001  12.245  20.473  0.00  0.00    +0.000 C 
BRANCH  19  29
ATOM     20  C   UNL     1      -7.400  13.397  24.262  0.00  0.00    +0.000 C 
ATOM     21  C   UNL     1      -6.358  13.798  23.256  0.00  0.00    +0.000 A 
ATOM     22  C   UNL     1      -6.588  14.856  22.371  0.00  0.00    +0.000 A 
ATOM     23  C   UNL     1      -5.629  15.238  21.425  0.00  0.00    +0.000 A 
ATOM     24  C   UNL     1      -4.427  14.522  21.389  0.00  0.00    +0.000 A 
ATOM     25  N   UNL     1      -3.327  14.671  20.569  0.00  0.00    +0.000 N 
ATOM     26  C   UNL     1      -2.385  13.736  20.890  0.00  0.00    +0.000 A 
ATOM     27  C   UNL     1      -1.095  13.540  20.297  0.00  0.00    +0.000 A 
ATOM     28  O   UNL     1      -0.666  14.262  19.407  0.00  0.00    +0.000 OA
ATOM     29  N   UNL     1      -0.379  12.475  20.885  0.00  0.00    +0.000 N 
ATOM     30  N   UNL     1      -0.854  11.703  21.969  0.00  0.00    +0.000 NA
ATOM     31  C   UNL     1      -2.036  11.941  22.463  0.00  0.00    +0.000 A 
ATOM     32  C   UNL     1      -2.864  12.984  21.932  0.00  0.00    +0.000 A 
ATOM     33  C   UNL     1      -4.161  13.458  22.259  0.00  0.00    +0.000 A 
ATOM     34  C   UNL     1      -5.141  13.097  23.205  0.00  0.00    +0.000 A 
ATOM     35  H   UNL     1      -3.226  15.365  19.838  0.00  0.00    +0.000 HD
ENDBRANCH  19  29
ENDBRANCH   1  19
TORSDOF 4
ENDMDL
