MODEL 1
REMARK VINA RESULT:      -8.2      0.000      0.000
REMARK  Name = 
REMARK  8 active torsions:
REMARK  status: ('A' for Active; 'I' for Inactive)
REMARK    1  A    between atoms: C_1  and  C_2
REMARK    2  A    between atoms: C_2  and  C_3
REMARK    3  A    between atoms: C_4  and  O_5
REMARK    4  A    between atoms: C_9  and  C_10
REMARK    5  A    between atoms: C_27  and  C_28
REMARK    6  A    between atoms: C_27  and  C_30
REMARK    7  A    between atoms: C_28  and  C_29
REMARK    8  A    between atoms: C_30  and  C_31
REMARK                            x       y       z     vdW  Elec       q    Type
REMARK                         _______ _______ _______ _____ _____    ______ ____
ROOT
ATOM      1  C   UNL     1      -1.621  12.003  20.649  0.00  0.00    +0.000 C 
ATOM      2  C   UNL     1      -0.912  11.338  21.546  0.00  0.00    +0.000 C 
ATOM      3  C   UNL     1       0.022  10.332  21.061  0.00  0.00    +0.000 A 
ATOM      4  C   UNL     1       0.538  10.372  19.788  0.00  0.00    +0.000 A 
ATOM      5  O   UNL     1       1.409   9.363  19.351  0.00  0.00    +0.000 OA
ATOM      6  C   UNL     1       1.738   8.256  20.156  0.00  0.00    +0.000 A 
ATOM      7  C   UNL     1       1.179   8.093  21.351  0.00  0.00    +0.000 A 
ATOM      8  C   UNL     1       0.260   9.093  21.886  0.00  0.00    +0.000 A 
ATOM      9  O   UNL     1      -0.287   8.841  22.951  0.00  0.00    +0.000 OA
ATOM     10  C   UNL     1       0.219  11.617  18.817  0.00  0.00    +0.000 C 
ATOM     11  C   UNL     1      -0.728  12.565  19.614  0.00  0.00    +0.000 C 
ATOM     12  O   UNL     1      -0.811  13.770  19.407  0.00  0.00    +0.000 OA
ENDROOT
BRANCH   6  13
ATOM     13  C   UNL     1       2.574   7.157  19.553  0.00  0.00    +0.000 A 
ATOM     14  C   UNL     1       3.245   7.444  18.370  0.00  0.00    +0.000 A 
ATOM     15  C   UNL     1       3.642   6.394  17.551  0.00  0.00    +0.000 A 
ATOM     16  C   UNL     1       4.627   6.609  16.590  0.00  0.00    +0.000 A 
ATOM     17  C   UNL     1       5.190   5.521  15.925  0.00  0.00    +0.000 A 
ATOM     18  C   UNL     1       4.716   4.234  16.176  0.00  0.00    +0.000 A 
ATOM     19  C   UNL     1       3.620   4.038  17.031  0.00  0.00    +0.000 A 
ATOM     20  C   UNL     1       3.057   5.124  17.744  0.00  0.00    +0.000 A 
ATOM     21  C   UNL     1       2.101   4.971  18.806  0.00  0.00    +0.000 A 
ATOM     22  C   UNL     1       1.016   4.064  19.021  0.00  0.00    +0.000 A 
ATOM     23  C   UNL     1       0.741   3.592  20.305  0.00  0.00    +0.000 A 
ATOM     24  C   UNL     1       1.687   3.863  21.273  0.00  0.00    +0.000 A 
ATOM     25  C   UNL     1       2.505   4.978  21.068  0.00  0.00    +0.000 A 
ATOM     26  C   UNL     1       2.362   5.762  19.875  0.00  0.00    +0.000 A 
ENDBRANCH   6  13
BRANCH   1  28
ATOM     27  C   UNL     1      -3.996  12.322  19.624  0.00  0.00    +0.000 C 
ATOM     28  C   UNL     1      -2.953  11.394  20.222  0.00  0.00    +0.000 C 
ENDBRANCH   1  28
BRANCH   2  29
ATOM     29  O   UNL     1      -1.439  11.120  22.798  0.00  0.00    +0.000 OA
ATOM     30  H   UNL     1      -2.408  11.105  22.732  0.00  0.00    +0.000 HD
ENDBRANCH   2  29
BRANCH  10  31
ATOM     31  C   UNL     1       1.490  12.471  18.531  0.00  0.00    +0.000 C 
ATOM     32  C   UNL     1       2.257  13.018  19.724  0.00  0.00    +0.000 C 
ENDBRANCH  10  31
BRANCH  10  33
ATOM     33  C   UNL     1      -0.673  11.486  17.532  0.00  0.00    +0.000 C 
ATOM     34  C   UNL     1      -1.506  10.257  17.249  0.00  0.00    +0.000 C 
ENDBRANCH  10  33
TORSDOF 5
ENDMDL
MODEL 2
REMARK VINA RESULT:      -8.2      1.505      2.884
REMARK  Name = 
REMARK  8 active torsions:
REMARK  status: ('A' for Active; 'I' for Inactive)
REMARK    1  A    between atoms: C_1  and  C_2
REMARK    2  A    between atoms: C_2  and  C_3
REMARK    3  A    between atoms: C_4  and  O_5
REMARK    4  A    between atoms: C_9  and  C_10
REMARK    5  A    between atoms: C_27  and  C_28
REMARK    6  A    between atoms: C_27  and  C_30
REMARK    7  A    between atoms: C_28  and  C_29
REMARK    8  A    between atoms: C_30  and  C_31
REMARK                            x       y       z     vdW  Elec       q    Type
REMARK                         _______ _______ _______ _____ _____    ______ ____
ROOT
ATOM      1  C   UNL     1      -1.227  12.845  19.415  0.00  0.00    +0.000 C 
ATOM      2  C   UNL     1      -1.586  11.706  18.848  0.00  0.00    +0.000 C 
ATOM      3  C   UNL     1      -0.614  10.621  18.832  0.00  0.00    +0.000 A 
ATOM      4  C   UNL     1       0.409  10.549  19.745  0.00  0.00    +0.000 A 
ATOM      5  O   UNL     1       1.345   9.505  19.671  0.00  0.00    +0.000 OA
ATOM      6  C   UNL     1       1.312   8.542  18.646  0.00  0.00    +0.000 A 
ATOM      7  C   UNL     1       0.423   8.624  17.662  0.00  0.00    +0.000 A 
ATOM      8  C   UNL     1      -0.586   9.678  17.656  0.00  0.00    +0.000 A 
ATOM      9  O   UNL     1      -1.319   9.750  16.678  0.00  0.00    +0.000 OA
ATOM     10  C   UNL     1       0.499  11.606  20.956  0.00  0.00    +0.000 C 
ATOM     11  C   UNL     1      -0.696  12.590  20.771  0.00  0.00    +0.000 C 
ATOM     12  O   UNL     1      -1.213  13.211  21.693  0.00  0.00    +0.000 OA
ENDROOT
BRANCH   6  13
ATOM     13  C   UNL     1       2.435   7.538  18.573  0.00  0.00    +0.000 A 
ATOM     14  C   UNL     1       3.394   7.725  17.586  0.00  0.00    +0.000 A 
ATOM     15  C   UNL     1       4.163   6.641  17.181  0.00  0.00    +0.000 A 
ATOM     16  C   UNL     1       5.359   6.864  16.503  0.00  0.00    +0.000 A 
ATOM     17  C   UNL     1       6.241   5.804  16.296  0.00  0.00    +0.000 A 
ATOM     18  C   UNL     1       5.891   4.519  16.709  0.00  0.00    +0.000 A 
ATOM     19  C   UNL     1       4.621   4.273  17.254  0.00  0.00    +0.000 A 
ATOM     20  C   UNL     1       3.723   5.339  17.506  0.00  0.00    +0.000 A 
ATOM     21  C   UNL     1       2.516   5.201  18.272  0.00  0.00    +0.000 A 
ATOM     22  C   UNL     1       1.550   4.153  18.393  0.00  0.00    +0.000 A 
ATOM     23  C   UNL     1       0.956   3.886  19.627  0.00  0.00    +0.000 A 
ATOM     24  C   UNL     1       1.511   4.518  20.722  0.00  0.00    +0.000 A 
ATOM     25  C   UNL     1       2.194   5.714  20.488  0.00  0.00    +0.000 A 
ATOM     26  C   UNL     1       2.323   6.215  19.150  0.00  0.00    +0.000 A 
ENDBRANCH   6  13
BRANCH   1  28
ATOM     27  C   UNL     1      -0.398  15.291  19.065  0.00  0.00    +0.000 C 
ATOM     28  C   UNL     1      -0.530  13.876  18.532  0.00  0.00    +0.000 C 
ENDBRANCH   1  28
BRANCH   2  29
ATOM     29  O   UNL     1      -2.491  11.721  17.812  0.00  0.00    +0.000 OA
ATOM     30  H   UNL     1      -2.005  11.752  16.971  0.00  0.00    +0.000 HD
ENDBRANCH   2  29
BRANCH  10  31
ATOM     31  C   UNL     1       0.248  10.931  22.338  0.00  0.00    +0.000 C 
ATOM     32  C   UNL     1      -0.516   9.616  22.353  0.00  0.00    +0.000 C 
ENDBRANCH  10  31
BRANCH  10  33
ATOM     33  C   UNL     1       1.630  12.691  21.057  0.00  0.00    +0.000 C 
ATOM     34  C   UNL     1       2.479  13.084  19.870  0.00  0.00    +0.000 C 
ENDBRANCH  10  33
TORSDOF 5
ENDMDL
MODEL 3
REMARK VINA RESULT:      -7.6      1.340      2.901
REMARK  Name = 
REMARK  8 active torsions:
REMARK  status: ('A' for Active; 'I' for Inactive)
REMARK    1  A    between atoms: C_1  and  C_2
REMARK    2  A    between atoms: C_2  and  C_3
REMARK    3  A    between atoms: C_4  and  O_5
REMARK    4  A    between atoms: C_9  and  C_10
REMARK    5  A    between atoms: C_27  and  C_28
REMARK    6  A    between atoms: C_27  and  C_30
REMARK    7  A    between atoms: C_28  and  C_29
REMARK    8  A    between atoms: C_30  and  C_31
REMARK                            x       y       z     vdW  Elec       q    Type
REMARK                         _______ _______ _______ _____ _____    ______ ____
ROOT
ATOM      1  C   UNL     1      -1.103  12.684  20.977  0.00  0.00    +0.000 C 
ATOM      2  C   UNL     1      -0.256  12.068  21.783  0.00  0.00    +0.000 C 
ATOM      3  C   UNL     1       0.287  10.789  21.346  0.00  0.00    +0.000 A 
ATOM      4  C   UNL     1       0.350  10.442  20.019  0.00  0.00    +0.000 A 
ATOM      5  O   UNL     1       0.849   9.185  19.644  0.00  0.00    +0.000 OA
ATOM      6  C   UNL     1       1.241   8.222  20.593  0.00  0.00    +0.000 A 
ATOM      7  C   UNL     1       1.091   8.446  21.893  0.00  0.00    +0.000 A 
ATOM      8  C   UNL     1       0.578   9.725  22.374  0.00  0.00    +0.000 A 
ATOM      9  O   UNL     1       0.382   9.837  23.577  0.00  0.00    +0.000 OA
ATOM     10  C   UNL     1      -0.064  11.500  18.877  0.00  0.00    +0.000 C 
ATOM     11  C   UNL     1      -0.524  12.790  19.620  0.00  0.00    +0.000 C 
ATOM     12  O   UNL     1      -0.473  13.912  19.128  0.00  0.00    +0.000 OA
ENDROOT
BRANCH   6  13
ATOM     13  C   UNL     1       1.638   6.854  20.099  0.00  0.00    +0.000 A 
ATOM     14  C   UNL     1       1.457   5.785  20.968  0.00  0.00    +0.000 A 
ATOM     15  C   UNL     1       2.192   4.623  20.767  0.00  0.00    +0.000 A 
ATOM     16  C   UNL     1       1.767   3.434  21.355  0.00  0.00    +0.000 A 
ATOM     17  C   UNL     1       2.361   2.229  20.979  0.00  0.00    +0.000 A 
ATOM     18  C   UNL     1       3.417   2.231  20.070  0.00  0.00    +0.000 A 
ATOM     19  C   UNL     1       3.942   3.445  19.597  0.00  0.00    +0.000 A 
ATOM     20  C   UNL     1       3.333   4.677  19.938  0.00  0.00    +0.000 A 
ATOM     21  C   UNL     1       3.659   5.928  19.311  0.00  0.00    +0.000 A 
ATOM     22  C   UNL     1       4.882   6.488  18.826  0.00  0.00    +0.000 A 
ATOM     23  C   UNL     1       4.886   7.265  17.666  0.00  0.00    +0.000 A 
ATOM     24  C   UNL     1       3.723   7.261  16.924  0.00  0.00    +0.000 A 
ATOM     25  C   UNL     1       2.535   6.976  17.603  0.00  0.00    +0.000 A 
ATOM     26  C   UNL     1       2.567   6.670  19.004  0.00  0.00    +0.000 A 
ENDBRANCH   6  13
BRANCH   1  28
ATOM     27  C   UNL     1      -3.595  13.303  20.529  0.00  0.00    +0.000 C 
ATOM     28  C   UNL     1      -2.582  12.340  21.122  0.00  0.00    +0.000 C 
ENDBRANCH   1  28
BRANCH   2  29
ATOM     29  O   UNL     1      -0.366  12.244  23.143  0.00  0.00    +0.000 OA
ATOM     30  H   UNL     1      -0.667  11.412  23.544  0.00  0.00    +0.000 HD
ENDBRANCH   2  29
BRANCH  10  31
ATOM     31  C   UNL     1       1.162  11.946  18.025  0.00  0.00    +0.000 C 
ATOM     32  C   UNL     1       2.373  12.493  18.764  0.00  0.00    +0.000 C 
ENDBRANCH  10  31
BRANCH  10  33
ATOM     33  C   UNL     1      -1.340  11.326  17.980  0.00  0.00    +0.000 C 
ATOM     34  C   UNL     1      -1.751   9.988  17.411  0.00  0.00    +0.000 C 
ENDBRANCH  10  33
TORSDOF 5
ENDMDL
MODEL 4
REMARK VINA RESULT:      -7.3      5.446      8.550
REMARK  Name = 
REMARK  8 active torsions:
REMARK  status: ('A' for Active; 'I' for Inactive)
REMARK    1  A    between atoms: C_1  and  C_2
REMARK    2  A    between atoms: C_2  and  C_3
REMARK    3  A    between atoms: C_4  and  O_5
REMARK    4  A    between atoms: C_9  and  C_10
REMARK    5  A    between atoms: C_27  and  C_28
REMARK    6  A    between atoms: C_27  and  C_30
REMARK    7  A    between atoms: C_28  and  C_29
REMARK    8  A    between atoms: C_30  and  C_31
REMARK                            x       y       z     vdW  Elec       q    Type
REMARK                         _______ _______ _______ _____ _____    ______ ____
ROOT
ATOM      1  C   UNL     1       3.087  15.688  18.778  0.00  0.00    +0.000 C 
ATOM      2  C   UNL     1       2.753  14.545  18.202  0.00  0.00    +0.000 C 
ATOM      3  C   UNL     1       1.435  13.998  18.495  0.00  0.00    +0.000 A 
ATOM      4  C   UNL     1       0.397  14.791  18.917  0.00  0.00    +0.000 A 
ATOM      5  O   UNL     1      -0.847  14.217  19.222  0.00  0.00    +0.000 OA
ATOM      6  C   UNL     1      -1.064  12.827  19.168  0.00  0.00    +0.000 A 
ATOM      7  C   UNL     1      -0.069  11.993  18.887  0.00  0.00    +0.000 A 
ATOM      8  C   UNL     1       1.259  12.502  18.559  0.00  0.00    +0.000 A 
ATOM      9  O   UNL     1       2.152  11.680  18.394  0.00  0.00    +0.000 OA
ATOM     10  C   UNL     1       0.566  16.391  18.984  0.00  0.00    +0.000 C 
ATOM     11  C   UNL     1       2.031  16.697  18.548  0.00  0.00    +0.000 C 
ATOM     12  O   UNL     1       2.383  17.760  18.050  0.00  0.00    +0.000 OA
ENDROOT
BRANCH   6  13
ATOM     13  C   UNL     1      -2.392  12.293  19.640  0.00  0.00    +0.000 A 
ATOM     14  C   UNL     1      -3.270  11.822  18.672  0.00  0.00    +0.000 A 
ATOM     15  C   UNL     1      -4.625  11.747  18.971  0.00  0.00    +0.000 A 
ATOM     16  C   UNL     1      -5.454  10.940  18.197  0.00  0.00    +0.000 A 
ATOM     17  C   UNL     1      -6.757  10.682  18.622  0.00  0.00    +0.000 A 
ATOM     18  C   UNL     1      -7.240  11.287  19.782  0.00  0.00    +0.000 A 
ATOM     19  C   UNL     1      -6.452  12.219  20.475  0.00  0.00    +0.000 A 
ATOM     20  C   UNL     1      -5.115  12.469  20.081  0.00  0.00    +0.000 A 
ATOM     21  C   UNL     1      -4.178  13.220  20.871  0.00  0.00    +0.000 A 
ATOM     22  C   UNL     1      -4.309  14.369  21.713  0.00  0.00    +0.000 A 
ATOM     23  C   UNL     1      -3.563  14.465  22.888  0.00  0.00    +0.000 A 
ATOM     24  C   UNL     1      -2.896  13.323  23.285  0.00  0.00    +0.000 A 
ATOM     25  C   UNL     1      -2.566  12.402  22.288  0.00  0.00    +0.000 A 
ATOM     26  C   UNL     1      -2.951  12.647  20.928  0.00  0.00    +0.000 A 
ENDBRANCH   6  13
BRANCH   1  28
ATOM     27  C   UNL     1       4.693  16.731  20.546  0.00  0.00    +0.000 C 
ATOM     28  C   UNL     1       3.747  15.611  20.151  0.00  0.00    +0.000 C 
ENDBRANCH   1  28
BRANCH   2  29
ATOM     29  O   UNL     1       3.733  13.629  17.898  0.00  0.00    +0.000 OA
ATOM     30  H   UNL     1       4.568  14.103  17.747  0.00  0.00    +0.000 HD
ENDBRANCH   2  29
BRANCH  10  31
ATOM     31  C   UNL     1      -0.323  17.116  17.930  0.00  0.00    +0.000 C 
ATOM     32  C   UNL     1      -1.283  18.183  18.431  0.00  0.00    +0.000 C 
ENDBRANCH  10  31
BRANCH  10  33
ATOM     33  C   UNL     1       0.597  17.187  20.338  0.00  0.00    +0.000 C 
ATOM     34  C   UNL     1       0.262  16.541  21.662  0.00  0.00    +0.000 C 
ENDBRANCH  10  33
TORSDOF 5
ENDMDL
MODEL 5
REMARK VINA RESULT:      -6.9      4.396      7.261
REMARK  Name = 
REMARK  8 active torsions:
REMARK  status: ('A' for Active; 'I' for Inactive)
REMARK    1  A    between atoms: C_1  and  C_2
REMARK    2  A    between atoms: C_2  and  C_3
REMARK    3  A    between atoms: C_4  and  O_5
REMARK    4  A    between atoms: C_9  and  C_10
REMARK    5  A    between atoms: C_27  and  C_28
REMARK    6  A    between atoms: C_27  and  C_30
REMARK    7  A    between atoms: C_28  and  C_29
REMARK    8  A    between atoms: C_30  and  C_31
REMARK                            x       y       z     vdW  Elec       q    Type
REMARK                         _______ _______ _______ _____ _____    ______ ____
ROOT
ATOM      1  C   UNL     1      -3.179  16.163  25.049  0.00  0.00    +0.000 C 
ATOM      2  C   UNL     1      -2.951  14.862  24.977  0.00  0.00    +0.000 C 
ATOM      3  C   UNL     1      -2.702  14.289  23.662  0.00  0.00    +0.000 A 
ATOM      4  C   UNL     1      -2.232  15.046  22.617  0.00  0.00    +0.000 A 
ATOM      5  O   UNL     1      -2.038  14.461  21.356  0.00  0.00    +0.000 OA
ATOM      6  C   UNL     1      -2.368  13.117  21.097  0.00  0.00    +0.000 A 
ATOM      7  C   UNL     1      -2.940  12.363  22.029  0.00  0.00    +0.000 A 
ATOM      8  C   UNL     1      -3.181  12.890  23.368  0.00  0.00    +0.000 A 
ATOM      9  O   UNL     1      -3.790  12.175  24.153  0.00  0.00    +0.000 OA
ATOM     10  C   UNL     1      -1.817  16.585  22.845  0.00  0.00    +0.000 C 
ATOM     11  C   UNL     1      -2.112  16.903  24.343  0.00  0.00    +0.000 C 
ATOM     12  O   UNL     1      -1.529  17.773  24.979  0.00  0.00    +0.000 OA
ENDROOT
BRANCH   6  13
ATOM     13  C   UNL     1      -2.250  12.614  19.680  0.00  0.00    +0.000 A 
ATOM     14  C   UNL     1      -3.421  12.222  19.044  0.00  0.00    +0.000 A 
ATOM     15  C   UNL     1      -3.339  11.358  17.958  0.00  0.00    +0.000 A 
ATOM     16  C   UNL     1      -4.416  11.258  17.080  0.00  0.00    +0.000 A 
ATOM     17  C   UNL     1      -4.259  10.574  15.875  0.00  0.00    +0.000 A 
ATOM     18  C   UNL     1      -3.051   9.939  15.589  0.00  0.00    +0.000 A 
ATOM     19  C   UNL     1      -2.022   9.914  16.544  0.00  0.00    +0.000 A 
ATOM     20  C   UNL     1      -2.146  10.631  17.759  0.00  0.00    +0.000 A 
ATOM     21  C   UNL     1      -1.057  10.848  18.671  0.00  0.00    +0.000 A 
ATOM     22  C   UNL     1       0.052  10.042  19.078  0.00  0.00    +0.000 A 
ATOM     23  C   UNL     1       1.295  10.629  19.318  0.00  0.00    +0.000 A 
ATOM     24  C   UNL     1       1.435  11.945  18.926  0.00  0.00    +0.000 A 
ATOM     25  C   UNL     1       0.271  12.714  18.851  0.00  0.00    +0.000 A 
ATOM     26  C   UNL     1      -1.002  12.118  19.141  0.00  0.00    +0.000 A 
ENDBRANCH   6  13
BRANCH   1  28
ATOM     27  C   UNL     1      -4.967  18.036  25.350  0.00  0.00    +0.000 C 
ATOM     28  C   UNL     1      -4.624  16.628  24.896  0.00  0.00    +0.000 C 
ENDBRANCH   1  28
BRANCH   2  29
ATOM     29  O   UNL     1      -3.527  14.023  25.903  0.00  0.00    +0.000 OA
ATOM     30  H   UNL     1      -4.350  14.428  26.225  0.00  0.00    +0.000 HD
ENDBRANCH   2  29
BRANCH  10  31
ATOM     31  C   UNL     1      -0.283  16.804  22.686  0.00  0.00    +0.000 C 
ATOM     32  C   UNL     1       0.598  15.570  22.568  0.00  0.00    +0.000 C 
ENDBRANCH  10  31
BRANCH  10  33
ATOM     33  C   UNL     1      -2.624  17.784  22.230  0.00  0.00    +0.000 C 
ATOM     34  C   UNL     1      -2.312  18.350  20.864  0.00  0.00    +0.000 C 
ENDBRANCH  10  33
TORSDOF 5
ENDMDL
MODEL 6
REMARK VINA RESULT:      -6.7      3.681      7.138
REMARK  Name = 
REMARK  8 active torsions:
REMARK  status: ('A' for Active; 'I' for Inactive)
REMARK    1  A    between atoms: C_1  and  C_2
REMARK    2  A    between atoms: C_2  and  C_3
REMARK    3  A    between atoms: C_4  and  O_5
REMARK    4  A    between atoms: C_9  and  C_10
REMARK    5  A    between atoms: C_27  and  C_28
REMARK    6  A    between atoms: C_27  and  C_30
REMARK    7  A    between atoms: C_28  and  C_29
REMARK    8  A    between atoms: C_30  and  C_31
REMARK                            x       y       z     vdW  Elec       q    Type
REMARK                         _______ _______ _______ _____ _____    ______ ____
ROOT
ATOM      1  C   UNL     1      -7.338  12.647  19.505  0.00  0.00    +0.000 C 
ATOM      2  C   UNL     1      -6.545  11.715  19.002  0.00  0.00    +0.000 C 
ATOM      3  C   UNL     1      -5.109  11.880  19.176  0.00  0.00    +0.000 A 
ATOM      4  C   UNL     1      -4.583  12.640  20.192  0.00  0.00    +0.000 A 
ATOM      5  O   UNL     1      -3.193  12.801  20.303  0.00  0.00    +0.000 OA
ATOM      6  C   UNL     1      -2.299  12.254  19.363  0.00  0.00    +0.000 A 
ATOM      7  C   UNL     1      -2.748  11.612  18.290  0.00  0.00    +0.000 A 
ATOM      8  C   UNL     1      -4.178  11.399  18.093  0.00  0.00    +0.000 A 
ATOM      9  O   UNL     1      -4.530  10.878  17.042  0.00  0.00    +0.000 OA
ATOM     10  C   UNL     1      -5.544  13.282  21.314  0.00  0.00    +0.000 C 
ATOM     11  C   UNL     1      -7.000  12.884  20.925  0.00  0.00    +0.000 C 
ATOM     12  O   UNL     1      -7.917  12.790  21.734  0.00  0.00    +0.000 OA
ENDROOT
BRANCH   6  13
ATOM     13  C   UNL     1      -0.835  12.591  19.491  0.00  0.00    +0.000 A 
ATOM     14  C   UNL     1      -0.429  13.843  19.048  0.00  0.00    +0.000 A 
ATOM     15  C   UNL     1       0.907  14.041  18.722  0.00  0.00    +0.000 A 
ATOM     16  C   UNL     1       1.413  15.337  18.655  0.00  0.00    +0.000 A 
ATOM     17  C   UNL     1       2.789  15.535  18.555  0.00  0.00    +0.000 A 
ATOM     18  C   UNL     1       3.642  14.437  18.453  0.00  0.00    +0.000 A 
ATOM     19  C   UNL     1       3.117  13.138  18.367  0.00  0.00    +0.000 A 
ATOM     20  C   UNL     1       1.726  12.911  18.502  0.00  0.00    +0.000 A 
ATOM     21  C   UNL     1       1.142  11.608  18.663  0.00  0.00    +0.000 A 
ATOM     22  C   UNL     1       1.457  10.323  18.120  0.00  0.00    +0.000 A 
ATOM     23  C   UNL     1       1.319   9.177  18.905  0.00  0.00    +0.000 A 
ATOM     24  C   UNL     1       1.093   9.382  20.251  0.00  0.00    +0.000 A 
ATOM     25  C   UNL     1       0.498  10.591  20.620  0.00  0.00    +0.000 A 
ATOM     26  C   UNL     1       0.181  11.569  19.618  0.00  0.00    +0.000 A 
ENDBRANCH   6  13
BRANCH   1  28
ATOM     27  C   UNL     1      -6.509  14.542  17.920  0.00  0.00    +0.000 C 
ATOM     28  C   UNL     1      -7.663  13.842  18.615  0.00  0.00    +0.000 C 
ENDBRANCH   1  28
BRANCH   2  29
ATOM     29  O   UNL     1      -6.942  11.023  17.881  0.00  0.00    +0.000 OA
ATOM     30  H   UNL     1      -6.163  10.852  17.326  0.00  0.00    +0.000 HD
ENDBRANCH   2  29
BRANCH  10  31
ATOM     31  C   UNL     1      -5.315  12.638  22.714  0.00  0.00    +0.000 C 
ATOM     32  C   UNL     1      -4.239  13.243  23.601  0.00  0.00    +0.000 C 
ENDBRANCH  10  31
BRANCH  10  33
ATOM     33  C   UNL     1      -5.792  14.828  21.438  0.00  0.00    +0.000 C 
ATOM     34  C   UNL     1      -6.903  15.401  22.287  0.00  0.00    +0.000 C 
ENDBRANCH  10  33
TORSDOF 5
ENDMDL
MODEL 7
REMARK VINA RESULT:      -6.6      6.076     10.296
REMARK  Name = 
REMARK  8 active torsions:
REMARK  status: ('A' for Active; 'I' for Inactive)
REMARK    1  A    between atoms: C_1  and  C_2
REMARK    2  A    between atoms: C_2  and  C_3
REMARK    3  A    between atoms: C_4  and  O_5
REMARK    4  A    between atoms: C_9  and  C_10
REMARK    5  A    between atoms: C_27  and  C_28
REMARK    6  A    between atoms: C_27  and  C_30
REMARK    7  A    between atoms: C_28  and  C_29
REMARK    8  A    between atoms: C_30  and  C_31
REMARK                            x       y       z     vdW  Elec       q    Type
REMARK                         _______ _______ _______ _____ _____    ______ ____
ROOT
ATOM      1  C   UNL     1       9.523  13.736  21.056  0.00  0.00    +0.000 C 
ATOM      2  C   UNL     1       9.330  13.998  19.774  0.00  0.00    +0.000 C 
ATOM      3  C   UNL     1       7.987  14.372  19.353  0.00  0.00    +0.000 A 
ATOM      4  C   UNL     1       7.076  14.913  20.227  0.00  0.00    +0.000 A 
ATOM      5  O   UNL     1       5.781  15.227  19.788  0.00  0.00    +0.000 OA
ATOM      6  C   UNL     1       5.348  14.951  18.477  0.00  0.00    +0.000 A 
ATOM      7  C   UNL     1       6.138  14.318  17.618  0.00  0.00    +0.000 A 
ATOM      8  C   UNL     1       7.501  13.952  17.989  0.00  0.00    +0.000 A 
ATOM      9  O   UNL     1       8.147  13.294  17.184  0.00  0.00    +0.000 OA
ATOM     10  C   UNL     1       7.507  15.273  21.737  0.00  0.00    +0.000 C 
ATOM     11  C   UNL     1       8.998  14.844  21.882  0.00  0.00    +0.000 C 
ATOM     12  O   UNL     1       9.775  15.350  22.685  0.00  0.00    +0.000 OA
ENDROOT
BRANCH   6  13
ATOM     13  C   UNL     1       3.901  15.202  18.136  0.00  0.00    +0.000 A 
ATOM     14  C   UNL     1       3.540  16.502  17.809  0.00  0.00    +0.000 A 
ATOM     15  C   UNL     1       2.208  16.881  17.928  0.00  0.00    +0.000 A 
ATOM     16  C   UNL     1       1.755  18.016  17.259  0.00  0.00    +0.000 A 
ATOM     17  C   UNL     1       0.386  18.273  17.188  0.00  0.00    +0.000 A 
ATOM     18  C   UNL     1      -0.512  17.432  17.843  0.00  0.00    +0.000 A 
ATOM     19  C   UNL     1      -0.041  16.379  18.642  0.00  0.00    +0.000 A 
ATOM     20  C   UNL     1       1.341  16.078  18.701  0.00  0.00    +0.000 A 
ATOM     21  C   UNL     1       1.873  14.884  19.298  0.00  0.00    +0.000 A 
ATOM     22  C   UNL     1       1.498  14.114  20.443  0.00  0.00    +0.000 A 
ATOM     23  C   UNL     1       1.601  12.722  20.416  0.00  0.00    +0.000 A 
ATOM     24  C   UNL     1       1.854  12.151  19.186  0.00  0.00    +0.000 A 
ATOM     25  C   UNL     1       2.503  12.946  18.237  0.00  0.00    +0.000 A 
ATOM     26  C   UNL     1       2.845  14.303  18.552  0.00  0.00    +0.000 A 
ENDBRANCH   6  13
BRANCH   1  28
ATOM     27  C   UNL     1       9.472  11.191  20.494  0.00  0.00    +0.000 C 
ATOM     28  C   UNL     1       9.296  12.300  21.517  0.00  0.00    +0.000 C 
ENDBRANCH   1  28
BRANCH   2  29
ATOM     29  O   UNL     1      10.104  13.364  18.830  0.00  0.00    +0.000 OA
ATOM     30  H   UNL     1      10.629  12.673  19.268  0.00  0.00    +0.000 HD
ENDBRANCH   2  29
BRANCH  10  31
ATOM     31  C   UNL     1       7.508  16.810  21.991  0.00  0.00    +0.000 C 
ATOM     32  C   UNL     1       7.974  17.712  20.860  0.00  0.00    +0.000 C 
ENDBRANCH  10  31
BRANCH  10  33
ATOM     33  C   UNL     1       6.958  14.495  22.986  0.00  0.00    +0.000 C 
ATOM     34  C   UNL     1       5.869  13.454  22.874  0.00  0.00    +0.000 C 
ENDBRANCH  10  33
TORSDOF 5
ENDMDL
MODEL 8
REMARK VINA RESULT:      -6.6      2.466      8.098
REMARK  Name = 
REMARK  8 active torsions:
REMARK  status: ('A' for Active; 'I' for Inactive)
REMARK    1  A    between atoms: C_1  and  C_2
REMARK    2  A    between atoms: C_2  and  C_3
REMARK    3  A    between atoms: C_4  and  O_5
REMARK    4  A    between atoms: C_9  and  C_10
REMARK    5  A    between atoms: C_27  and  C_28
REMARK    6  A    between atoms: C_27  and  C_30
REMARK    7  A    between atoms: C_28  and  C_29
REMARK    8  A    between atoms: C_30  and  C_31
REMARK                            x       y       z     vdW  Elec       q    Type
REMARK                         _______ _______ _______ _____ _____    ______ ____
ROOT
ATOM      1  C   UNL     1       5.106   4.269  17.971  0.00  0.00    +0.000 C 
ATOM      2  C   UNL     1       5.240   5.580  18.074  0.00  0.00    +0.000 C 
ATOM      3  C   UNL     1       4.048   6.363  18.366  0.00  0.00    +0.000 A 
ATOM      4  C   UNL     1       2.953   5.814  18.989  0.00  0.00    +0.000 A 
ATOM      5  O   UNL     1       1.811   6.596  19.220  0.00  0.00    +0.000 OA
ATOM      6  C   UNL     1       1.715   7.930  18.781  0.00  0.00    +0.000 A 
ATOM      7  C   UNL     1       2.689   8.483  18.066  0.00  0.00    +0.000 A 
ATOM      8  C   UNL     1       3.913   7.744  17.776  0.00  0.00    +0.000 A 
ATOM      9  O   UNL     1       4.732   8.278  17.040  0.00  0.00    +0.000 OA
ATOM     10  C   UNL     1       2.998   4.300  19.535  0.00  0.00    +0.000 C 
ATOM     11  C   UNL     1       4.402   3.738  19.158  0.00  0.00    +0.000 C 
ATOM     12  O   UNL     1       4.959   2.836  19.773  0.00  0.00    +0.000 OA
ENDROOT
BRANCH   6  13
ATOM     13  C   UNL     1       0.401   8.647  18.958  0.00  0.00    +0.000 A 
ATOM     14  C   UNL     1      -0.170   9.219  17.828  0.00  0.00    +0.000 A 
ATOM     15  C   UNL     1      -1.099  10.240  17.987  0.00  0.00    +0.000 A 
ATOM     16  C   UNL     1      -1.956  10.557  16.936  0.00  0.00    +0.000 A 
ATOM     17  C   UNL     1      -3.032  11.416  17.160  0.00  0.00    +0.000 A 
ATOM     18  C   UNL     1      -3.202  12.002  18.413  0.00  0.00    +0.000 A 
ATOM     19  C   UNL     1      -2.250  11.799  19.425  0.00  0.00    +0.000 A 
ATOM     20  C   UNL     1      -1.170  10.905  19.231  0.00  0.00    +0.000 A 
ATOM     21  C   UNL     1      -0.298  10.466  20.286  0.00  0.00    +0.000 A 
ATOM     22  C   UNL     1       0.243  11.115  21.440  0.00  0.00    +0.000 A 
ATOM     23  C   UNL     1       0.390  10.410  22.636  0.00  0.00    +0.000 A 
ATOM     24  C   UNL     1      -0.210   9.169  22.692  0.00  0.00    +0.000 A 
ATOM     25  C   UNL     1      -0.418   8.507  21.480  0.00  0.00    +0.000 A 
ATOM     26  C   UNL     1      -0.042   9.135  20.246  0.00  0.00    +0.000 A 
ENDBRANCH   6  13
BRANCH   1  28
ATOM     27  C   UNL     1       5.872   3.607  15.569  0.00  0.00    +0.000 C 
ATOM     28  C   UNL     1       4.758   3.708  16.595  0.00  0.00    +0.000 C 
ENDBRANCH   1  28
BRANCH   2  29
ATOM     29  O   UNL     1       6.219   6.219  17.348  0.00  0.00    +0.000 OA
ATOM     30  H   UNL     1       6.949   6.455  17.945  0.00  0.00    +0.000 HD
ENDBRANCH   2  29
BRANCH  10  31
ATOM     31  C   UNL     1       2.950   4.241  21.091  0.00  0.00    +0.000 C 
ATOM     32  C   UNL     1       2.030   3.212  21.729  0.00  0.00    +0.000 C 
ENDBRANCH  10  31
BRANCH  10  33
ATOM     33  C   UNL     1       2.149   3.141  18.900  0.00  0.00    +0.000 C 
ATOM     34  C   UNL     1       1.096   3.396  17.847  0.00  0.00    +0.000 C 
ENDBRANCH  10  33
TORSDOF 5
ENDMDL
MODEL 9
REMARK VINA RESULT:      -6.6      4.793      7.624
REMARK  Name = 
REMARK  8 active torsions:
REMARK  status: ('A' for Active; 'I' for Inactive)
REMARK    1  A    between atoms: C_1  and  C_2
REMARK    2  A    between atoms: C_2  and  C_3
REMARK    3  A    between atoms: C_4  and  O_5
REMARK    4  A    between atoms: C_9  and  C_10
REMARK    5  A    between atoms: C_27  and  C_28
REMARK    6  A    between atoms: C_27  and  C_30
REMARK    7  A    between atoms: C_28  and  C_29
REMARK    8  A    between atoms: C_30  and  C_31
REMARK                            x       y       z     vdW  Elec       q    Type
REMARK                         _______ _______ _______ _____ _____    ______ ____
ROOT
ATOM      1  C   UNL     1      -5.070  16.373  24.389  0.00  0.00    +0.000 C 
ATOM      2  C   UNL     1      -5.449  15.130  24.146  0.00  0.00    +0.000 C 
ATOM      3  C   UNL     1      -4.832  14.440  23.022  0.00  0.00    +0.000 A 
ATOM      4  C   UNL     1      -3.603  14.806  22.531  0.00  0.00    +0.000 A 
ATOM      5  O   UNL     1      -3.060  14.136  21.423  0.00  0.00    +0.000 OA
ATOM      6  C   UNL     1      -3.763  13.123  20.744  0.00  0.00    +0.000 A 
ATOM      7  C   UNL     1      -5.004  12.804  21.091  0.00  0.00    +0.000 A 
ATOM      8  C   UNL     1      -5.649  13.450  22.230  0.00  0.00    +0.000 A 
ATOM      9  O   UNL     1      -6.822  13.175  22.444  0.00  0.00    +0.000 OA
ATOM     10  C   UNL     1      -2.735  15.945  23.268  0.00  0.00    +0.000 C 
ATOM     11  C   UNL     1      -3.595  16.446  24.468  0.00  0.00    +0.000 C 
ATOM     12  O   UNL     1      -3.120  16.943  25.482  0.00  0.00    +0.000 OA
ENDROOT
BRANCH   6  13
ATOM     13  C   UNL     1      -3.155  12.554  19.487  0.00  0.00    +0.000 A 
ATOM     14  C   UNL     1      -4.028  12.060  18.525  0.00  0.00    +0.000 A 
ATOM     15  C   UNL     1      -3.554  11.146  17.592  0.00  0.00    +0.000 A 
ATOM     16  C   UNL     1      -4.266  10.937  16.413  0.00  0.00    +0.000 A 
ATOM     17  C   UNL     1      -3.688  10.201  15.380  0.00  0.00    +0.000 A 
ATOM     18  C   UNL     1      -2.431   9.624  15.559  0.00  0.00    +0.000 A 
ATOM     19  C   UNL     1      -1.784   9.709  16.802  0.00  0.00    +0.000 A 
ATOM     20  C   UNL     1      -2.336  10.481  17.853  0.00  0.00    +0.000 A 
ATOM     21  C   UNL     1      -1.627  10.809  19.059  0.00  0.00    +0.000 A 
ATOM     22  C   UNL     1      -0.691  10.092  19.868  0.00  0.00    +0.000 A 
ATOM     23  C   UNL     1       0.376  10.763  20.467  0.00  0.00    +0.000 A 
ATOM     24  C   UNL     1       0.590  12.063  20.054  0.00  0.00    +0.000 A 
ATOM     25  C   UNL     1      -0.508  12.757  19.541  0.00  0.00    +0.000 A 
ATOM     26  C   UNL     1      -1.781  12.104  19.431  0.00  0.00    +0.000 A 
ENDBRANCH   6  13
BRANCH   1  28
ATOM     27  C   UNL     1      -6.459  18.575  24.518  0.00  0.00    +0.000 C 
ATOM     28  C   UNL     1      -5.825  17.486  23.669  0.00  0.00    +0.000 C 
ENDBRANCH   1  28
BRANCH   2  29
ATOM     29  O   UNL     1      -6.728  14.738  24.467  0.00  0.00    +0.000 OA
ATOM     30  H   UNL     1      -6.740  14.431  25.389  0.00  0.00    +0.000 HD
ENDBRANCH   2  29
BRANCH  10  31
ATOM     31  C   UNL     1      -1.444  15.363  23.918  0.00  0.00    +0.000 C 
ATOM     32  C   UNL     1      -0.217  15.210  23.035  0.00  0.00    +0.000 C 
ENDBRANCH  10  31
BRANCH  10  33
ATOM     33  C   UNL     1      -2.458  17.351  22.627  0.00  0.00    +0.000 C 
ATOM     34  C   UNL     1      -2.399  17.560  21.131  0.00  0.00    +0.000 C 
ENDBRANCH  10  33
TORSDOF 5
ENDMDL
