MODEL 1
REMARK VINA RESULT:      -8.5      0.000      0.000
REMARK  Name = 
REMARK  6 active torsions:
REMARK  status: ('A' for Active; 'I' for Inactive)
REMARK    1  A    between atoms: C_1  and  C_2
REMARK    2  A    between atoms: C_2  and  C_3
REMARK    3  A    between atoms: C_6  and  C_7
REMARK    4  A    between atoms: C_13  and  C_14
REMARK    5  A    between atoms: C_23  and  N_24
REMARK    6  A    between atoms: C_28  and  N_29
REMARK                            x       y       z     vdW  Elec       q    Type
REMARK                         _______ _______ _______ _____ _____    ______ ____
ROOT
ATOM      1  C   UNL     1       0.207  12.587  18.622  0.00  0.00    +0.000 A 
ATOM      2  C   UNL     1       1.546  12.246  18.524  0.00  0.00    +0.000 A 
ATOM      3  C   UNL     1       1.927  10.919  18.696  0.00  0.00    +0.000 A 
ATOM      4  C   UNL     1       0.997   9.897  18.991  0.00  0.00    +0.000 A 
ATOM      5  N   UNL     1      -0.331  10.200  19.073  0.00  0.00    +0.000 NA
ATOM      6  C   UNL     1      -0.717  11.528  18.869  0.00  0.00    +0.000 A 
ENDROOT
BRANCH   4   7
ATOM      7  C   UNL     1       1.616   8.546  19.358  0.00  0.00    +0.000 A 
ATOM      8  N   UNL     1       1.131   8.060  20.533  0.00  0.00    +0.000 NA
ATOM      9  N   UNL     1       1.732   6.917  20.761  0.00  0.00    +0.000 N 
ATOM     10  C   UNL     1       2.605   6.543  19.790  0.00  0.00    +0.000 A 
ATOM     11  C   UNL     1       3.347   5.389  19.735  0.00  0.00    +0.000 A 
ATOM     12  N   UNL     1       4.171   5.196  18.712  0.00  0.00    +0.000 NA
ATOM     13  C   UNL     1       4.286   6.122  17.727  0.00  0.00    +0.000 A 
ATOM     14  C   UNL     1       3.532   7.340  17.751  0.00  0.00    +0.000 A 
ATOM     15  C   UNL     1       2.612   7.568  18.838  0.00  0.00    +0.000 A 
ATOM     16  H   UNL     1       1.516   6.418  21.619  0.00  0.00    +0.000 HD
BRANCH  13  17
ATOM     17  C   UNL     1       5.242   5.628  16.674  0.00  0.00    +0.000 A 
ATOM     18  C   UNL     1       4.830   4.646  15.729  0.00  0.00    +0.000 A 
ATOM     19  C   UNL     1       5.659   4.217  14.680  0.00  0.00    +0.000 A 
ATOM     20  C   UNL     1       6.918   4.760  14.607  0.00  0.00    +0.000 A 
ATOM     21  N   UNL     1       7.388   5.665  15.493  0.00  0.00    +0.000 NA
ATOM     22  C   UNL     1       6.539   6.071  16.488  0.00  0.00    +0.000 A 
ENDBRANCH  13  17
ENDBRANCH   4   7
BRANCH   6  23
ATOM     23  N   UNL     1      -2.080  11.903  18.966  0.00  0.00    +0.000 N 
ATOM     24  C   UNL     1      -2.572  12.160  20.317  0.00  0.00    +0.000 C 
ATOM     25  C   UNL     1      -3.903  12.924  20.222  0.00  0.00    +0.000 C 
ATOM     26  C   UNL     1      -4.931  12.219  19.335  0.00  0.00    +0.000 C 
ATOM     27  C   UNL     1      -4.337  11.861  17.964  0.00  0.00    +0.000 C 
ATOM     28  C   UNL     1      -3.008  11.086  18.153  0.00  0.00    +0.000 C 
BRANCH  27  29
ATOM     29  N   UNL     1      -5.350  11.142  17.180  0.00  0.00    +0.000 NA
ATOM     30  H   UNL     1      -6.182  10.972  17.743  0.00  0.00    +0.000 HD
ATOM     31  H   UNL     1      -4.994  10.232  16.893  0.00  0.00    +0.000 HD
ENDBRANCH  27  29
ENDBRANCH   6  23
BRANCH   1  33
ATOM     32  C   UNL     1       0.624  15.101  19.176  0.00  0.00    +0.000 C 
ATOM     33  C   UNL     1      -0.181  14.048  18.413  0.00  0.00    +0.000 C 
ENDBRANCH   1  33
TORSDOF 5
ENDMDL
MODEL 2
REMARK VINA RESULT:      -8.4      1.123      1.384
REMARK  Name = 
REMARK  6 active torsions:
REMARK  status: ('A' for Active; 'I' for Inactive)
REMARK    1  A    between atoms: C_1  and  C_2
REMARK    2  A    between atoms: C_2  and  C_3
REMARK    3  A    between atoms: C_6  and  C_7
REMARK    4  A    between atoms: C_13  and  C_14
REMARK    5  A    between atoms: C_23  and  N_24
REMARK    6  A    between atoms: C_28  and  N_29
REMARK                            x       y       z     vdW  Elec       q    Type
REMARK                         _______ _______ _______ _____ _____    ______ ____
ROOT
ATOM      1  C   UNL     1      -0.159  12.141  18.949  0.00  0.00    +0.000 A 
ATOM      2  C   UNL     1       1.052  11.986  19.603  0.00  0.00    +0.000 A 
ATOM      3  C   UNL     1       1.646  10.730  19.651  0.00  0.00    +0.000 A 
ATOM      4  C   UNL     1       1.049   9.587  19.073  0.00  0.00    +0.000 A 
ATOM      5  N   UNL     1      -0.135   9.713  18.405  0.00  0.00    +0.000 NA
ATOM      6  C   UNL     1      -0.716  10.983  18.330  0.00  0.00    +0.000 A 
ENDROOT
BRANCH   4   7
ATOM      7  C   UNL     1       1.733   8.260  19.408  0.00  0.00    +0.000 A 
ATOM      8  N   UNL     1       1.312   7.749  20.596  0.00  0.00    +0.000 NA
ATOM      9  N   UNL     1       1.966   6.630  20.794  0.00  0.00    +0.000 N 
ATOM     10  C   UNL     1       2.816   6.295  19.788  0.00  0.00    +0.000 A 
ATOM     11  C   UNL     1       3.599   5.171  19.697  0.00  0.00    +0.000 A 
ATOM     12  N   UNL     1       4.391   5.016  18.643  0.00  0.00    +0.000 NA
ATOM     13  C   UNL     1       4.433   5.951  17.661  0.00  0.00    +0.000 A 
ATOM     14  C   UNL     1       3.633   7.138  17.721  0.00  0.00    +0.000 A 
ATOM     15  C   UNL     1       2.747   7.325  18.844  0.00  0.00    +0.000 A 
ATOM     16  H   UNL     1       1.802   6.118  21.656  0.00  0.00    +0.000 HD
BRANCH  13  17
ATOM     17  C   UNL     1       5.367   5.500  16.569  0.00  0.00    +0.000 A 
ATOM     18  C   UNL     1       4.920   4.594  15.566  0.00  0.00    +0.000 A 
ATOM     19  C   UNL     1       5.729   4.211  14.485  0.00  0.00    +0.000 A 
ATOM     20  C   UNL     1       7.003   4.723  14.436  0.00  0.00    +0.000 A 
ATOM     21  N   UNL     1       7.504   5.555  15.373  0.00  0.00    +0.000 NA
ATOM     22  C   UNL     1       6.674   5.919  16.400  0.00  0.00    +0.000 A 
ENDBRANCH  13  17
ENDBRANCH   4   7
BRANCH   6  23
ATOM     23  N   UNL     1      -1.956  11.167  17.669  0.00  0.00    +0.000 N 
ATOM     24  C   UNL     1      -3.132  11.226  18.533  0.00  0.00    +0.000 C 
ATOM     25  C   UNL     1      -4.305  11.817  17.734  0.00  0.00    +0.000 C 
ATOM     26  C   UNL     1      -4.563  11.074  16.421  0.00  0.00    +0.000 C 
ATOM     27  C   UNL     1      -3.276  10.930  15.595  0.00  0.00    +0.000 C 
ATOM     28  C   UNL     1      -2.154  10.319  16.472  0.00  0.00    +0.000 C 
BRANCH  27  29
ATOM     29  N   UNL     1      -3.575  10.166  14.376  0.00  0.00    +0.000 NA
ATOM     30  H   UNL     1      -4.519  10.369  14.052  0.00  0.00    +0.000 HD
ATOM     31  H   UNL     1      -3.536   9.167  14.569  0.00  0.00    +0.000 HD
ENDBRANCH  27  29
ENDBRANCH   6  23
BRANCH   1  33
ATOM     32  C   UNL     1      -0.698  14.381  20.173  0.00  0.00    +0.000 C 
ATOM     33  C   UNL     1      -0.778  13.535  18.901  0.00  0.00    +0.000 C 
ENDBRANCH   1  33
TORSDOF 5
ENDMDL
MODEL 3
REMARK VINA RESULT:      -8.4      1.150      1.395
REMARK  Name = 
REMARK  6 active torsions:
REMARK  status: ('A' for Active; 'I' for Inactive)
REMARK    1  A    between atoms: C_1  and  C_2
REMARK    2  A    between atoms: C_2  and  C_3
REMARK    3  A    between atoms: C_6  and  C_7
REMARK    4  A    between atoms: C_13  and  C_14
REMARK    5  A    between atoms: C_23  and  N_24
REMARK    6  A    between atoms: C_28  and  N_29
REMARK                            x       y       z     vdW  Elec       q    Type
REMARK                         _______ _______ _______ _____ _____    ______ ____
ROOT
ATOM      1  C   UNL     1       0.652  12.220  18.897  0.00  0.00    +0.000 A 
ATOM      2  C   UNL     1       1.689  11.641  18.184  0.00  0.00    +0.000 A 
ATOM      3  C   UNL     1       1.976  10.293  18.370  0.00  0.00    +0.000 A 
ATOM      4  C   UNL     1       1.259   9.484  19.281  0.00  0.00    +0.000 A 
ATOM      5  N   UNL     1       0.219  10.023  19.982  0.00  0.00    +0.000 NA
ATOM      6  C   UNL     1      -0.089  11.370  19.772  0.00  0.00    +0.000 A 
ENDROOT
BRANCH   4   7
ATOM      7  C   UNL     1       1.848   8.090  19.511  0.00  0.00    +0.000 A 
ATOM      8  N   UNL     1       1.358   7.504  20.636  0.00  0.00    +0.000 NA
ATOM      9  N   UNL     1       1.934   6.331  20.748  0.00  0.00    +0.000 N 
ATOM     10  C   UNL     1       2.792   6.033  19.738  0.00  0.00    +0.000 A 
ATOM     11  C   UNL     1       3.506   4.873  19.566  0.00  0.00    +0.000 A 
ATOM     12  N   UNL     1       4.320   4.762  18.523  0.00  0.00    +0.000 NA
ATOM     13  C   UNL     1       4.452   5.777  17.632  0.00  0.00    +0.000 A 
ATOM     14  C   UNL     1       3.727   7.003  17.779  0.00  0.00    +0.000 A 
ATOM     15  C   UNL     1       2.818   7.145  18.891  0.00  0.00    +0.000 A 
ATOM     16  H   UNL     1       1.711   5.756  21.555  0.00  0.00    +0.000 HD
BRANCH  13  17
ATOM     17  C   UNL     1       5.391   5.365  16.528  0.00  0.00    +0.000 A 
ATOM     18  C   UNL     1       4.976   4.428  15.540  0.00  0.00    +0.000 A 
ATOM     19  C   UNL     1       5.786   4.079  14.448  0.00  0.00    +0.000 A 
ATOM     20  C   UNL     1       7.030   4.655  14.374  0.00  0.00    +0.000 A 
ATOM     21  N   UNL     1       7.503   5.520  15.297  0.00  0.00    +0.000 NA
ATOM     22  C   UNL     1       6.672   5.849  16.335  0.00  0.00    +0.000 A 
ENDBRANCH  13  17
ENDBRANCH   4   7
BRANCH   6  23
ATOM     23  N   UNL     1      -1.144  11.986  20.490  0.00  0.00    +0.000 N 
ATOM     24  C   UNL     1      -1.283  11.577  21.885  0.00  0.00    +0.000 C 
ATOM     25  C   UNL     1      -2.175  12.595  22.613  0.00  0.00    +0.000 C 
ATOM     26  C   UNL     1      -3.520  12.813  21.916  0.00  0.00    +0.000 C 
ATOM     27  C   UNL     1      -3.334  13.125  20.423  0.00  0.00    +0.000 C 
ATOM     28  C   UNL     1      -2.434  12.047  19.768  0.00  0.00    +0.000 C 
BRANCH  27  29
ATOM     29  N   UNL     1      -4.656  13.271  19.799  0.00  0.00    +0.000 NA
ATOM     30  H   UNL     1      -5.350  13.540  20.494  0.00  0.00    +0.000 HD
ATOM     31  H   UNL     1      -4.959  12.383  19.404  0.00  0.00    +0.000 HD
ENDBRANCH  27  29
ENDBRANCH   6  23
BRANCH   1  33
ATOM     32  C   UNL     1       1.477  14.694  18.948  0.00  0.00    +0.000 C 
ATOM     33  C   UNL     1       0.352  13.697  18.661  0.00  0.00    +0.000 C 
ENDBRANCH   1  33
TORSDOF 5
ENDMDL
MODEL 4
REMARK VINA RESULT:      -8.1      2.113      9.936
REMARK  Name = 
REMARK  6 active torsions:
REMARK  status: ('A' for Active; 'I' for Inactive)
REMARK    1  A    between atoms: C_1  and  C_2
REMARK    2  A    between atoms: C_2  and  C_3
REMARK    3  A    between atoms: C_6  and  C_7
REMARK    4  A    between atoms: C_13  and  C_14
REMARK    5  A    between atoms: C_23  and  N_24
REMARK    6  A    between atoms: C_28  and  N_29
REMARK                            x       y       z     vdW  Elec       q    Type
REMARK                         _______ _______ _______ _____ _____    ______ ____
ROOT
ATOM      1  C   UNL     1       3.063   5.259  19.739  0.00  0.00    +0.000 A 
ATOM      2  C   UNL     1       1.994   5.860  20.383  0.00  0.00    +0.000 A 
ATOM      3  C   UNL     1       1.579   7.126  19.984  0.00  0.00    +0.000 A 
ATOM      4  C   UNL     1       2.223   7.842  18.949  0.00  0.00    +0.000 A 
ATOM      5  N   UNL     1       3.266   7.267  18.283  0.00  0.00    +0.000 NA
ATOM      6  C   UNL     1       3.663   5.981  18.665  0.00  0.00    +0.000 A 
ENDROOT
BRANCH   4   7
ATOM      7  C   UNL     1       1.772   9.296  18.791  0.00  0.00    +0.000 A 
ATOM      8  N   UNL     1       2.417   9.927  17.773  0.00  0.00    +0.000 NA
ATOM      9  N   UNL     1       1.973  11.160  17.734  0.00  0.00    +0.000 N 
ATOM     10  C   UNL     1       1.015  11.437  18.657  0.00  0.00    +0.000 A 
ATOM     11  C   UNL     1       0.342  12.621  18.830  0.00  0.00    +0.000 A 
ATOM     12  N   UNL     1      -0.554  12.720  19.805  0.00  0.00    +0.000 NA
ATOM     13  C   UNL     1      -0.810  11.670  20.624  0.00  0.00    +0.000 A 
ATOM     14  C   UNL     1      -0.127  10.420  20.477  0.00  0.00    +0.000 A 
ATOM     15  C   UNL     1       0.838  10.275  19.414  0.00  0.00    +0.000 A 
ATOM     16  H   UNL     1       2.368  11.797  17.048  0.00  0.00    +0.000 HD
BRANCH  13  17
ATOM     17  C   UNL     1      -1.900  12.038  21.597  0.00  0.00    +0.000 A 
ATOM     18  C   UNL     1      -2.981  12.869  21.189  0.00  0.00    +0.000 A 
ATOM     19  C   UNL     1      -4.059  13.169  22.036  0.00  0.00    +0.000 A 
ATOM     20  C   UNL     1      -4.027  12.653  23.308  0.00  0.00    +0.000 A 
ATOM     21  N   UNL     1      -3.014  11.892  23.774  0.00  0.00    +0.000 NA
ATOM     22  C   UNL     1      -1.992  11.606  22.907  0.00  0.00    +0.000 A 
ENDBRANCH  13  17
ENDBRANCH   4   7
BRANCH   6  23
ATOM     23  N   UNL     1       4.755   5.346  18.022  0.00  0.00    +0.000 N 
ATOM     24  C   UNL     1       6.078   5.693  18.533  0.00  0.00    +0.000 C 
ATOM     25  C   UNL     1       7.092   4.654  18.028  0.00  0.00    +0.000 C 
ATOM     26  C   UNL     1       7.062   4.483  16.507  0.00  0.00    +0.000 C 
ATOM     27  C   UNL     1       5.633   4.237  15.999  0.00  0.00    +0.000 C 
ATOM     28  C   UNL     1       4.684   5.334  16.544  0.00  0.00    +0.000 C 
BRANCH  27  29
ATOM     29  N   UNL     1       5.661   4.135  14.533  0.00  0.00    +0.000 NA
ATOM     30  H   UNL     1       4.900   3.544  14.203  0.00  0.00    +0.000 HD
ATOM     31  H   UNL     1       6.529   3.702  14.226  0.00  0.00    +0.000 HD
ENDBRANCH  27  29
ENDBRANCH   6  23
BRANCH   1  33
ATOM     32  C   UNL     1       2.519   3.102  21.101  0.00  0.00    +0.000 C 
ATOM     33  C   UNL     1       3.484   3.864  20.191  0.00  0.00    +0.000 C 
ENDBRANCH   1  33
TORSDOF 5
ENDMDL
MODEL 5
REMARK VINA RESULT:      -8.0      1.991      2.485
REMARK  Name = 
REMARK  6 active torsions:
REMARK  status: ('A' for Active; 'I' for Inactive)
REMARK    1  A    between atoms: C_1  and  C_2
REMARK    2  A    between atoms: C_2  and  C_3
REMARK    3  A    between atoms: C_6  and  C_7
REMARK    4  A    between atoms: C_13  and  C_14
REMARK    5  A    between atoms: C_23  and  N_24
REMARK    6  A    between atoms: C_28  and  N_29
REMARK                            x       y       z     vdW  Elec       q    Type
REMARK                         _______ _______ _______ _____ _____    ______ ____
ROOT
ATOM      1  C   UNL     1      -0.121  11.431  18.707  0.00  0.00    +0.000 A 
ATOM      2  C   UNL     1       0.367  10.578  17.730  0.00  0.00    +0.000 A 
ATOM      3  C   UNL     1       0.899   9.348  18.101  0.00  0.00    +0.000 A 
ATOM      4  C   UNL     1       0.982   8.935  19.450  0.00  0.00    +0.000 A 
ATOM      5  N   UNL     1       0.491   9.746  20.432  0.00  0.00    +0.000 NA
ATOM      6  C   UNL     1      -0.072  10.969  20.056  0.00  0.00    +0.000 A 
ENDROOT
BRANCH   4   7
ATOM      7  C   UNL     1       1.787   7.655  19.687  0.00  0.00    +0.000 A 
ATOM      8  N   UNL     1       1.478   7.065  20.873  0.00  0.00    +0.000 NA
ATOM      9  N   UNL     1       2.228   5.994  20.983  0.00  0.00    +0.000 N 
ATOM     10  C   UNL     1       3.040   5.770  19.917  0.00  0.00    +0.000 A 
ATOM     11  C   UNL     1       3.902   4.718  19.733  0.00  0.00    +0.000 A 
ATOM     12  N   UNL     1       4.640   4.670  18.630  0.00  0.00    +0.000 NA
ATOM     13  C   UNL     1       4.550   5.644  17.690  0.00  0.00    +0.000 A 
ATOM     14  C   UNL     1       3.666   6.759  17.848  0.00  0.00    +0.000 A 
ATOM     15  C   UNL     1       2.835   6.828  19.026  0.00  0.00    +0.000 A 
ATOM     16  H   UNL     1       2.156   5.437  21.829  0.00  0.00    +0.000 HD
BRANCH  13  17
ATOM     17  C   UNL     1       5.451   5.314  16.529  0.00  0.00    +0.000 A 
ATOM     18  C   UNL     1       4.988   4.481  15.472  0.00  0.00    +0.000 A 
ATOM     19  C   UNL     1       5.762   4.215  14.331  0.00  0.00    +0.000 A 
ATOM     20  C   UNL     1       7.018   4.768  14.276  0.00  0.00    +0.000 A 
ATOM     21  N   UNL     1       7.535   5.534  15.260  0.00  0.00    +0.000 NA
ATOM     22  C   UNL     1       6.738   5.786  16.345  0.00  0.00    +0.000 A 
ENDBRANCH  13  17
ENDBRANCH   4   7
BRANCH   6  23
ATOM     23  N   UNL     1      -0.576  11.860  21.036  0.00  0.00    +0.000 N 
ATOM     24  C   UNL     1       0.406  12.753  21.645  0.00  0.00    +0.000 C 
ATOM     25  C   UNL     1      -0.338  13.892  22.361  0.00  0.00    +0.000 C 
ATOM     26  C   UNL     1      -1.385  13.385  23.356  0.00  0.00    +0.000 C 
ATOM     27  C   UNL     1      -2.325  12.359  22.707  0.00  0.00    +0.000 C 
ATOM     28  C   UNL     1      -1.495  11.245  22.020  0.00  0.00    +0.000 C 
BRANCH  27  29
ATOM     29  N   UNL     1      -3.270  11.871  23.721  0.00  0.00    +0.000 NA
ATOM     30  H   UNL     1      -3.512  12.617  24.371  0.00  0.00    +0.000 HD
ATOM     31  H   UNL     1      -2.845  11.126  24.269  0.00  0.00    +0.000 HD
ENDBRANCH  27  29
ENDBRANCH   6  23
BRANCH   1  33
ATOM     32  C   UNL     1       0.203  13.991  18.330  0.00  0.00    +0.000 C 
ATOM     33  C   UNL     1      -0.712  12.767  18.266  0.00  0.00    +0.000 C 
ENDBRANCH   1  33
TORSDOF 5
ENDMDL
MODEL 6
REMARK VINA RESULT:      -8.0      2.667      9.003
REMARK  Name = 
REMARK  6 active torsions:
REMARK  status: ('A' for Active; 'I' for Inactive)
REMARK    1  A    between atoms: C_1  and  C_2
REMARK    2  A    between atoms: C_2  and  C_3
REMARK    3  A    between atoms: C_6  and  C_7
REMARK    4  A    between atoms: C_13  and  C_14
REMARK    5  A    between atoms: C_23  and  N_24
REMARK    6  A    between atoms: C_28  and  N_29
REMARK                            x       y       z     vdW  Elec       q    Type
REMARK                         _______ _______ _______ _____ _____    ______ ____
ROOT
ATOM      1  C   UNL     1       3.161   6.252  17.989  0.00  0.00    +0.000 A 
ATOM      2  C   UNL     1       3.149   7.523  17.437  0.00  0.00    +0.000 A 
ATOM      3  C   UNL     1       2.537   8.562  18.129  0.00  0.00    +0.000 A 
ATOM      4  C   UNL     1       1.902   8.370  19.377  0.00  0.00    +0.000 A 
ATOM      5  N   UNL     1       1.915   7.133  19.954  0.00  0.00    +0.000 NA
ATOM      6  C   UNL     1       2.558   6.096  19.272  0.00  0.00    +0.000 A 
ENDROOT
BRANCH   4   7
ATOM      7  C   UNL     1       1.100   9.570  19.887  0.00  0.00    +0.000 A 
ATOM      8  N   UNL     1       0.133   9.205  20.771  0.00  0.00    +0.000 NA
ATOM      9  N   UNL     1      -0.499  10.297  21.131  0.00  0.00    +0.000 N 
ATOM     10  C   UNL     1      -0.012  11.434  20.570  0.00  0.00    +0.000 A 
ATOM     11  C   UNL     1      -0.442  12.720  20.784  0.00  0.00    +0.000 A 
ATOM     12  N   UNL     1       0.142  13.716  20.129  0.00  0.00    +0.000 NA
ATOM     13  C   UNL     1       1.152  13.477  19.256  0.00  0.00    +0.000 A 
ATOM     14  C   UNL     1       1.627  12.150  19.003  0.00  0.00    +0.000 A 
ATOM     15  C   UNL     1       1.027  11.048  19.716  0.00  0.00    +0.000 A 
ATOM     16  H   UNL     1      -1.283  10.214  21.772  0.00  0.00    +0.000 HD
BRANCH  13  17
ATOM     17  C   UNL     1       1.662  14.781  18.699  0.00  0.00    +0.000 A 
ATOM     18  C   UNL     1       2.916  14.838  18.028  0.00  0.00    +0.000 A 
ATOM     19  C   UNL     1       3.392  16.011  17.421  0.00  0.00    +0.000 A 
ATOM     20  C   UNL     1       2.611  17.136  17.523  0.00  0.00    +0.000 A 
ATOM     21  N   UNL     1       1.431  17.164  18.180  0.00  0.00    +0.000 NA
ATOM     22  C   UNL     1       0.995  15.991  18.738  0.00  0.00    +0.000 A 
ENDBRANCH  13  17
ENDBRANCH   4   7
BRANCH   6  23
ATOM     23  N   UNL     1       2.582   4.787  19.814  0.00  0.00    +0.000 N 
ATOM     24  C   UNL     1       1.743   4.573  20.991  0.00  0.00    +0.000 C 
ATOM     25  C   UNL     1       1.567   3.061  21.205  0.00  0.00    +0.000 C 
ATOM     26  C   UNL     1       2.899   2.311  21.276  0.00  0.00    +0.000 C 
ATOM     27  C   UNL     1       3.800   2.655  20.079  0.00  0.00    +0.000 C 
ATOM     28  C   UNL     1       3.931   4.193  19.944  0.00  0.00    +0.000 C 
BRANCH  27  29
ATOM     29  N   UNL     1       5.080   1.949  20.230  0.00  0.00    +0.000 NA
ATOM     30  H   UNL     1       5.208   1.645  21.193  0.00  0.00    +0.000 HD
ATOM     31  H   UNL     1       5.854   2.573  20.010  0.00  0.00    +0.000 HD
ENDBRANCH  27  29
ENDBRANCH   6  23
BRANCH   1  33
ATOM     32  C   UNL     1       5.038   5.530  16.328  0.00  0.00    +0.000 C 
ATOM     33  C   UNL     1       3.853   5.136  17.211  0.00  0.00    +0.000 C 
ENDBRANCH   1  33
TORSDOF 5
ENDMDL
MODEL 7
REMARK VINA RESULT:      -7.8      1.632      2.407
REMARK  Name = 
REMARK  6 active torsions:
REMARK  status: ('A' for Active; 'I' for Inactive)
REMARK    1  A    between atoms: C_1  and  C_2
REMARK    2  A    between atoms: C_2  and  C_3
REMARK    3  A    between atoms: C_6  and  C_7
REMARK    4  A    between atoms: C_13  and  C_14
REMARK    5  A    between atoms: C_23  and  N_24
REMARK    6  A    between atoms: C_28  and  N_29
REMARK                            x       y       z     vdW  Elec       q    Type
REMARK                         _______ _______ _______ _____ _____    ______ ____
ROOT
ATOM      1  C   UNL     1       0.649  12.067  19.087  0.00  0.00    +0.000 A 
ATOM      2  C   UNL     1       1.563  11.451  18.247  0.00  0.00    +0.000 A 
ATOM      3  C   UNL     1       1.855  10.103  18.426  0.00  0.00    +0.000 A 
ATOM      4  C   UNL     1       1.268   9.332  19.454  0.00  0.00    +0.000 A 
ATOM      5  N   UNL     1       0.349   9.906  20.284  0.00  0.00    +0.000 NA
ATOM      6  C   UNL     1       0.033  11.253  20.084  0.00  0.00    +0.000 A 
ENDROOT
BRANCH   4   7
ATOM      7  C   UNL     1       1.864   7.934  19.635  0.00  0.00    +0.000 A 
ATOM      8  N   UNL     1       1.375   7.304  20.737  0.00  0.00    +0.000 NA
ATOM      9  N   UNL     1       1.957   6.131  20.807  0.00  0.00    +0.000 N 
ATOM     10  C   UNL     1       2.820   5.875  19.790  0.00  0.00    +0.000 A 
ATOM     11  C   UNL     1       3.542   4.726  19.578  0.00  0.00    +0.000 A 
ATOM     12  N   UNL     1       4.359   4.658  18.534  0.00  0.00    +0.000 NA
ATOM     13  C   UNL     1       4.487   5.705  17.681  0.00  0.00    +0.000 A 
ATOM     14  C   UNL     1       3.755   6.921  17.870  0.00  0.00    +0.000 A 
ATOM     15  C   UNL     1       2.842   7.018  18.984  0.00  0.00    +0.000 A 
ATOM     16  H   UNL     1       1.735   5.525  21.593  0.00  0.00    +0.000 HD
BRANCH  13  17
ATOM     17  C   UNL     1       5.431   5.340  16.565  0.00  0.00    +0.000 A 
ATOM     18  C   UNL     1       5.038   4.408  15.564  0.00  0.00    +0.000 A 
ATOM     19  C   UNL     1       5.852   4.101  14.462  0.00  0.00    +0.000 A 
ATOM     20  C   UNL     1       7.079   4.714  14.392  0.00  0.00    +0.000 A 
ATOM     21  N   UNL     1       7.531   5.576  15.327  0.00  0.00    +0.000 NA
ATOM     22  C   UNL     1       6.696   5.864  16.374  0.00  0.00    +0.000 A 
ENDBRANCH  13  17
ENDBRANCH   4   7
BRANCH   6  23
ATOM     23  N   UNL     1      -0.897  11.906  20.931  0.00  0.00    +0.000 N 
ATOM     24  C   UNL     1      -2.144  12.327  20.297  0.00  0.00    +0.000 C 
ATOM     25  C   UNL     1      -3.175  12.639  21.393  0.00  0.00    +0.000 C 
ATOM     26  C   UNL     1      -2.660  13.643  22.427  0.00  0.00    +0.000 C 
ATOM     27  C   UNL     1      -1.291  13.223  22.983  0.00  0.00    +0.000 C 
ATOM     28  C   UNL     1      -0.313  12.940  21.814  0.00  0.00    +0.000 C 
BRANCH  27  29
ATOM     29  N   UNL     1      -0.825  14.249  23.926  0.00  0.00    +0.000 NA
ATOM     30  H   UNL     1       0.104  14.017  24.274  0.00  0.00    +0.000 HD
ATOM     31  H   UNL     1      -1.443  14.290  24.735  0.00  0.00    +0.000 HD
ENDBRANCH  27  29
ENDBRANCH   6  23
BRANCH   1  33
ATOM     32  C   UNL     1       1.529  14.497  18.733  0.00  0.00    +0.000 C 
ATOM     33  C   UNL     1       0.339  13.543  18.855  0.00  0.00    +0.000 C 
ENDBRANCH   1  33
TORSDOF 5
ENDMDL
MODEL 8
REMARK VINA RESULT:      -7.7      2.549      8.864
REMARK  Name = 
REMARK  6 active torsions:
REMARK  status: ('A' for Active; 'I' for Inactive)
REMARK    1  A    between atoms: C_1  and  C_2
REMARK    2  A    between atoms: C_2  and  C_3
REMARK    3  A    between atoms: C_6  and  C_7
REMARK    4  A    between atoms: C_13  and  C_14
REMARK    5  A    between atoms: C_23  and  N_24
REMARK    6  A    between atoms: C_28  and  N_29
REMARK                            x       y       z     vdW  Elec       q    Type
REMARK                         _______ _______ _______ _____ _____    ______ ____
ROOT
ATOM      1  C   UNL     1       3.479   6.378  17.691  0.00  0.00    +0.000 A 
ATOM      2  C   UNL     1       3.645   7.715  17.369  0.00  0.00    +0.000 A 
ATOM      3  C   UNL     1       2.921   8.680  18.060  0.00  0.00    +0.000 A 
ATOM      4  C   UNL     1       1.996   8.348  19.076  0.00  0.00    +0.000 A 
ATOM      5  N   UNL     1       1.826   7.041  19.429  0.00  0.00    +0.000 NA
ATOM      6  C   UNL     1       2.578   6.074  18.754  0.00  0.00    +0.000 A 
ENDROOT
BRANCH   4   7
ATOM      7  C   UNL     1       1.138   9.513  19.576  0.00  0.00    +0.000 A 
ATOM      8  N   UNL     1       0.126   9.097  20.383  0.00  0.00    +0.000 NA
ATOM      9  N   UNL     1      -0.552  10.162  20.740  0.00  0.00    +0.000 N 
ATOM     10  C   UNL     1      -0.056  11.329  20.251  0.00  0.00    +0.000 A 
ATOM     11  C   UNL     1      -0.527  12.597  20.483  0.00  0.00    +0.000 A 
ATOM     12  N   UNL     1       0.075  13.628  19.901  0.00  0.00    +0.000 NA
ATOM     13  C   UNL     1       1.143  13.441  19.086  0.00  0.00    +0.000 A 
ATOM     14  C   UNL     1       1.662  12.133  18.818  0.00  0.00    +0.000 A 
ATOM     15  C   UNL     1       1.043  10.995  19.452  0.00  0.00    +0.000 A 
ATOM     16  H   UNL     1      -1.373  10.041  21.327  0.00  0.00    +0.000 HD
BRANCH  13  17
ATOM     17  C   UNL     1       1.658  14.773  18.609  0.00  0.00    +0.000 A 
ATOM     18  C   UNL     1       2.912  14.866  17.943  0.00  0.00    +0.000 A 
ATOM     19  C   UNL     1       3.392  16.072  17.408  0.00  0.00    +0.000 A 
ATOM     20  C   UNL     1       2.615  17.192  17.577  0.00  0.00    +0.000 A 
ATOM     21  N   UNL     1       1.435  17.184  18.233  0.00  0.00    +0.000 NA
ATOM     22  C   UNL     1       0.995  15.982  18.720  0.00  0.00    +0.000 A 
ENDBRANCH  13  17
ENDBRANCH   4   7
BRANCH   6  23
ATOM     23  N   UNL     1       2.424   4.700  19.064  0.00  0.00    +0.000 N 
ATOM     24  C   UNL     1       1.463   3.969  18.241  0.00  0.00    +0.000 C 
ATOM     25  C   UNL     1       1.702   2.461  18.422  0.00  0.00    +0.000 C 
ATOM     26  C   UNL     1       1.685   2.028  19.890  0.00  0.00    +0.000 C 
ATOM     27  C   UNL     1       2.621   2.899  20.742  0.00  0.00    +0.000 C 
ATOM     28  C   UNL     1       2.304   4.398  20.507  0.00  0.00    +0.000 C 
BRANCH  27  29
ATOM     29  N   UNL     1       2.523   2.473  22.145  0.00  0.00    +0.000 NA
ATOM     30  H   UNL     1       2.370   3.276  22.752  0.00  0.00    +0.000 HD
ATOM     31  H   UNL     1       3.393   2.037  22.443  0.00  0.00    +0.000 HD
ENDBRANCH  27  29
ENDBRANCH   6  23
BRANCH   1  33
ATOM     32  C   UNL     1       5.264   5.869  15.859  0.00  0.00    +0.000 C 
ATOM     33  C   UNL     1       4.299   5.345  16.923  0.00  0.00    +0.000 C 
ENDBRANCH   1  33
TORSDOF 5
ENDMDL
MODEL 9
REMARK VINA RESULT:      -7.7      1.965      9.401
REMARK  Name = 
REMARK  6 active torsions:
REMARK  status: ('A' for Active; 'I' for Inactive)
REMARK    1  A    between atoms: C_1  and  C_2
REMARK    2  A    between atoms: C_2  and  C_3
REMARK    3  A    between atoms: C_6  and  C_7
REMARK    4  A    between atoms: C_13  and  C_14
REMARK    5  A    between atoms: C_23  and  N_24
REMARK    6  A    between atoms: C_28  and  N_29
REMARK                            x       y       z     vdW  Elec       q    Type
REMARK                         _______ _______ _______ _____ _____    ______ ____
ROOT
ATOM      1  C   UNL     1       3.178   4.314  19.960  0.00  0.00    +0.000 A 
ATOM      2  C   UNL     1       2.067   4.475  20.771  0.00  0.00    +0.000 A 
ATOM      3  C   UNL     1       1.473   5.728  20.875  0.00  0.00    +0.000 A 
ATOM      4  C   UNL     1       1.973   6.862  20.195  0.00  0.00    +0.000 A 
ATOM      5  N   UNL     1       3.054   6.729  19.373  0.00  0.00    +0.000 NA
ATOM      6  C   UNL     1       3.632   5.463  19.245  0.00  0.00    +0.000 A 
ENDROOT
BRANCH   4   7
ATOM      7  C   UNL     1       1.328   8.192  20.593  0.00  0.00    +0.000 A 
ATOM      8  N   UNL     1       1.867   8.704  21.733  0.00  0.00    +0.000 NA
ATOM      9  N   UNL     1       1.238   9.826  21.992  0.00  0.00    +0.000 N 
ATOM     10  C   UNL     1       0.293  10.160  21.075  0.00  0.00    +0.000 A 
ATOM     11  C   UNL     1      -0.494  11.285  21.060  0.00  0.00    +0.000 A 
ATOM     12  N   UNL     1      -1.387  11.438  20.090  0.00  0.00    +0.000 NA
ATOM     13  C   UNL     1      -1.529  10.501  19.120  0.00  0.00    +0.000 A 
ATOM     14  C   UNL     1      -0.730   9.313  19.102  0.00  0.00    +0.000 A 
ATOM     15  C   UNL     1       0.265   9.127  20.131  0.00  0.00    +0.000 A 
ATOM     16  H   UNL     1       1.488  10.339  22.832  0.00  0.00    +0.000 HD
BRANCH  13  17
ATOM     17  C   UNL     1      -2.567  10.952  18.125  0.00  0.00    +0.000 A 
ATOM     18  C   UNL     1      -2.386  10.711  16.734  0.00  0.00    +0.000 A 
ATOM     19  C   UNL     1      -3.362  11.039  15.781  0.00  0.00    +0.000 A 
ATOM     20  C   UNL     1      -4.512  11.639  16.234  0.00  0.00    +0.000 A 
ATOM     21  N   UNL     1      -4.732  11.932  17.534  0.00  0.00    +0.000 NA
ATOM     22  C   UNL     1      -3.761  11.577  18.433  0.00  0.00    +0.000 A 
ENDBRANCH  13  17
ENDBRANCH   4   7
BRANCH   6  23
ATOM     23  N   UNL     1       4.770   5.273  18.422  0.00  0.00    +0.000 N 
ATOM     24  C   UNL     1       6.063   5.436  19.082  0.00  0.00    +0.000 C 
ATOM     25  C   UNL     1       7.154   4.819  18.192  0.00  0.00    +0.000 C 
ATOM     26  C   UNL     1       7.138   5.368  16.764  0.00  0.00    +0.000 C 
ATOM     27  C   UNL     1       5.733   5.286  16.148  0.00  0.00    +0.000 C 
ATOM     28  C   UNL     1       4.701   5.938  17.102  0.00  0.00    +0.000 C 
BRANCH  27  29
ATOM     29  N   UNL     1       5.768   5.874  14.802  0.00  0.00    +0.000 NA
ATOM     30  H   UNL     1       5.809   6.890  14.858  0.00  0.00    +0.000 HD
ATOM     31  H   UNL     1       4.919   5.638  14.292  0.00  0.00    +0.000 HD
ENDBRANCH  27  29
ENDBRANCH   6  23
BRANCH   1  33
ATOM     32  C   UNL     1       3.223   1.979  18.800  0.00  0.00    +0.000 C 
ATOM     33  C   UNL     1       3.799   2.924  19.856  0.00  0.00    +0.000 C 
ENDBRANCH   1  33
TORSDOF 5
ENDMDL
