MODEL 1
REMARK VINA RESULT:      -9.3      0.000      0.000
REMARK  Name = 
REMARK  4 active torsions:
REMARK  status: ('A' for Active; 'I' for Inactive)
REMARK    1  A    between atoms: C_2  and  C_3
REMARK    2  A    between atoms: C_4  and  C_5
REMARK    3  A    between atoms: C_6  and  C_7
REMARK    4  A    between atoms: C_10  and  N_11
REMARK                            x       y       z     vdW  Elec       q    Type
REMARK                         _______ _______ _______ _____ _____    ______ ____
ROOT
ATOM      1  C   UNL     1       7.394   7.043  17.127  0.00  0.00    +0.000 C 
ATOM      2  C   UNL     1       7.969   7.579  18.245  0.00  0.00    +0.000 C 
ENDROOT
BRANCH   1   4
ATOM      3  O   UNL     1       7.661   4.827  16.207  0.00  0.00    +0.000 OA
ATOM      4  C   UNL     1       6.883   5.656  16.659  0.00  0.00    +0.000 C 
ATOM      5  N   UNL     1       5.494   5.218  17.094  0.00  0.00    +0.000 N 
ATOM      6  N   UNL     1       4.730   6.312  16.880  0.00  0.00    +0.000 NA
ATOM      7  N   UNL     1       3.933   6.296  17.876  0.00  0.00    +0.000 NA
ATOM      8  C   UNL     1       3.501   5.038  17.854  0.00  0.00    +0.000 A 
ATOM      9  C   UNL     1       2.103   4.933  18.190  0.00  0.00    +0.000 A 
ATOM     10  C   UNL     1       1.330   3.796  18.179  0.00  0.00    +0.000 A 
ATOM     11  C   UNL     1       2.036   2.690  17.889  0.00  0.00    +0.000 A 
ATOM     12  C   UNL     1       3.499   2.833  17.562  0.00  0.00    +0.000 A 
ATOM     13  C   UNL     1       4.522   4.016  17.321  0.00  0.00    +0.000 A 
ENDBRANCH   1   4
BRANCH   2  14
ATOM     14  C   UNL     1       8.435   8.976  18.143  0.00  0.00    +0.000 C 
ATOM     15  C   UNL     1       9.134   9.684  19.059  0.00  0.00    +0.000 C 
BRANCH  15  16
ATOM     16  C   UNL     1       9.588  11.083  18.816  0.00  0.00    +0.000 A 
ATOM     17  C   UNL     1       8.908  11.904  17.901  0.00  0.00    +0.000 A 
ATOM     18  C   UNL     1       9.400  13.177  17.556  0.00  0.00    +0.000 A 
ATOM     19  C   UNL     1      10.523  13.691  18.222  0.00  0.00    +0.000 A 
ATOM     20  C   UNL     1      11.199  12.907  19.157  0.00  0.00    +0.000 A 
ATOM     21  C   UNL     1      10.736  11.612  19.439  0.00  0.00    +0.000 A 
BRANCH  19  22
ATOM     22  N   UNL     1      10.951  15.076  17.992  0.00  0.00    +0.000 N 
ATOM     23  O   UNL     1      11.435  15.693  18.959  0.00  0.00    +0.000 OA
ATOM     24  O   UNL     1      10.843  15.544  16.850  0.00  0.00    +0.000 OA
ENDBRANCH  19  22
ENDBRANCH  15  16
ENDBRANCH   2  14
TORSDOF 4
ENDMDL
MODEL 2
REMARK VINA RESULT:      -9.0      1.417      1.715
REMARK  Name = 
REMARK  4 active torsions:
REMARK  status: ('A' for Active; 'I' for Inactive)
REMARK    1  A    between atoms: C_2  and  C_3
REMARK    2  A    between atoms: C_4  and  C_5
REMARK    3  A    between atoms: C_6  and  C_7
REMARK    4  A    between atoms: C_10  and  N_11
REMARK                            x       y       z     vdW  Elec       q    Type
REMARK                         _______ _______ _______ _____ _____    ______ ____
ROOT
ATOM      1  C   UNL     1       6.037   7.141  17.072  0.00  0.00    +0.000 C 
ATOM      2  C   UNL     1       7.363   7.211  17.396  0.00  0.00    +0.000 C 
ENDROOT
BRANCH   1   4
ATOM      3  O   UNL     1       5.270   5.555  15.422  0.00  0.00    +0.000 OA
ATOM      4  C   UNL     1       5.054   6.086  16.503  0.00  0.00    +0.000 C 
ATOM      5  N   UNL     1       4.034   5.470  17.447  0.00  0.00    +0.000 N 
ATOM      6  N   UNL     1       3.546   6.530  18.129  0.00  0.00    +0.000 NA
ATOM      7  N   UNL     1       3.403   6.062  19.307  0.00  0.00    +0.000 NA
ATOM      8  C   UNL     1       2.746   4.930  19.070  0.00  0.00    +0.000 A 
ATOM      9  C   UNL     1       1.744   4.657  20.070  0.00  0.00    +0.000 A 
ATOM     10  C   UNL     1       0.840   3.621  20.078  0.00  0.00    +0.000 A 
ATOM     11  C   UNL     1       1.017   2.769  19.054  0.00  0.00    +0.000 A 
ATOM     12  C   UNL     1       2.085   3.074  18.037  0.00  0.00    +0.000 A 
ATOM     13  C   UNL     1       3.075   4.266  17.720  0.00  0.00    +0.000 A 
ENDBRANCH   1   4
BRANCH   2  14
ATOM     14  C   UNL     1       7.882   8.541  17.772  0.00  0.00    +0.000 C 
ATOM     15  C   UNL     1       8.761   8.837  18.756  0.00  0.00    +0.000 C 
BRANCH  15  16
ATOM     16  C   UNL     1       9.245  10.224  19.008  0.00  0.00    +0.000 A 
ATOM     17  C   UNL     1       9.621  11.054  17.937  0.00  0.00    +0.000 A 
ATOM     18  C   UNL     1      10.207  12.314  18.161  0.00  0.00    +0.000 A 
ATOM     19  C   UNL     1      10.314  12.808  19.469  0.00  0.00    +0.000 A 
ATOM     20  C   UNL     1       9.920  12.016  20.548  0.00  0.00    +0.000 A 
ATOM     21  C   UNL     1       9.401  10.733  20.313  0.00  0.00    +0.000 A 
BRANCH  19  22
ATOM     22  N   UNL     1      10.771  14.182  19.708  0.00  0.00    +0.000 N 
ATOM     23  O   UNL     1      11.984  14.415  19.559  0.00  0.00    +0.000 OA
ATOM     24  O   UNL     1       9.928  15.039  20.008  0.00  0.00    +0.000 OA
ENDBRANCH  19  22
ENDBRANCH  15  16
ENDBRANCH   2  14
TORSDOF 4
ENDMDL
MODEL 3
REMARK VINA RESULT:      -8.9      1.199      1.785
REMARK  Name = 
REMARK  4 active torsions:
REMARK  status: ('A' for Active; 'I' for Inactive)
REMARK    1  A    between atoms: C_2  and  C_3
REMARK    2  A    between atoms: C_4  and  C_5
REMARK    3  A    between atoms: C_6  and  C_7
REMARK    4  A    between atoms: C_10  and  N_11
REMARK                            x       y       z     vdW  Elec       q    Type
REMARK                         _______ _______ _______ _____ _____    ______ ____
ROOT
ATOM      1  C   UNL     1       6.095   7.040  16.895  0.00  0.00    +0.000 C 
ATOM      2  C   UNL     1       7.323   7.133  17.487  0.00  0.00    +0.000 C 
ENDROOT
BRANCH   1   4
ATOM      3  O   UNL     1       5.418   5.303  15.362  0.00  0.00    +0.000 OA
ATOM      4  C   UNL     1       5.155   5.917  16.386  0.00  0.00    +0.000 C 
ATOM      5  N   UNL     1       4.118   5.358  17.347  0.00  0.00    +0.000 N 
ATOM      6  N   UNL     1       3.584   6.458  17.921  0.00  0.00    +0.000 NA
ATOM      7  N   UNL     1       3.411   6.088  19.130  0.00  0.00    +0.000 NA
ATOM      8  C   UNL     1       2.787   4.924  18.968  0.00  0.00    +0.000 A 
ATOM      9  C   UNL     1       1.759   4.711  19.956  0.00  0.00    +0.000 A 
ATOM     10  C   UNL     1       0.878   3.658  20.023  0.00  0.00    +0.000 A 
ATOM     11  C   UNL     1       1.108   2.727  19.081  0.00  0.00    +0.000 A 
ATOM     12  C   UNL     1       2.202   2.972  18.075  0.00  0.00    +0.000 A 
ATOM     13  C   UNL     1       3.176   4.158  17.690  0.00  0.00    +0.000 A 
ENDBRANCH   1   4
BRANCH   2  14
ATOM     14  C   UNL     1       7.880   8.492  17.643  0.00  0.00    +0.000 C 
ATOM     15  C   UNL     1       8.604   8.976  18.677  0.00  0.00    +0.000 C 
BRANCH  15  16
ATOM     16  C   UNL     1       9.152  10.362  18.694  0.00  0.00    +0.000 A 
ATOM     17  C   UNL     1      10.116  10.736  19.645  0.00  0.00    +0.000 A 
ATOM     18  C   UNL     1      10.545  12.072  19.764  0.00  0.00    +0.000 A 
ATOM     19  C   UNL     1      10.095  13.029  18.843  0.00  0.00    +0.000 A 
ATOM     20  C   UNL     1       9.160  12.676  17.870  0.00  0.00    +0.000 A 
ATOM     21  C   UNL     1       8.690  11.355  17.808  0.00  0.00    +0.000 A 
BRANCH  19  22
ATOM     22  N   UNL     1      10.655  14.386  18.852  0.00  0.00    +0.000 N 
ATOM     23  O   UNL     1      10.480  15.084  17.836  0.00  0.00    +0.000 OA
ATOM     24  O   UNL     1      11.237  14.776  19.874  0.00  0.00    +0.000 OA
ENDBRANCH  19  22
ENDBRANCH  15  16
ENDBRANCH   2  14
TORSDOF 4
ENDMDL
MODEL 4
REMARK VINA RESULT:      -8.8      0.790      1.190
REMARK  Name = 
REMARK  4 active torsions:
REMARK  status: ('A' for Active; 'I' for Inactive)
REMARK    1  A    between atoms: C_2  and  C_3
REMARK    2  A    between atoms: C_4  and  C_5
REMARK    3  A    between atoms: C_6  and  C_7
REMARK    4  A    between atoms: C_10  and  N_11
REMARK                            x       y       z     vdW  Elec       q    Type
REMARK                         _______ _______ _______ _____ _____    ______ ____
ROOT
ATOM      1  C   UNL     1       7.325   7.118  17.304  0.00  0.00    +0.000 C 
ATOM      2  C   UNL     1       8.156   7.590  18.281  0.00  0.00    +0.000 C 
ENDROOT
BRANCH   1   4
ATOM      3  O   UNL     1       7.652   4.954  16.287  0.00  0.00    +0.000 OA
ATOM      4  C   UNL     1       6.852   5.740  16.775  0.00  0.00    +0.000 C 
ATOM      5  N   UNL     1       5.476   5.244  17.191  0.00  0.00    +0.000 N 
ATOM      6  N   UNL     1       4.682   6.325  17.026  0.00  0.00    +0.000 NA
ATOM      7  N   UNL     1       3.887   6.242  18.022  0.00  0.00    +0.000 NA
ATOM      8  C   UNL     1       3.490   4.975  17.944  0.00  0.00    +0.000 A 
ATOM      9  C   UNL     1       2.096   4.816  18.276  0.00  0.00    +0.000 A 
ATOM     10  C   UNL     1       1.355   3.660  18.215  0.00  0.00    +0.000 A 
ATOM     11  C   UNL     1       2.092   2.587  17.876  0.00  0.00    +0.000 A 
ATOM     12  C   UNL     1       3.550   2.785  17.554  0.00  0.00    +0.000 A 
ATOM     13  C   UNL     1       4.538   4.006  17.366  0.00  0.00    +0.000 A 
ENDBRANCH   1   4
BRANCH   2  14
ATOM     14  C   UNL     1       8.407   9.045  18.289  0.00  0.00    +0.000 C 
ATOM     15  C   UNL     1       9.181   9.746  19.148  0.00  0.00    +0.000 C 
BRANCH  15  16
ATOM     16  C   UNL     1       9.392  11.216  19.020  0.00  0.00    +0.000 A 
ATOM     17  C   UNL     1       9.791  11.979  20.131  0.00  0.00    +0.000 A 
ATOM     18  C   UNL     1       9.863  13.383  20.065  0.00  0.00    +0.000 A 
ATOM     19  C   UNL     1       9.651  14.032  18.840  0.00  0.00    +0.000 A 
ATOM     20  C   UNL     1       9.283  13.295  17.714  0.00  0.00    +0.000 A 
ATOM     21  C   UNL     1       9.147  11.901  17.813  0.00  0.00    +0.000 A 
BRANCH  19  22
ATOM     22  N   UNL     1       9.881  15.477  18.716  0.00  0.00    +0.000 N 
ATOM     23  O   UNL     1       9.159  16.231  19.393  0.00  0.00    +0.000 OA
ATOM     24  O   UNL     1      10.797  15.865  17.978  0.00  0.00    +0.000 OA
ENDBRANCH  19  22
ENDBRANCH  15  16
ENDBRANCH   2  14
TORSDOF 4
ENDMDL
MODEL 5
REMARK VINA RESULT:      -8.8      1.121      1.545
REMARK  Name = 
REMARK  4 active torsions:
REMARK  status: ('A' for Active; 'I' for Inactive)
REMARK    1  A    between atoms: C_2  and  C_3
REMARK    2  A    between atoms: C_4  and  C_5
REMARK    3  A    between atoms: C_6  and  C_7
REMARK    4  A    between atoms: C_10  and  N_11
REMARK                            x       y       z     vdW  Elec       q    Type
REMARK                         _______ _______ _______ _____ _____    ______ ____
ROOT
ATOM      1  C   UNL     1       6.846   6.610  17.448  0.00  0.00    +0.000 C 
ATOM      2  C   UNL     1       7.814   7.118  18.268  0.00  0.00    +0.000 C 
ENDROOT
BRANCH   1   4
ATOM      3  O   UNL     1       6.783   4.363  16.567  0.00  0.00    +0.000 OA
ATOM      4  C   UNL     1       6.182   5.235  17.180  0.00  0.00    +0.000 C 
ATOM      5  N   UNL     1       4.946   4.866  17.984  0.00  0.00    +0.000 N 
ATOM      6  N   UNL     1       4.189   5.984  17.944  0.00  0.00    +0.000 NA
ATOM      7  N   UNL     1       3.688   6.026  19.116  0.00  0.00    +0.000 NA
ATOM      8  C   UNL     1       3.223   4.787  19.254  0.00  0.00    +0.000 A 
ATOM      9  C   UNL     1       1.963   4.748  19.953  0.00  0.00    +0.000 A 
ATOM     10  C   UNL     1       1.177   3.644  20.187  0.00  0.00    +0.000 A 
ATOM     11  C   UNL     1       1.743   2.503  19.758  0.00  0.00    +0.000 A 
ATOM     12  C   UNL     1       3.070   2.577  19.048  0.00  0.00    +0.000 A 
ATOM     13  C   UNL     1       4.030   3.710  18.503  0.00  0.00    +0.000 A 
ENDBRANCH   1   4
BRANCH   2  14
ATOM     14  C   UNL     1       8.215   8.519  18.028  0.00  0.00    +0.000 C 
ATOM     15  C   UNL     1       8.957   9.316  18.829  0.00  0.00    +0.000 C 
BRANCH  15  16
ATOM     16  C   UNL     1       9.335  10.707  18.449  0.00  0.00    +0.000 A 
ATOM     17  C   UNL     1      10.609  11.210  18.761  0.00  0.00    +0.000 A 
ATOM     18  C   UNL     1      10.937  12.560  18.533  0.00  0.00    +0.000 A 
ATOM     19  C   UNL     1      10.022  13.395  17.876  0.00  0.00    +0.000 A 
ATOM     20  C   UNL     1       8.760  12.912  17.529  0.00  0.00    +0.000 A 
ATOM     21  C   UNL     1       8.423  11.581  17.826  0.00  0.00    +0.000 A 
BRANCH  19  22
ATOM     22  N   UNL     1      10.409  14.757  17.487  0.00  0.00    +0.000 N 
ATOM     23  O   UNL     1      11.553  14.917  17.024  0.00  0.00    +0.000 OA
ATOM     24  O   UNL     1       9.571  15.662  17.603  0.00  0.00    +0.000 OA
ENDBRANCH  19  22
ENDBRANCH  15  16
ENDBRANCH   2  14
TORSDOF 4
ENDMDL
MODEL 6
REMARK VINA RESULT:      -8.8      1.750      2.131
REMARK  Name = 
REMARK  4 active torsions:
REMARK  status: ('A' for Active; 'I' for Inactive)
REMARK    1  A    between atoms: C_2  and  C_3
REMARK    2  A    between atoms: C_4  and  C_5
REMARK    3  A    between atoms: C_6  and  C_7
REMARK    4  A    between atoms: C_10  and  N_11
REMARK                            x       y       z     vdW  Elec       q    Type
REMARK                         _______ _______ _______ _____ _____    ______ ____
ROOT
ATOM      1  C   UNL     1       7.424   6.613  18.234  0.00  0.00    +0.000 C 
ATOM      2  C   UNL     1       7.527   7.635  17.333  0.00  0.00    +0.000 C 
ENDROOT
BRANCH   1   4
ATOM      3  O   UNL     1       7.699   4.220  18.068  0.00  0.00    +0.000 OA
ATOM      4  C   UNL     1       6.919   5.147  18.244  0.00  0.00    +0.000 C 
ATOM      5  N   UNL     1       5.541   4.865  18.820  0.00  0.00    +0.000 N 
ATOM      6  N   UNL     1       4.763   5.829  18.280  0.00  0.00    +0.000 NA
ATOM      7  N   UNL     1       3.982   6.129  19.243  0.00  0.00    +0.000 NA
ATOM      8  C   UNL     1       3.561   4.929  19.633  0.00  0.00    +0.000 A 
ATOM      9  C   UNL     1       2.170   4.931  20.009  0.00  0.00    +0.000 A 
ATOM     10  C   UNL     1       1.408   3.847  20.376  0.00  0.00    +0.000 A 
ATOM     11  C   UNL     1       2.121   2.709  20.444  0.00  0.00    +0.000 A 
ATOM     12  C   UNL     1       3.577   2.746  20.063  0.00  0.00    +0.000 A 
ATOM     13  C   UNL     1       4.585   3.794  19.438  0.00  0.00    +0.000 A 
ENDBRANCH   1   4
BRANCH   2  14
ATOM     14  C   UNL     1       7.949   8.946  17.867  0.00  0.00    +0.000 C 
ATOM     15  C   UNL     1       8.941   9.199  18.750  0.00  0.00    +0.000 C 
BRANCH  15  16
ATOM     16  C   UNL     1       9.301  10.581  19.178  0.00  0.00    +0.000 A 
ATOM     17  C   UNL     1       9.445  10.890  20.541  0.00  0.00    +0.000 A 
ATOM     18  C   UNL     1       9.649  12.215  20.972  0.00  0.00    +0.000 A 
ATOM     19  C   UNL     1       9.831  13.232  20.024  0.00  0.00    +0.000 A 
ATOM     20  C   UNL     1       9.722  12.946  18.663  0.00  0.00    +0.000 A 
ATOM     21  C   UNL     1       9.449  11.632  18.251  0.00  0.00    +0.000 A 
BRANCH  19  22
ATOM     22  N   UNL     1      10.205  14.586  20.452  0.00  0.00    +0.000 N 
ATOM     23  O   UNL     1      10.280  15.464  19.573  0.00  0.00    +0.000 OA
ATOM     24  O   UNL     1      10.391  14.791  21.660  0.00  0.00    +0.000 OA
ENDBRANCH  19  22
ENDBRANCH  15  16
ENDBRANCH   2  14
TORSDOF 4
ENDMDL
MODEL 7
REMARK VINA RESULT:      -8.8      1.638      1.789
REMARK  Name = 
REMARK  4 active torsions:
REMARK  status: ('A' for Active; 'I' for Inactive)
REMARK    1  A    between atoms: C_2  and  C_3
REMARK    2  A    between atoms: C_4  and  C_5
REMARK    3  A    between atoms: C_6  and  C_7
REMARK    4  A    between atoms: C_10  and  N_11
REMARK                            x       y       z     vdW  Elec       q    Type
REMARK                         _______ _______ _______ _____ _____    ______ ____
ROOT
ATOM      1  C   UNL     1       7.538   6.618  18.165  0.00  0.00    +0.000 C 
ATOM      2  C   UNL     1       7.564   7.603  17.217  0.00  0.00    +0.000 C 
ENDROOT
BRANCH   1   4
ATOM      3  O   UNL     1       7.920   4.235  18.196  0.00  0.00    +0.000 OA
ATOM      4  C   UNL     1       7.095   5.136  18.259  0.00  0.00    +0.000 C 
ATOM      5  N   UNL     1       5.699   4.835  18.781  0.00  0.00    +0.000 N 
ATOM      6  N   UNL     1       4.914   5.720  18.130  0.00  0.00    +0.000 NA
ATOM      7  N   UNL     1       4.068   6.055  19.025  0.00  0.00    +0.000 NA
ATOM      8  C   UNL     1       3.676   4.869  19.482  0.00  0.00    +0.000 A 
ATOM      9  C   UNL     1       2.267   4.835  19.783  0.00  0.00    +0.000 A 
ATOM     10  C   UNL     1       1.531   3.747  20.190  0.00  0.00    +0.000 A 
ATOM     11  C   UNL     1       2.285   2.651  20.381  0.00  0.00    +0.000 A 
ATOM     12  C   UNL     1       3.758   2.726  20.075  0.00  0.00    +0.000 A 
ATOM     13  C   UNL     1       4.754   3.770  19.427  0.00  0.00    +0.000 A 
ENDBRANCH   1   4
BRANCH   2  14
ATOM     14  C   UNL     1       7.952   8.951  17.676  0.00  0.00    +0.000 C 
ATOM     15  C   UNL     1       8.779   9.272  18.698  0.00  0.00    +0.000 C 
BRANCH  15  16
ATOM     16  C   UNL     1       9.130  10.681  19.034  0.00  0.00    +0.000 A 
ATOM     17  C   UNL     1       9.064  11.685  18.053  0.00  0.00    +0.000 A 
ATOM     18  C   UNL     1       9.520  12.991  18.314  0.00  0.00    +0.000 A 
ATOM     19  C   UNL     1       9.938  13.335  19.608  0.00  0.00    +0.000 A 
ATOM     20  C   UNL     1       9.984  12.363  20.608  0.00  0.00    +0.000 A 
ATOM     21  C   UNL     1       9.592  11.047  20.314  0.00  0.00    +0.000 A 
BRANCH  19  22
ATOM     22  N   UNL     1      10.262  14.729  19.937  0.00  0.00    +0.000 N 
ATOM     23  O   UNL     1       9.495  15.610  19.508  0.00  0.00    +0.000 OA
ATOM     24  O   UNL     1      11.252  14.951  20.648  0.00  0.00    +0.000 OA
ENDBRANCH  19  22
ENDBRANCH  15  16
ENDBRANCH   2  14
TORSDOF 4
ENDMDL
MODEL 8
REMARK VINA RESULT:      -8.8      1.368      1.802
REMARK  Name = 
REMARK  4 active torsions:
REMARK  status: ('A' for Active; 'I' for Inactive)
REMARK    1  A    between atoms: C_2  and  C_3
REMARK    2  A    between atoms: C_4  and  C_5
REMARK    3  A    between atoms: C_6  and  C_7
REMARK    4  A    between atoms: C_10  and  N_11
REMARK                            x       y       z     vdW  Elec       q    Type
REMARK                         _______ _______ _______ _____ _____    ______ ____
ROOT
ATOM      1  C   UNL     1       7.695   6.741  18.079  0.00  0.00    +0.000 C 
ATOM      2  C   UNL     1       7.589   7.849  17.285  0.00  0.00    +0.000 C 
ENDROOT
BRANCH   1   4
ATOM      3  O   UNL     1       8.047   4.359  18.247  0.00  0.00    +0.000 OA
ATOM      4  C   UNL     1       7.246   5.259  18.035  0.00  0.00    +0.000 C 
ATOM      5  N   UNL     1       5.756   4.958  18.082  0.00  0.00    +0.000 N 
ATOM      6  N   UNL     1       5.223   5.837  17.206  0.00  0.00    +0.000 NA
ATOM      7  N   UNL     1       4.133   6.176  17.777  0.00  0.00    +0.000 NA
ATOM      8  C   UNL     1       3.615   4.992  18.092  0.00  0.00    +0.000 A 
ATOM      9  C   UNL     1       2.184   4.956  17.923  0.00  0.00    +0.000 A 
ATOM     10  C   UNL     1       1.356   3.870  18.078  0.00  0.00    +0.000 A 
ATOM     11  C   UNL     1       2.009   2.777  18.510  0.00  0.00    +0.000 A 
ATOM     12  C   UNL     1       3.502   2.853  18.695  0.00  0.00    +0.000 A 
ATOM     13  C   UNL     1       4.654   3.895  18.396  0.00  0.00    +0.000 A 
ENDBRANCH   1   4
BRANCH   2  14
ATOM     14  C   UNL     1       8.070   9.122  17.860  0.00  0.00    +0.000 C 
ATOM     15  C   UNL     1       8.956   9.292  18.867  0.00  0.00    +0.000 C 
BRANCH  15  16
ATOM     16  C   UNL     1       9.397  10.640  19.327  0.00  0.00    +0.000 A 
ATOM     17  C   UNL     1       9.457  10.941  20.699  0.00  0.00    +0.000 A 
ATOM     18  C   UNL     1       9.739  12.244  21.148  0.00  0.00    +0.000 A 
ATOM     19  C   UNL     1      10.084  13.239  20.222  0.00  0.00    +0.000 A 
ATOM     20  C   UNL     1      10.062  12.958  18.856  0.00  0.00    +0.000 A 
ATOM     21  C   UNL     1       9.711  11.670  18.419  0.00  0.00    +0.000 A 
BRANCH  19  22
ATOM     22  N   UNL     1      10.538  14.557  20.683  0.00  0.00    +0.000 N 
ATOM     23  O   UNL     1      11.597  14.998  20.201  0.00  0.00    +0.000 OA
ATOM     24  O   UNL     1       9.831  15.171  21.494  0.00  0.00    +0.000 OA
ENDBRANCH  19  22
ENDBRANCH  15  16
ENDBRANCH   2  14
TORSDOF 4
ENDMDL
MODEL 9
REMARK VINA RESULT:      -8.8      1.210      1.396
REMARK  Name = 
REMARK  4 active torsions:
REMARK  status: ('A' for Active; 'I' for Inactive)
REMARK    1  A    between atoms: C_2  and  C_3
REMARK    2  A    between atoms: C_4  and  C_5
REMARK    3  A    between atoms: C_6  and  C_7
REMARK    4  A    between atoms: C_10  and  N_11
REMARK                            x       y       z     vdW  Elec       q    Type
REMARK                         _______ _______ _______ _____ _____    ______ ____
ROOT
ATOM      1  C   UNL     1       6.053   7.121  16.882  0.00  0.00    +0.000 C 
ATOM      2  C   UNL     1       7.271   7.216  17.494  0.00  0.00    +0.000 C 
ENDROOT
BRANCH   1   4
ATOM      3  O   UNL     1       5.289   5.343  15.439  0.00  0.00    +0.000 OA
ATOM      4  C   UNL     1       5.076   5.997  16.451  0.00  0.00    +0.000 C 
ATOM      5  N   UNL     1       4.070   5.489  17.471  0.00  0.00    +0.000 N 
ATOM      6  N   UNL     1       3.577   6.618  18.026  0.00  0.00    +0.000 NA
ATOM      7  N   UNL     1       3.447   6.293  19.253  0.00  0.00    +0.000 NA
ATOM      8  C   UNL     1       2.800   5.135  19.158  0.00  0.00    +0.000 A 
ATOM      9  C   UNL     1       1.809   4.974  20.193  0.00  0.00    +0.000 A 
ATOM     10  C   UNL     1       0.915   3.939  20.332  0.00  0.00    +0.000 A 
ATOM     11  C   UNL     1       1.092   2.972  19.415  0.00  0.00    +0.000 A 
ATOM     12  C   UNL     1       2.149   3.163  18.360  0.00  0.00    +0.000 A 
ATOM     13  C   UNL     1       3.125   4.318  17.894  0.00  0.00    +0.000 A 
ENDBRANCH   1   4
BRANCH   2  14
ATOM     14  C   UNL     1       7.883   8.559  17.542  0.00  0.00    +0.000 C 
ATOM     15  C   UNL     1       8.497   9.151  18.592  0.00  0.00    +0.000 C 
BRANCH  15  16
ATOM     16  C   UNL     1       9.120  10.502  18.499  0.00  0.00    +0.000 A 
ATOM     17  C   UNL     1       8.475  11.538  17.802  0.00  0.00    +0.000 A 
ATOM     18  C   UNL     1       9.106  12.777  17.588  0.00  0.00    +0.000 A 
ATOM     19  C   UNL     1      10.353  13.033  18.177  0.00  0.00    +0.000 A 
ATOM     20  C   UNL     1      11.001  12.031  18.900  0.00  0.00    +0.000 A 
ATOM     21  C   UNL     1      10.389  10.776  19.047  0.00  0.00    +0.000 A 
BRANCH  19  22
ATOM     22  N   UNL     1      10.950  14.372  18.100  0.00  0.00    +0.000 N 
ATOM     23  O   UNL     1      11.034  15.023  19.157  0.00  0.00    +0.000 OA
ATOM     24  O   UNL     1      11.367  14.767  17.002  0.00  0.00    +0.000 OA
ENDBRANCH  19  22
ENDBRANCH  15  16
ENDBRANCH   2  14
TORSDOF 4
ENDMDL
