MODEL 1
REMARK VINA RESULT:      -7.5      0.000      0.000
REMARK  Name = 
REMARK  11 active torsions:
REMARK  status: ('A' for Active; 'I' for Inactive)
REMARK    1  A    between atoms: C_1  and  N_2
REMARK    2  A    between atoms: N_2  and  C_3
REMARK    3  A    between atoms: N_2  and  C_4
REMARK    4  A    between atoms: C_4  and  C_5
REMARK    5  A    between atoms: C_8  and  C_9
REMARK    6  A    between atoms: C_9  and  N_10
REMARK    7  A    between atoms: N_13  and  C_14
REMARK    8  A    between atoms: C_14  and  C_15
REMARK    9  A    between atoms: C_15  and  O_16
REMARK   10  A    between atoms: O_16  and  C_17
REMARK   11  A    between atoms: C_20  and  C_21
REMARK                            x       y       z     vdW  Elec       q    Type
REMARK                         _______ _______ _______ _____ _____    ______ ____
ROOT
ATOM      1  N   UNL     1       5.080   4.700  18.026  0.00  0.00    +0.000 NA
ATOM      2  C   UNL     1       4.541   6.068  17.925  0.00  0.00    +0.000 C 
ATOM      3  C   UNL     1       3.006   6.200  18.061  0.00  0.00    +0.000 C 
ATOM      4  N   UNL     1       2.332   5.400  19.107  0.00  0.00    +0.000 NA
ATOM      5  C   UNL     1       2.959   4.072  19.254  0.00  0.00    +0.000 C 
ATOM      6  C   UNL     1       4.504   4.069  19.226  0.00  0.00    +0.000 C 
ENDROOT
BRANCH   1   7
ATOM      7  C   UNL     1       4.812   3.899  16.815  0.00  0.00    +0.000 C 
BRANCH   7  11
ATOM      8  C   UNL     1       6.492   4.119  13.649  0.00  0.00    +0.000 A 
ATOM      9  C   UNL     1       7.282   5.047  14.304  0.00  0.00    +0.000 A 
ATOM     10  C   UNL     1       6.836   5.090  15.639  0.00  0.00    +0.000 A 
ATOM     11  C   UNL     1       5.756   4.237  15.711  0.00  0.00    +0.000 A 
ATOM     12  O   UNL     1       5.546   3.634  14.505  0.00  0.00    +0.000 OA
BRANCH   8  13
ATOM     13  C   UNL     1       6.547   3.555  12.271  0.00  0.00    +0.000 C 
BRANCH  13  15
ATOM     14  C   UNL     1       4.345   3.264  11.289  0.00  0.00    +0.000 C 
ATOM     15  N   UNL     1       5.428   2.618  12.039  0.00  0.00    +0.000 NA
ATOM     16  C   UNL     1       5.876   1.418  11.337  0.00  0.00    +0.000 C 
ENDBRANCH  13  15
ENDBRANCH   8  13
ENDBRANCH   7  11
ENDBRANCH   1   7
BRANCH   4  17
ATOM     17  C   UNL     1       2.211   6.084  20.400  0.00  0.00    +0.000 C 
BRANCH  17  18
ATOM     18  C   UNL     1       1.736   7.539  20.260  0.00  0.00    +0.000 C 
BRANCH  18  19
ATOM     19  O   UNL     1       1.623   8.107  21.564  0.00  0.00    +0.000 OA
BRANCH  19  20
ATOM     20  C   UNL     1       0.748   9.153  21.646  0.00  0.00    +0.000 A 
ATOM     21  C   UNL     1       0.147   9.321  22.886  0.00  0.00    +0.000 A 
ATOM     22  C   UNL     1      -0.753  10.366  23.086  0.00  0.00    +0.000 A 
ATOM     23  C   UNL     1      -1.043  11.299  22.073  0.00  0.00    +0.000 A 
ATOM     24  C   UNL     1      -0.406  11.124  20.834  0.00  0.00    +0.000 A 
ATOM     25  C   UNL     1       0.482  10.064  20.618  0.00  0.00    +0.000 A 
BRANCH  23  26
ATOM     26  C   UNL     1      -1.993  12.405  22.323  0.00  0.00    +0.000 A 
ATOM     27  C   UNL     1      -1.907  13.168  23.503  0.00  0.00    +0.000 A 
ATOM     28  C   UNL     1      -2.849  14.150  23.812  0.00  0.00    +0.000 A 
ATOM     29  C   UNL     1      -3.884  14.410  22.921  0.00  0.00    +0.000 A 
ATOM     30 CL   UNL     1      -5.068  15.593  23.311  0.00  0.00    +0.000 Cl
ATOM     31  C   UNL     1      -3.971  13.707  21.723  0.00  0.00    +0.000 A 
ATOM     32  C   UNL     1      -3.033  12.709  21.427  0.00  0.00    +0.000 A 
ENDBRANCH  23  26
ENDBRANCH  19  20
ENDBRANCH  18  19
ENDBRANCH  17  18
ENDBRANCH   4  17
TORSDOF 9
ENDMDL
MODEL 2
REMARK VINA RESULT:      -7.2      2.187      2.681
REMARK  Name = 
REMARK  11 active torsions:
REMARK  status: ('A' for Active; 'I' for Inactive)
REMARK    1  A    between atoms: C_1  and  N_2
REMARK    2  A    between atoms: N_2  and  C_3
REMARK    3  A    between atoms: N_2  and  C_4
REMARK    4  A    between atoms: C_4  and  C_5
REMARK    5  A    between atoms: C_8  and  C_9
REMARK    6  A    between atoms: C_9  and  N_10
REMARK    7  A    between atoms: N_13  and  C_14
REMARK    8  A    between atoms: C_14  and  C_15
REMARK    9  A    between atoms: C_15  and  O_16
REMARK   10  A    between atoms: O_16  and  C_17
REMARK   11  A    between atoms: C_20  and  C_21
REMARK                            x       y       z     vdW  Elec       q    Type
REMARK                         _______ _______ _______ _____ _____    ______ ____
ROOT
ATOM      1  N   UNL     1       5.111   4.766  17.749  0.00  0.00    +0.000 NA
ATOM      2  C   UNL     1       3.901   5.602  17.656  0.00  0.00    +0.000 C 
ATOM      3  C   UNL     1       2.590   4.948  18.150  0.00  0.00    +0.000 C 
ATOM      4  N   UNL     1       2.638   4.157  19.398  0.00  0.00    +0.000 NA
ATOM      5  C   UNL     1       3.905   3.408  19.510  0.00  0.00    +0.000 C 
ATOM      6  C   UNL     1       5.170   4.196  19.106  0.00  0.00    +0.000 C 
ENDROOT
BRANCH   1   7
ATOM      7  C   UNL     1       5.144   3.708  16.719  0.00  0.00    +0.000 C 
BRANCH   7  11
ATOM      8  C   UNL     1       6.529   4.070  13.426  0.00  0.00    +0.000 A 
ATOM      9  C   UNL     1       7.352   4.998  14.039  0.00  0.00    +0.000 A 
ATOM     10  C   UNL     1       7.026   4.988  15.409  0.00  0.00    +0.000 A 
ATOM     11  C   UNL     1       5.977   4.105  15.548  0.00  0.00    +0.000 A 
ATOM     12  O   UNL     1       5.675   3.533  14.346  0.00  0.00    +0.000 OA
BRANCH   8  13
ATOM     13  C   UNL     1       6.474   3.550  12.031  0.00  0.00    +0.000 C 
BRANCH  13  15
ATOM     14  C   UNL     1       4.245   3.078  11.192  0.00  0.00    +0.000 C 
ATOM     15  N   UNL     1       5.414   2.531  11.888  0.00  0.00    +0.000 NA
ATOM     16  C   UNL     1       5.906   1.347  11.188  0.00  0.00    +0.000 C 
ENDBRANCH  13  15
ENDBRANCH   8  13
ENDBRANCH   7  11
ENDBRANCH   1   7
BRANCH   4  17
ATOM     17  C   UNL     1       2.363   4.934  20.612  0.00  0.00    +0.000 C 
BRANCH  17  18
ATOM     18  C   UNL     1       1.259   5.983  20.408  0.00  0.00    +0.000 C 
BRANCH  18  19
ATOM     19  O   UNL     1       1.438   7.022  21.371  0.00  0.00    +0.000 OA
BRANCH  19  20
ATOM     20  C   UNL     1       1.230   8.281  20.882  0.00  0.00    +0.000 A 
ATOM     21  C   UNL     1       0.839   9.222  21.826  0.00  0.00    +0.000 A 
ATOM     22  C   UNL     1       0.613  10.541  21.439  0.00  0.00    +0.000 A 
ATOM     23  C   UNL     1       0.814  10.971  20.114  0.00  0.00    +0.000 A 
ATOM     24  C   UNL     1       1.232  10.009  19.181  0.00  0.00    +0.000 A 
ATOM     25  C   UNL     1       1.440   8.676  19.556  0.00  0.00    +0.000 A 
BRANCH  23  26
ATOM     26  C   UNL     1       0.578  12.382  19.740  0.00  0.00    +0.000 A 
ATOM     27  C   UNL     1      -0.648  13.007  20.045  0.00  0.00    +0.000 A 
ATOM     28  C   UNL     1      -0.936  14.303  19.618  0.00  0.00    +0.000 A 
ATOM     29  C   UNL     1       0.018  15.015  18.900  0.00  0.00    +0.000 A 
ATOM     30 CL   UNL     1      -0.345  16.599  18.340  0.00  0.00    +0.000 Cl
ATOM     31  C   UNL     1       1.256  14.445  18.623  0.00  0.00    +0.000 A 
ATOM     32  C   UNL     1       1.534  13.137  19.039  0.00  0.00    +0.000 A 
ENDBRANCH  23  26
ENDBRANCH  19  20
ENDBRANCH  18  19
ENDBRANCH  17  18
ENDBRANCH   4  17
TORSDOF 9
ENDMDL
MODEL 3
REMARK VINA RESULT:      -7.1      2.212      3.224
REMARK  Name = 
REMARK  11 active torsions:
REMARK  status: ('A' for Active; 'I' for Inactive)
REMARK    1  A    between atoms: C_1  and  N_2
REMARK    2  A    between atoms: N_2  and  C_3
REMARK    3  A    between atoms: N_2  and  C_4
REMARK    4  A    between atoms: C_4  and  C_5
REMARK    5  A    between atoms: C_8  and  C_9
REMARK    6  A    between atoms: C_9  and  N_10
REMARK    7  A    between atoms: N_13  and  C_14
REMARK    8  A    between atoms: C_14  and  C_15
REMARK    9  A    between atoms: C_15  and  O_16
REMARK   10  A    between atoms: O_16  and  C_17
REMARK   11  A    between atoms: C_20  and  C_21
REMARK                            x       y       z     vdW  Elec       q    Type
REMARK                         _______ _______ _______ _____ _____    ______ ____
ROOT
ATOM      1  N   UNL     1       2.472   4.022  17.815  0.00  0.00    +0.000 NA
ATOM      2  C   UNL     1       1.405   3.646  18.760  0.00  0.00    +0.000 C 
ATOM      3  C   UNL     1       1.626   4.072  20.230  0.00  0.00    +0.000 C 
ATOM      4  N   UNL     1       2.160   5.426  20.486  0.00  0.00    +0.000 NA
ATOM      5  C   UNL     1       3.152   5.814  19.465  0.00  0.00    +0.000 C 
ATOM      6  C   UNL     1       2.776   5.450  18.012  0.00  0.00    +0.000 C 
ENDROOT
BRANCH   1   7
ATOM      7  C   UNL     1       3.681   3.188  17.970  0.00  0.00    +0.000 C 
BRANCH   7  11
ATOM      8  C   UNL     1       6.669   4.986  17.117  0.00  0.00    +0.000 A 
ATOM      9  C   UNL     1       6.514   4.361  15.892  0.00  0.00    +0.000 A 
ATOM     10  C   UNL     1       5.322   3.616  15.964  0.00  0.00    +0.000 A 
ATOM     11  C   UNL     1       4.848   3.771  17.250  0.00  0.00    +0.000 A 
ATOM     12  O   UNL     1       5.658   4.613  17.955  0.00  0.00    +0.000 OA
BRANCH   8  13
ATOM     13  C   UNL     1       7.659   5.985  17.611  0.00  0.00    +0.000 C 
BRANCH  13  15
ATOM     14  C   UNL     1       5.898   7.606  17.206  0.00  0.00    +0.000 C 
ATOM     15  N   UNL     1       7.337   7.338  17.113  0.00  0.00    +0.000 NA
ATOM     16  C   UNL     1       8.086   8.362  17.837  0.00  0.00    +0.000 C 
ENDBRANCH  13  15
ENDBRANCH   8  13
ENDBRANCH   7  11
ENDBRANCH   1   7
BRANCH   4  17
ATOM     17  C   UNL     1       1.127   6.457  20.651  0.00  0.00    +0.000 C 
BRANCH  17  18
ATOM     18  C   UNL     1       1.688   7.883  20.539  0.00  0.00    +0.000 C 
BRANCH  18  19
ATOM     19  O   UNL     1       1.662   8.483  21.834  0.00  0.00    +0.000 OA
BRANCH  19  20
ATOM     20  C   UNL     1       0.777   9.517  21.955  0.00  0.00    +0.000 A 
ATOM     21  C   UNL     1      -0.038   9.466  23.078  0.00  0.00    +0.000 A 
ATOM     22  C   UNL     1      -0.969  10.477  23.308  0.00  0.00    +0.000 A 
ATOM     23  C   UNL     1      -1.081  11.590  22.453  0.00  0.00    +0.000 A 
ATOM     24  C   UNL     1      -0.231  11.633  21.337  0.00  0.00    +0.000 A 
ATOM     25  C   UNL     1       0.691  10.610  21.087  0.00  0.00    +0.000 A 
BRANCH  23  26
ATOM     26  C   UNL     1      -2.071  12.653  22.734  0.00  0.00    +0.000 A 
ATOM     27  C   UNL     1      -1.725  13.756  23.540  0.00  0.00    +0.000 A 
ATOM     28  C   UNL     1      -2.665  14.721  23.903  0.00  0.00    +0.000 A 
ATOM     29  C   UNL     1      -3.970  14.615  23.436  0.00  0.00    +0.000 A 
ATOM     30 CL   UNL     1      -5.141  15.781  23.909  0.00  0.00    +0.000 Cl
ATOM     31  C   UNL     1      -4.332  13.564  22.600  0.00  0.00    +0.000 A 
ATOM     32  C   UNL     1      -3.389  12.588  22.253  0.00  0.00    +0.000 A 
ENDBRANCH  23  26
ENDBRANCH  19  20
ENDBRANCH  18  19
ENDBRANCH  17  18
ENDBRANCH   4  17
TORSDOF 9
ENDMDL
MODEL 4
REMARK VINA RESULT:      -7.0      4.495      9.893
REMARK  Name = 
REMARK  11 active torsions:
REMARK  status: ('A' for Active; 'I' for Inactive)
REMARK    1  A    between atoms: C_1  and  N_2
REMARK    2  A    between atoms: N_2  and  C_3
REMARK    3  A    between atoms: N_2  and  C_4
REMARK    4  A    between atoms: C_4  and  C_5
REMARK    5  A    between atoms: C_8  and  C_9
REMARK    6  A    between atoms: C_9  and  N_10
REMARK    7  A    between atoms: N_13  and  C_14
REMARK    8  A    between atoms: C_14  and  C_15
REMARK    9  A    between atoms: C_15  and  O_16
REMARK   10  A    between atoms: O_16  and  C_17
REMARK   11  A    between atoms: C_20  and  C_21
REMARK                            x       y       z     vdW  Elec       q    Type
REMARK                         _______ _______ _______ _____ _____    ______ ____
ROOT
ATOM      1  N   UNL     1       2.678   5.957  20.468  0.00  0.00    +0.000 NA
ATOM      2  C   UNL     1       2.759   4.506  20.713  0.00  0.00    +0.000 C 
ATOM      3  C   UNL     1       2.377   3.598  19.521  0.00  0.00    +0.000 C 
ATOM      4  N   UNL     1       2.868   3.974  18.178  0.00  0.00    +0.000 NA
ATOM      5  C   UNL     1       2.870   5.439  17.999  0.00  0.00    +0.000 C 
ATOM      6  C   UNL     1       3.386   6.248  19.209  0.00  0.00    +0.000 C 
ENDROOT
BRANCH   1   7
ATOM      7  C   UNL     1       1.284   6.444  20.426  0.00  0.00    +0.000 C 
BRANCH   7  11
ATOM      8  C   UNL     1       1.029  10.009  20.089  0.00  0.00    +0.000 A 
ATOM      9  C   UNL     1       1.004   9.986  21.472  0.00  0.00    +0.000 A 
ATOM     10  C   UNL     1       1.160   8.642  21.859  0.00  0.00    +0.000 A 
ATOM     11  C   UNL     1       1.205   7.908  20.692  0.00  0.00    +0.000 A 
ATOM     12  O   UNL     1       1.136   8.735  19.609  0.00  0.00    +0.000 OA
BRANCH   8  13
ATOM     13  C   UNL     1       1.026  11.131  19.108  0.00  0.00    +0.000 C 
BRANCH  13  15
ATOM     14  C   UNL     1       1.868  13.407  19.070  0.00  0.00    +0.000 C 
ATOM     15  N   UNL     1       1.045  12.437  19.798  0.00  0.00    +0.000 NA
ATOM     16  C   UNL     1      -0.306  12.961  19.979  0.00  0.00    +0.000 C 
ENDBRANCH  13  15
ENDBRANCH   8  13
ENDBRANCH   7  11
ENDBRANCH   1   7
BRANCH   4  17
ATOM     17  C   UNL     1       4.168   3.388  17.829  0.00  0.00    +0.000 C 
BRANCH  17  18
ATOM     18  C   UNL     1       4.943   4.232  16.806  0.00  0.00    +0.000 C 
BRANCH  18  19
ATOM     19  O   UNL     1       6.335   4.146  17.109  0.00  0.00    +0.000 OA
BRANCH  19  20
ATOM     20  C   UNL     1       6.907   5.335  17.463  0.00  0.00    +0.000 A 
ATOM     21  C   UNL     1       6.612   6.402  16.625  0.00  0.00    +0.000 A 
ATOM     22  C   UNL     1       7.132   7.666  16.900  0.00  0.00    +0.000 A 
ATOM     23  C   UNL     1       7.918   7.912  18.041  0.00  0.00    +0.000 A 
ATOM     24  C   UNL     1       8.184   6.824  18.887  0.00  0.00    +0.000 A 
ATOM     25  C   UNL     1       7.685   5.547  18.606  0.00  0.00    +0.000 A 
BRANCH  23  26
ATOM     26  C   UNL     1       8.442   9.269  18.310  0.00  0.00    +0.000 A 
ATOM     27  C   UNL     1       9.226   9.518  19.453  0.00  0.00    +0.000 A 
ATOM     28  C   UNL     1       9.650  10.805  19.785  0.00  0.00    +0.000 A 
ATOM     29  C   UNL     1       9.321  11.869  18.954  0.00  0.00    +0.000 A 
ATOM     30 CL   UNL     1       9.809  13.463  19.376  0.00  0.00    +0.000 Cl
ATOM     31  C   UNL     1       8.588  11.651  17.792  0.00  0.00    +0.000 A 
ATOM     32  C   UNL     1       8.150  10.359  17.473  0.00  0.00    +0.000 A 
ENDBRANCH  23  26
ENDBRANCH  19  20
ENDBRANCH  18  19
ENDBRANCH  17  18
ENDBRANCH   4  17
TORSDOF 9
ENDMDL
MODEL 5
REMARK VINA RESULT:      -7.0      4.387      6.797
REMARK  Name = 
REMARK  11 active torsions:
REMARK  status: ('A' for Active; 'I' for Inactive)
REMARK    1  A    between atoms: C_1  and  N_2
REMARK    2  A    between atoms: N_2  and  C_3
REMARK    3  A    between atoms: N_2  and  C_4
REMARK    4  A    between atoms: C_4  and  C_5
REMARK    5  A    between atoms: C_8  and  C_9
REMARK    6  A    between atoms: C_9  and  N_10
REMARK    7  A    between atoms: N_13  and  C_14
REMARK    8  A    between atoms: C_14  and  C_15
REMARK    9  A    between atoms: C_15  and  O_16
REMARK   10  A    between atoms: O_16  and  C_17
REMARK   11  A    between atoms: C_20  and  C_21
REMARK                            x       y       z     vdW  Elec       q    Type
REMARK                         _______ _______ _______ _____ _____    ______ ____
ROOT
ATOM      1  N   UNL     1       6.723   7.092  18.188  0.00  0.00    +0.000 NA
ATOM      2  C   UNL     1       5.800   7.077  17.039  0.00  0.00    +0.000 C 
ATOM      3  C   UNL     1       5.970   5.897  16.053  0.00  0.00    +0.000 C 
ATOM      4  N   UNL     1       6.195   4.549  16.618  0.00  0.00    +0.000 NA
ATOM      5  C   UNL     1       7.040   4.608  17.827  0.00  0.00    +0.000 C 
ATOM      6  C   UNL     1       6.706   5.755  18.806  0.00  0.00    +0.000 C 
ENDROOT
BRANCH   1   7
ATOM      7  C   UNL     1       8.093   7.490  17.804  0.00  0.00    +0.000 C 
BRANCH   7  11
ATOM      8  C   UNL     1       9.208  10.558  19.301  0.00  0.00    +0.000 A 
ATOM      9  C   UNL     1       8.629  11.136  18.185  0.00  0.00    +0.000 A 
ATOM     10  C   UNL     1       8.044  10.092  17.443  0.00  0.00    +0.000 A 
ATOM     11  C   UNL     1       8.354   8.926  18.110  0.00  0.00    +0.000 A 
ATOM     12  O   UNL     1       9.054   9.202  19.249  0.00  0.00    +0.000 OA
BRANCH   8  13
ATOM     13  C   UNL     1       9.868  11.144  20.502  0.00  0.00    +0.000 C 
BRANCH  13  15
ATOM     14  C   UNL     1      11.877  11.465  19.178  0.00  0.00    +0.000 C 
ATOM     15  N   UNL     1      10.933  12.090  20.110  0.00  0.00    +0.000 NA
ATOM     16  C   UNL     1      10.374  13.303  19.519  0.00  0.00    +0.000 C 
ENDBRANCH  13  15
ENDBRANCH   8  13
ENDBRANCH   7  11
ENDBRANCH   1   7
BRANCH   4  17
ATOM     17  C   UNL     1       4.964   3.787  16.860  0.00  0.00    +0.000 C 
BRANCH  17  18
ATOM     18  C   UNL     1       3.753   4.689  17.143  0.00  0.00    +0.000 C 
BRANCH  18  19
ATOM     19  O   UNL     1       3.433   4.596  18.531  0.00  0.00    +0.000 OA
BRANCH  19  20
ATOM     20  C   UNL     1       2.776   5.686  19.029  0.00  0.00    +0.000 A 
ATOM     21  C   UNL     1       2.160   5.491  20.258  0.00  0.00    +0.000 A 
ATOM     22  C   UNL     1       1.473   6.540  20.866  0.00  0.00    +0.000 A 
ATOM     23  C   UNL     1       1.420   7.823  20.290  0.00  0.00    +0.000 A 
ATOM     24  C   UNL     1       2.069   8.005  19.059  0.00  0.00    +0.000 A 
ATOM     25  C   UNL     1       2.743   6.950  18.431  0.00  0.00    +0.000 A 
BRANCH  23  26
ATOM     26  C   UNL     1       0.693   8.919  20.968  0.00  0.00    +0.000 A 
ATOM     27  C   UNL     1       0.349  10.090  20.266  0.00  0.00    +0.000 A 
ATOM     28  C   UNL     1      -0.248  11.179  20.903  0.00  0.00    +0.000 A 
ATOM     29  C   UNL     1      -0.541  11.100  22.260  0.00  0.00    +0.000 A 
ATOM     30 CL   UNL     1      -1.243  12.451  23.059  0.00  0.00    +0.000 Cl
ATOM     31  C   UNL     1      -0.258   9.940  22.972  0.00  0.00    +0.000 A 
ATOM     32  C   UNL     1       0.357   8.857  22.331  0.00  0.00    +0.000 A 
ENDBRANCH  23  26
ENDBRANCH  19  20
ENDBRANCH  18  19
ENDBRANCH  17  18
ENDBRANCH   4  17
TORSDOF 9
ENDMDL
MODEL 6
REMARK VINA RESULT:      -7.0      4.339      6.876
REMARK  Name = 
REMARK  11 active torsions:
REMARK  status: ('A' for Active; 'I' for Inactive)
REMARK    1  A    between atoms: C_1  and  N_2
REMARK    2  A    between atoms: N_2  and  C_3
REMARK    3  A    between atoms: N_2  and  C_4
REMARK    4  A    between atoms: C_4  and  C_5
REMARK    5  A    between atoms: C_8  and  C_9
REMARK    6  A    between atoms: C_9  and  N_10
REMARK    7  A    between atoms: N_13  and  C_14
REMARK    8  A    between atoms: C_14  and  C_15
REMARK    9  A    between atoms: C_15  and  O_16
REMARK   10  A    between atoms: O_16  and  C_17
REMARK   11  A    between atoms: C_20  and  C_21
REMARK                            x       y       z     vdW  Elec       q    Type
REMARK                         _______ _______ _______ _____ _____    ______ ____
ROOT
ATOM      1  N   UNL     1       6.471   7.156  17.754  0.00  0.00    +0.000 NA
ATOM      2  C   UNL     1       5.399   7.010  16.753  0.00  0.00    +0.000 C 
ATOM      3  C   UNL     1       5.519   5.791  15.809  0.00  0.00    +0.000 C 
ATOM      4  N   UNL     1       5.926   4.497  16.398  0.00  0.00    +0.000 NA
ATOM      5  C   UNL     1       6.926   4.684  17.467  0.00  0.00    +0.000 C 
ATOM      6  C   UNL     1       6.646   5.859  18.430  0.00  0.00    +0.000 C 
ENDROOT
BRANCH   1   7
ATOM      7  C   UNL     1       7.737   7.627  17.158  0.00  0.00    +0.000 C 
BRANCH   7  11
ATOM      8  C   UNL     1       8.678  10.927  18.217  0.00  0.00    +0.000 A 
ATOM      9  C   UNL     1       9.171  10.265  19.328  0.00  0.00    +0.000 A 
ATOM     10  C   UNL     1       8.965   8.890  19.106  0.00  0.00    +0.000 A 
ATOM     11  C   UNL     1       8.298   8.790  17.904  0.00  0.00    +0.000 A 
ATOM     12  O   UNL     1       8.128  10.025  17.350  0.00  0.00    +0.000 OA
BRANCH   8  13
ATOM     13  C   UNL     1       8.709  12.361  17.811  0.00  0.00    +0.000 C 
BRANCH  13  15
ATOM     14  C   UNL     1      10.395  13.822  18.767  0.00  0.00    +0.000 C 
ATOM     15  N   UNL     1       9.069  13.225  18.954  0.00  0.00    +0.000 NA
ATOM     16  C   UNL     1       8.072  14.272  19.163  0.00  0.00    +0.000 C 
ENDBRANCH  13  15
ENDBRANCH   8  13
ENDBRANCH   7  11
ENDBRANCH   1   7
BRANCH   4  17
ATOM     17  C   UNL     1       4.805   3.665  16.851  0.00  0.00    +0.000 C 
BRANCH  17  18
ATOM     18  C   UNL     1       4.485   3.860  18.341  0.00  0.00    +0.000 C 
BRANCH  18  19
ATOM     19  O   UNL     1       3.067   3.882  18.502  0.00  0.00    +0.000 OA
BRANCH  19  20
ATOM     20  C   UNL     1       2.593   4.994  19.138  0.00  0.00    +0.000 A 
ATOM     21  C   UNL     1       2.597   6.155  18.375  0.00  0.00    +0.000 A 
ATOM     22  C   UNL     1       2.121   7.346  18.920  0.00  0.00    +0.000 A 
ATOM     23  C   UNL     1       1.587   7.405  20.221  0.00  0.00    +0.000 A 
ATOM     24  C   UNL     1       1.571   6.216  20.966  0.00  0.00    +0.000 A 
ATOM     25  C   UNL     1       2.067   5.020  20.434  0.00  0.00    +0.000 A 
BRANCH  23  26
ATOM     26  C   UNL     1       1.078   8.684  20.763  0.00  0.00    +0.000 A 
ATOM     27  C   UNL     1       0.629   8.767  22.096  0.00  0.00    +0.000 A 
ATOM     28  C   UNL     1       0.052   9.931  22.604  0.00  0.00    +0.000 A 
ATOM     29  C   UNL     1      -0.056  11.052  21.790  0.00  0.00    +0.000 A 
ATOM     30 CL   UNL     1      -0.798  12.479  22.400  0.00  0.00    +0.000 Cl
ATOM     31  C   UNL     1       0.421  11.020  20.484  0.00  0.00    +0.000 A 
ATOM     32  C   UNL     1       0.983   9.842  19.973  0.00  0.00    +0.000 A 
ENDBRANCH  23  26
ENDBRANCH  19  20
ENDBRANCH  18  19
ENDBRANCH  17  18
ENDBRANCH   4  17
TORSDOF 9
ENDMDL
MODEL 7
REMARK VINA RESULT:      -6.9      4.894      9.807
REMARK  Name = 
REMARK  11 active torsions:
REMARK  status: ('A' for Active; 'I' for Inactive)
REMARK    1  A    between atoms: C_1  and  N_2
REMARK    2  A    between atoms: N_2  and  C_3
REMARK    3  A    between atoms: N_2  and  C_4
REMARK    4  A    between atoms: C_4  and  C_5
REMARK    5  A    between atoms: C_8  and  C_9
REMARK    6  A    between atoms: C_9  and  N_10
REMARK    7  A    between atoms: N_13  and  C_14
REMARK    8  A    between atoms: C_14  and  C_15
REMARK    9  A    between atoms: C_15  and  O_16
REMARK   10  A    between atoms: O_16  and  C_17
REMARK   11  A    between atoms: C_20  and  C_21
REMARK                            x       y       z     vdW  Elec       q    Type
REMARK                         _______ _______ _______ _____ _____    ______ ____
ROOT
ATOM      1  N   UNL     1       3.441   6.312  19.472  0.00  0.00    +0.000 NA
ATOM      2  C   UNL     1       4.270   5.198  19.965  0.00  0.00    +0.000 C 
ATOM      3  C   UNL     1       3.905   3.795  19.425  0.00  0.00    +0.000 C 
ATOM      4  N   UNL     1       3.581   3.670  17.987  0.00  0.00    +0.000 NA
ATOM      5  C   UNL     1       2.838   4.848  17.500  0.00  0.00    +0.000 C 
ATOM      6  C   UNL     1       3.363   6.210  18.005  0.00  0.00    +0.000 C 
ENDROOT
BRANCH   1   7
ATOM      7  C   UNL     1       2.097   6.327  20.084  0.00  0.00    +0.000 C 
BRANCH   7  11
ATOM      8  C   UNL     1       0.949   9.708  19.706  0.00  0.00    +0.000 A 
ATOM      9  C   UNL     1       0.833   9.662  21.084  0.00  0.00    +0.000 A 
ATOM     10  C   UNL     1       1.305   8.400  21.490  0.00  0.00    +0.000 A 
ATOM     11  C   UNL     1       1.621   7.717  20.334  0.00  0.00    +0.000 A 
ATOM     12  O   UNL     1       1.417   8.511  19.243  0.00  0.00    +0.000 OA
BRANCH   8  13
ATOM     13  C   UNL     1       0.724  10.802  18.719  0.00  0.00    +0.000 C 
BRANCH  13  15
ATOM     14  C   UNL     1       2.420  12.481  18.272  0.00  0.00    +0.000 C 
ATOM     15  N   UNL     1       1.345  12.062  19.178  0.00  0.00    +0.000 NA
ATOM     16  C   UNL     1       0.354  13.127  19.306  0.00  0.00    +0.000 C 
ENDBRANCH  13  15
ENDBRANCH   8  13
ENDBRANCH   7  11
ENDBRANCH   1   7
BRANCH   4  17
ATOM     17  C   UNL     1       4.739   3.374  17.135  0.00  0.00    +0.000 C 
BRANCH  17  18
ATOM     18  C   UNL     1       5.520   4.636  16.736  0.00  0.00    +0.000 C 
BRANCH  18  19
ATOM     19  O   UNL     1       6.693   4.718  17.545  0.00  0.00    +0.000 OA
BRANCH  19  20
ATOM     20  C   UNL     1       7.138   5.992  17.760  0.00  0.00    +0.000 A 
ATOM     21  C   UNL     1       8.005   6.139  18.834  0.00  0.00    +0.000 A 
ATOM     22  C   UNL     1       8.531   7.394  19.135  0.00  0.00    +0.000 A 
ATOM     23  C   UNL     1       8.246   8.526  18.349  0.00  0.00    +0.000 A 
ATOM     24  C   UNL     1       7.386   8.350  17.254  0.00  0.00    +0.000 A 
ATOM     25  C   UNL     1       6.836   7.097  16.957  0.00  0.00    +0.000 A 
BRANCH  23  26
ATOM     26  C   UNL     1       8.833   9.841  18.689  0.00  0.00    +0.000 A 
ATOM     27  C   UNL     1       8.983  10.833  17.702  0.00  0.00    +0.000 A 
ATOM     28  C   UNL     1       9.622  12.044  17.970  0.00  0.00    +0.000 A 
ATOM     29  C   UNL     1      10.098  12.297  19.251  0.00  0.00    +0.000 A 
ATOM     30 CL   UNL     1      10.918  13.772  19.580  0.00  0.00    +0.000 Cl
ATOM     31  C   UNL     1       9.923  11.357  20.262  0.00  0.00    +0.000 A 
ATOM     32  C   UNL     1       9.297  10.136  19.983  0.00  0.00    +0.000 A 
ENDBRANCH  23  26
ENDBRANCH  19  20
ENDBRANCH  18  19
ENDBRANCH  17  18
ENDBRANCH   4  17
TORSDOF 9
ENDMDL
MODEL 8
REMARK VINA RESULT:      -6.9      0.839      1.205
REMARK  Name = 
REMARK  11 active torsions:
REMARK  status: ('A' for Active; 'I' for Inactive)
REMARK    1  A    between atoms: C_1  and  N_2
REMARK    2  A    between atoms: N_2  and  C_3
REMARK    3  A    between atoms: N_2  and  C_4
REMARK    4  A    between atoms: C_4  and  C_5
REMARK    5  A    between atoms: C_8  and  C_9
REMARK    6  A    between atoms: C_9  and  N_10
REMARK    7  A    between atoms: N_13  and  C_14
REMARK    8  A    between atoms: C_14  and  C_15
REMARK    9  A    between atoms: C_15  and  O_16
REMARK   10  A    between atoms: O_16  and  C_17
REMARK   11  A    between atoms: C_20  and  C_21
REMARK                            x       y       z     vdW  Elec       q    Type
REMARK                         _______ _______ _______ _____ _____    ______ ____
ROOT
ATOM      1  N   UNL     1       4.580   4.497  18.197  0.00  0.00    +0.000 NA
ATOM      2  C   UNL     1       4.704   5.963  18.271  0.00  0.00    +0.000 C 
ATOM      3  C   UNL     1       3.375   6.755  18.244  0.00  0.00    +0.000 C 
ATOM      4  N   UNL     1       2.246   6.239  19.047  0.00  0.00    +0.000 NA
ATOM      5  C   UNL     1       2.209   4.764  19.036  0.00  0.00    +0.000 C 
ATOM      6  C   UNL     1       3.580   4.071  19.191  0.00  0.00    +0.000 C 
ENDROOT
BRANCH   1   7
ATOM      7  C   UNL     1       4.224   4.030  16.841  0.00  0.00    +0.000 C 
BRANCH   7  11
ATOM      8  C   UNL     1       6.290   4.092  13.905  0.00  0.00    +0.000 A 
ATOM      9  C   UNL     1       7.235   4.621  14.766  0.00  0.00    +0.000 A 
ATOM     10  C   UNL     1       6.653   4.636  16.048  0.00  0.00    +0.000 A 
ATOM     11  C   UNL     1       5.362   4.180  15.890  0.00  0.00    +0.000 A 
ATOM     12  O   UNL     1       5.136   3.836  14.589  0.00  0.00    +0.000 OA
BRANCH   8  13
ATOM     13  C   UNL     1       6.348   3.720  12.463  0.00  0.00    +0.000 C 
BRANCH  13  15
ATOM     14  C   UNL     1       4.198   3.343  11.400  0.00  0.00    +0.000 C 
ATOM     15  N   UNL     1       5.308   2.724  12.133  0.00  0.00    +0.000 NA
ATOM     16  C   UNL     1       5.862   1.615  11.361  0.00  0.00    +0.000 C 
ENDBRANCH  13  15
ENDBRANCH   8  13
ENDBRANCH   7  11
ENDBRANCH   1   7
BRANCH   4  17
ATOM     17  C   UNL     1       2.193   6.768  20.416  0.00  0.00    +0.000 C 
BRANCH  17  18
ATOM     18  C   UNL     1       1.509   8.141  20.496  0.00  0.00    +0.000 C 
BRANCH  18  19
ATOM     19  O   UNL     1       0.450   8.066  21.449  0.00  0.00    +0.000 OA
BRANCH  19  20
ATOM     20  C   UNL     1      -0.130   9.268  21.740  0.00  0.00    +0.000 A 
ATOM     21  C   UNL     1      -0.292  10.120  20.656  0.00  0.00    +0.000 A 
ATOM     22  C   UNL     1      -0.885  11.369  20.836  0.00  0.00    +0.000 A 
ATOM     23  C   UNL     1      -1.375  11.783  22.089  0.00  0.00    +0.000 A 
ATOM     24  C   UNL     1      -1.222  10.896  23.166  0.00  0.00    +0.000 A 
ATOM     25  C   UNL     1      -0.607   9.650  22.998  0.00  0.00    +0.000 A 
BRANCH  23  26
ATOM     26  C   UNL     1      -2.012  13.109  22.242  0.00  0.00    +0.000 A 
ATOM     27  C   UNL     1      -1.301  14.182  22.815  0.00  0.00    +0.000 A 
ATOM     28  C   UNL     1      -1.907  15.414  23.063  0.00  0.00    +0.000 A 
ATOM     29  C   UNL     1      -3.237  15.606  22.709  0.00  0.00    +0.000 A 
ATOM     30 CL   UNL     1      -3.999  17.110  23.045  0.00  0.00    +0.000 Cl
ATOM     31  C   UNL     1      -3.954  14.583  22.097  0.00  0.00    +0.000 A 
ATOM     32  C   UNL     1      -3.346  13.342  21.867  0.00  0.00    +0.000 A 
ENDBRANCH  23  26
ENDBRANCH  19  20
ENDBRANCH  18  19
ENDBRANCH  17  18
ENDBRANCH   4  17
TORSDOF 9
ENDMDL
MODEL 9
REMARK VINA RESULT:      -6.9      8.125     12.148
REMARK  Name = 
REMARK  11 active torsions:
REMARK  status: ('A' for Active; 'I' for Inactive)
REMARK    1  A    between atoms: C_1  and  N_2
REMARK    2  A    between atoms: N_2  and  C_3
REMARK    3  A    between atoms: N_2  and  C_4
REMARK    4  A    between atoms: C_4  and  C_5
REMARK    5  A    between atoms: C_8  and  C_9
REMARK    6  A    between atoms: C_9  and  N_10
REMARK    7  A    between atoms: N_13  and  C_14
REMARK    8  A    between atoms: C_14  and  C_15
REMARK    9  A    between atoms: C_15  and  O_16
REMARK   10  A    between atoms: O_16  and  C_17
REMARK   11  A    between atoms: C_20  and  C_21
REMARK                            x       y       z     vdW  Elec       q    Type
REMARK                         _______ _______ _______ _____ _____    ______ ____
ROOT
ATOM      1  N   UNL     1      11.095  14.147  18.090  0.00  0.00    +0.000 NA
ATOM      2  C   UNL     1      11.909  12.921  18.169  0.00  0.00    +0.000 C 
ATOM      3  C   UNL     1      11.344  11.792  19.063  0.00  0.00    +0.000 C 
ATOM      4  N   UNL     1       9.895  11.508  18.987  0.00  0.00    +0.000 NA
ATOM      5  C   UNL     1       9.114  12.747  18.807  0.00  0.00    +0.000 C 
ATOM      6  C   UNL     1       9.705  13.756  17.798  0.00  0.00    +0.000 C 
ENDROOT
BRANCH   1   7
ATOM      7  C   UNL     1      11.179  14.958  19.322  0.00  0.00    +0.000 C 
BRANCH   7  11
ATOM      8  C   UNL     1       8.673  17.477  19.836  0.00  0.00    +0.000 A 
ATOM      9  C   UNL     1       9.393  18.173  18.881  0.00  0.00    +0.000 A 
ATOM     10  C   UNL     1      10.436  17.326  18.462  0.00  0.00    +0.000 A 
ATOM     11  C   UNL     1      10.339  16.185  19.231  0.00  0.00    +0.000 A 
ATOM     12  O   UNL     1       9.260  16.266  20.064  0.00  0.00    +0.000 OA
BRANCH   8  13
ATOM     13  C   UNL     1       7.407  17.790  20.558  0.00  0.00    +0.000 C 
BRANCH  13  15
ATOM     14  C   UNL     1       6.088  16.036  21.596  0.00  0.00    +0.000 C 
ATOM     15  N   UNL     1       6.401  16.730  20.343  0.00  0.00    +0.000 NA
ATOM     16  C   UNL     1       5.180  17.270  19.750  0.00  0.00    +0.000 C 
ENDBRANCH  13  15
ENDBRANCH   8  13
ENDBRANCH   7  11
ENDBRANCH   1   7
BRANCH   4  17
ATOM     17  C   UNL     1       9.534  10.495  17.987  0.00  0.00    +0.000 C 
BRANCH  17  18
ATOM     18  C   UNL     1       8.591   9.419  18.546  0.00  0.00    +0.000 C 
BRANCH  18  19
ATOM     19  O   UNL     1       8.521   8.345  17.608  0.00  0.00    +0.000 OA
BRANCH  19  20
ATOM     20  C   UNL     1       7.537   7.435  17.870  0.00  0.00    +0.000 A 
ATOM     21  C   UNL     1       6.366   7.610  17.146  0.00  0.00    +0.000 A 
ATOM     22  C   UNL     1       5.300   6.730  17.324  0.00  0.00    +0.000 A 
ATOM     23  C   UNL     1       5.388   5.626  18.192  0.00  0.00    +0.000 A 
ATOM     24  C   UNL     1       6.589   5.454  18.897  0.00  0.00    +0.000 A 
ATOM     25  C   UNL     1       7.656   6.346  18.741  0.00  0.00    +0.000 A 
BRANCH  23  26
ATOM     26  C   UNL     1       4.242   4.703  18.348  0.00  0.00    +0.000 A 
ATOM     27  C   UNL     1       3.113   4.818  17.514  0.00  0.00    +0.000 A 
ATOM     28  C   UNL     1       1.979   4.028  17.702  0.00  0.00    +0.000 A 
ATOM     29  C   UNL     1       1.968   3.078  18.716  0.00  0.00    +0.000 A 
ATOM     30 CL   UNL     1       0.559   2.126  18.977  0.00  0.00    +0.000 Cl
ATOM     31  C   UNL     1       3.084   2.906  19.528  0.00  0.00    +0.000 A 
ATOM     32  C   UNL     1       4.213   3.714  19.346  0.00  0.00    +0.000 A 
ENDBRANCH  23  26
ENDBRANCH  19  20
ENDBRANCH  18  19
ENDBRANCH  17  18
ENDBRANCH   4  17
TORSDOF 9
ENDMDL
