MODEL 1
REMARK VINA RESULT:      -7.5      0.000      0.000
REMARK  Name = 
REMARK  6 active torsions:
REMARK  status: ('A' for Active; 'I' for Inactive)
REMARK    1  A    between atoms: C_2  and  C_3
REMARK    2  A    between atoms: C_6  and  C_7
REMARK    3  A    between atoms: C_9  and  C_10
REMARK    4  A    between atoms: C_17  and  C_18
REMARK    5  A    between atoms: N_20  and  C_21
REMARK    6  A    between atoms: C_21  and  C_22
REMARK                            x       y       z     vdW  Elec       q    Type
REMARK                         _______ _______ _______ _____ _____    ______ ____
ROOT
ATOM      1  C   UNL     1       1.562   9.146  19.420  0.00  0.00    +0.000 A 
ATOM      2  S   UNL     1       2.275   8.090  18.253  0.00  0.00    +0.000 S 
ATOM      3  C   UNL     1       2.495   6.884  19.449  0.00  0.00    +0.000 A 
ATOM      4  N   UNL     1       2.018   7.200  20.637  0.00  0.00    +0.000 NA
ATOM      5  C   UNL     1       1.511   8.498  20.655  0.00  0.00    +0.000 A 
ENDROOT
BRANCH   1   9
ATOM      6  C   UNL     1       0.257  13.161  18.645  0.00  0.00    +0.000 A 
ATOM      7  C   UNL     1      -0.673  12.129  18.705  0.00  0.00    +0.000 A 
ATOM      8  C   UNL     1      -0.238  10.812  18.880  0.00  0.00    +0.000 A 
ATOM      9  C   UNL     1       1.126  10.507  19.044  0.00  0.00    +0.000 A 
ATOM     10  C   UNL     1       2.045  11.559  18.925  0.00  0.00    +0.000 A 
ATOM     11  C   UNL     1       1.616  12.875  18.728  0.00  0.00    +0.000 A 
BRANCH   6  13
ATOM     12  N   UNL     1      -0.548  15.616  18.432  0.00  0.00    +0.000 NA
ATOM     13  C   UNL     1      -0.192  14.524  18.527  0.00  0.00    +0.000 C 
ENDBRANCH   6  13
ENDBRANCH   1   9
BRANCH   3  14
ATOM     14  C   UNL     1       3.177   5.563  19.116  0.00  0.00    +0.000 C 
ATOM     15  C   UNL     1       2.890   4.498  20.192  0.00  0.00    +0.000 C 
ATOM     16  C   UNL     1       1.424   4.065  20.207  0.00  0.00    +0.000 C 
ATOM     17  C   UNL     1       0.964   3.590  18.831  0.00  0.00    +0.000 C 
ATOM     18  C   UNL     1       1.262   4.603  17.727  0.00  0.00    +0.000 C 
ATOM     19  C   UNL     1       2.729   5.038  17.740  0.00  0.00    +0.000 C 
ENDBRANCH   3  14
BRANCH   5  20
ATOM     20  C   UNL     1       1.021   9.113  21.907  0.00  0.00    +0.000 C 
ATOM     21  O   UNL     1       1.771   9.415  22.832  0.00  0.00    +0.000 OA
ATOM     22  N   UNL     1      -0.334   9.365  21.982  0.00  0.00    +0.000 N 
ATOM     23  H   UNL     1      -0.932   9.066  21.221  0.00  0.00    +0.000 HD
BRANCH  22  24
ATOM     24  C   UNL     1      -0.876  10.018  23.158  0.00  0.00    +0.000 C 
BRANCH  24  25
ATOM     25  C   UNL     1      -1.312  11.444  22.903  0.00  0.00    +0.000 A 
ATOM     26  C   UNL     1      -0.412  12.372  22.322  0.00  0.00    +0.000 A 
ATOM     27  C   UNL     1      -0.793  13.695  22.067  0.00  0.00    +0.000 A 
ATOM     28  C   UNL     1      -2.072  14.068  22.414  0.00  0.00    +0.000 A 
ATOM     29  C   UNL     1      -2.950  13.185  22.995  0.00  0.00    +0.000 A 
ATOM     30  C   UNL     1      -2.607  11.870  23.246  0.00  0.00    +0.000 A 
ATOM     31  O   UNL     1      -4.150  13.760  23.277  0.00  0.00    +0.000 OA
ATOM     32  C   UNL     1      -3.901  15.122  22.871  0.00  0.00    +0.000 C 
ATOM     33  O   UNL     1      -2.614  15.304  22.244  0.00  0.00    +0.000 OA
ENDBRANCH  24  25
ENDBRANCH  22  24
ENDBRANCH   5  20
TORSDOF 6
ENDMDL
MODEL 2
REMARK VINA RESULT:      -7.2      0.632      1.297
REMARK  Name = 
REMARK  6 active torsions:
REMARK  status: ('A' for Active; 'I' for Inactive)
REMARK    1  A    between atoms: C_2  and  C_3
REMARK    2  A    between atoms: C_6  and  C_7
REMARK    3  A    between atoms: C_9  and  C_10
REMARK    4  A    between atoms: C_17  and  C_18
REMARK    5  A    between atoms: N_20  and  C_21
REMARK    6  A    between atoms: C_21  and  C_22
REMARK                            x       y       z     vdW  Elec       q    Type
REMARK                         _______ _______ _______ _____ _____    ______ ____
ROOT
ATOM      1  C   UNL     1       1.504   9.219  19.452  0.00  0.00    +0.000 A 
ATOM      2  S   UNL     1       2.241   8.168  18.296  0.00  0.00    +0.000 S 
ATOM      3  C   UNL     1       2.462   6.967  19.498  0.00  0.00    +0.000 A 
ATOM      4  N   UNL     1       1.967   7.281  20.680  0.00  0.00    +0.000 NA
ATOM      5  C   UNL     1       1.446   8.574  20.689  0.00  0.00    +0.000 A 
ENDROOT
BRANCH   1   9
ATOM      6  C   UNL     1       0.209  13.233  18.652  0.00  0.00    +0.000 A 
ATOM      7  C   UNL     1      -0.731  12.231  18.870  0.00  0.00    +0.000 A 
ATOM      8  C   UNL     1      -0.308  10.911  19.053  0.00  0.00    +0.000 A 
ATOM      9  C   UNL     1       1.058  10.574  19.069  0.00  0.00    +0.000 A 
ATOM     10  C   UNL     1       1.980  11.594  18.792  0.00  0.00    +0.000 A 
ATOM     11  C   UNL     1       1.561  12.911  18.587  0.00  0.00    +0.000 A 
BRANCH   6  13
ATOM     12  N   UNL     1      -0.560  15.697  18.421  0.00  0.00    +0.000 NA
ATOM     13  C   UNL     1      -0.220  14.601  18.526  0.00  0.00    +0.000 C 
ENDBRANCH   6  13
ENDBRANCH   1   9
BRANCH   3  14
ATOM     14  C   UNL     1       3.161   5.653  19.176  0.00  0.00    +0.000 C 
ATOM     15  C   UNL     1       2.856   4.581  20.239  0.00  0.00    +0.000 C 
ATOM     16  C   UNL     1       1.393   4.137  20.216  0.00  0.00    +0.000 C 
ATOM     17  C   UNL     1       0.970   3.665  18.826  0.00  0.00    +0.000 C 
ATOM     18  C   UNL     1       1.289   4.686  17.735  0.00  0.00    +0.000 C 
ATOM     19  C   UNL     1       2.751   5.131  17.786  0.00  0.00    +0.000 C 
ENDBRANCH   3  14
BRANCH   5  20
ATOM     20  C   UNL     1       0.936   9.186  21.934  0.00  0.00    +0.000 C 
ATOM     21  O   UNL     1       1.662   9.440  22.890  0.00  0.00    +0.000 OA
ATOM     22  N   UNL     1      -0.410   9.493  21.964  0.00  0.00    +0.000 N 
ATOM     23  H   UNL     1      -0.991   9.232  21.176  0.00  0.00    +0.000 HD
BRANCH  22  24
ATOM     24  C   UNL     1      -0.969  10.146  23.131  0.00  0.00    +0.000 C 
BRANCH  24  25
ATOM     25  C   UNL     1      -1.370  11.583  22.877  0.00  0.00    +0.000 A 
ATOM     26  C   UNL     1      -2.732  11.968  22.960  0.00  0.00    +0.000 A 
ATOM     27  C   UNL     1      -3.129  13.292  22.739  0.00  0.00    +0.000 A 
ATOM     28  C   UNL     1      -2.151  14.207  22.424  0.00  0.00    +0.000 A 
ATOM     29  C   UNL     1      -0.829  13.846  22.321  0.00  0.00    +0.000 A 
ATOM     30  C   UNL     1      -0.405  12.549  22.547  0.00  0.00    +0.000 A 
ATOM     31  O   UNL     1      -0.031  14.894  21.980  0.00  0.00    +0.000 OA
ATOM     32  C   UNL     1      -1.013  15.938  21.813  0.00  0.00    +0.000 C 
ATOM     33  O   UNL     1      -2.348  15.530  22.175  0.00  0.00    +0.000 OA
ENDBRANCH  24  25
ENDBRANCH  22  24
ENDBRANCH   5  20
TORSDOF 6
ENDMDL
MODEL 3
REMARK VINA RESULT:      -7.0      3.246      7.324
REMARK  Name = 
REMARK  6 active torsions:
REMARK  status: ('A' for Active; 'I' for Inactive)
REMARK    1  A    between atoms: C_2  and  C_3
REMARK    2  A    between atoms: C_6  and  C_7
REMARK    3  A    between atoms: C_9  and  C_10
REMARK    4  A    between atoms: C_17  and  C_18
REMARK    5  A    between atoms: N_20  and  C_21
REMARK    6  A    between atoms: C_21  and  C_22
REMARK                            x       y       z     vdW  Elec       q    Type
REMARK                         _______ _______ _______ _____ _____    ______ ____
ROOT
ATOM      1  C   UNL     1       0.731  11.561  18.867  0.00  0.00    +0.000 A 
ATOM      2  S   UNL     1       1.876  12.827  19.138  0.00  0.00    +0.000 S 
ATOM      3  C   UNL     1       0.699  14.006  18.740  0.00  0.00    +0.000 A 
ATOM      4  N   UNL     1      -0.498  13.516  18.480  0.00  0.00    +0.000 NA
ATOM      5  C   UNL     1      -0.497  12.122  18.513  0.00  0.00    +0.000 A 
ENDROOT
BRANCH   1   9
ATOM      6  C   UNL     1       2.158   7.544  19.362  0.00  0.00    +0.000 A 
ATOM      7  C   UNL     1       2.260   8.169  18.124  0.00  0.00    +0.000 A 
ATOM      8  C   UNL     1       1.724   9.448  17.946  0.00  0.00    +0.000 A 
ATOM      9  C   UNL     1       1.120  10.144  19.009  0.00  0.00    +0.000 A 
ATOM     10  C   UNL     1       0.982   9.469  20.230  0.00  0.00    +0.000 A 
ATOM     11  C   UNL     1       1.496   8.181  20.407  0.00  0.00    +0.000 A 
BRANCH   6  13
ATOM     12  N   UNL     1       3.246   5.221  19.732  0.00  0.00    +0.000 NA
ATOM     13  C   UNL     1       2.763   6.253  19.565  0.00  0.00    +0.000 C 
ENDBRANCH   6  13
ENDBRANCH   1   9
BRANCH   3  14
ATOM     14  C   UNL     1       1.048  15.488  18.719  0.00  0.00    +0.000 C 
ATOM     15  C   UNL     1      -0.219  16.361  18.649  0.00  0.00    +0.000 C 
ATOM     16  C   UNL     1      -1.052  16.284  19.930  0.00  0.00    +0.000 C 
ATOM     17  C   UNL     1      -0.219  16.626  21.163  0.00  0.00    +0.000 C 
ATOM     18  C   UNL     1       1.067  15.807  21.252  0.00  0.00    +0.000 C 
ATOM     19  C   UNL     1       1.877  15.882  19.956  0.00  0.00    +0.000 C 
ENDBRANCH   3  14
BRANCH   5  20
ATOM     20  C   UNL     1      -1.701  11.346  18.145  0.00  0.00    +0.000 C 
ATOM     21  O   UNL     1      -1.749  10.123  18.229  0.00  0.00    +0.000 OA
ATOM     22  N   UNL     1      -2.797  12.072  17.723  0.00  0.00    +0.000 N 
ATOM     23  H   UNL     1      -2.713  13.077  17.623  0.00  0.00    +0.000 HD
BRANCH  22  24
ATOM     24  C   UNL     1      -4.030  11.381  17.400  0.00  0.00    +0.000 C 
BRANCH  24  25
ATOM     25  C   UNL     1      -5.042  11.405  18.524  0.00  0.00    +0.000 A 
ATOM     26  C   UNL     1      -6.150  10.520  18.506  0.00  0.00    +0.000 A 
ATOM     27  C   UNL     1      -7.095  10.516  19.538  0.00  0.00    +0.000 A 
ATOM     28  C   UNL     1      -6.920  11.413  20.568  0.00  0.00    +0.000 A 
ATOM     29  C   UNL     1      -5.863  12.290  20.590  0.00  0.00    +0.000 A 
ATOM     30  C   UNL     1      -4.906  12.308  19.592  0.00  0.00    +0.000 A 
ATOM     31  O   UNL     1      -5.887  13.101  21.681  0.00  0.00    +0.000 OA
ATOM     32  C   UNL     1      -7.119  12.681  22.304  0.00  0.00    +0.000 C 
ATOM     33  O   UNL     1      -7.734  11.552  21.648  0.00  0.00    +0.000 OA
ENDBRANCH  24  25
ENDBRANCH  22  24
ENDBRANCH   5  20
TORSDOF 6
ENDMDL
MODEL 4
REMARK VINA RESULT:      -6.8      2.977      4.172
REMARK  Name = 
REMARK  6 active torsions:
REMARK  status: ('A' for Active; 'I' for Inactive)
REMARK    1  A    between atoms: C_2  and  C_3
REMARK    2  A    between atoms: C_6  and  C_7
REMARK    3  A    between atoms: C_9  and  C_10
REMARK    4  A    between atoms: C_17  and  C_18
REMARK    5  A    between atoms: N_20  and  C_21
REMARK    6  A    between atoms: C_21  and  C_22
REMARK                            x       y       z     vdW  Elec       q    Type
REMARK                         _______ _______ _______ _____ _____    ______ ____
ROOT
ATOM      1  C   UNL     1       1.086   9.011  20.596  0.00  0.00    +0.000 A 
ATOM      2  S   UNL     1       1.940   7.693  21.316  0.00  0.00    +0.000 S 
ATOM      3  C   UNL     1       2.341   7.080  19.767  0.00  0.00    +0.000 A 
ATOM      4  N   UNL     1       1.930   7.829  18.761  0.00  0.00    +0.000 NA
ATOM      5  C   UNL     1       1.183   8.918  19.207  0.00  0.00    +0.000 A 
ENDROOT
BRANCH   1   9
ATOM      6  C   UNL     1      -1.180  11.901  22.818  0.00  0.00    +0.000 A 
ATOM      7  C   UNL     1      -0.313  12.322  21.815  0.00  0.00    +0.000 A 
ATOM      8  C   UNL     1       0.482  11.385  21.147  0.00  0.00    +0.000 A 
ATOM      9  C   UNL     1       0.391  10.011  21.433  0.00  0.00    +0.000 A 
ATOM     10  C   UNL     1      -0.451   9.621  22.485  0.00  0.00    +0.000 A 
ATOM     11  C   UNL     1      -1.230  10.557  23.171  0.00  0.00    +0.000 A 
BRANCH   6  13
ATOM     12  N   UNL     1      -2.737  13.616  23.981  0.00  0.00    +0.000 NA
ATOM     13  C   UNL     1      -2.043  12.855  23.464  0.00  0.00    +0.000 C 
ENDBRANCH   6  13
ENDBRANCH   1   9
BRANCH   3  14
ATOM     14  C   UNL     1       3.124   5.783  19.614  0.00  0.00    +0.000 C 
ATOM     15  C   UNL     1       2.623   4.707  20.596  0.00  0.00    +0.000 C 
ATOM     16  C   UNL     1       1.210   4.226  20.263  0.00  0.00    +0.000 C 
ATOM     17  C   UNL     1       1.108   3.739  18.819  0.00  0.00    +0.000 C 
ATOM     18  C   UNL     1       1.628   4.764  17.813  0.00  0.00    +0.000 C 
ATOM     19  C   UNL     1       3.035   5.246  18.173  0.00  0.00    +0.000 C 
ENDBRANCH   3  14
BRANCH   5  20
ATOM     20  C   UNL     1       0.524   9.837  18.255  0.00  0.00    +0.000 C 
ATOM     21  O   UNL     1       1.152  10.632  17.563  0.00  0.00    +0.000 OA
ATOM     22  N   UNL     1      -0.849   9.739  18.153  0.00  0.00    +0.000 N 
ATOM     23  H   UNL     1      -1.344   9.103  18.768  0.00  0.00    +0.000 HD
BRANCH  22  24
ATOM     24  C   UNL     1      -1.557  10.570  17.199  0.00  0.00    +0.000 C 
BRANCH  24  25
ATOM     25  C   UNL     1      -2.789  11.229  17.778  0.00  0.00    +0.000 A 
ATOM     26  C   UNL     1      -2.759  11.773  19.087  0.00  0.00    +0.000 A 
ATOM     27  C   UNL     1      -3.882  12.396  19.643  0.00  0.00    +0.000 A 
ATOM     28  C   UNL     1      -5.025  12.451  18.878  0.00  0.00    +0.000 A 
ATOM     29  C   UNL     1      -5.076  11.913  17.615  0.00  0.00    +0.000 A 
ATOM     30  C   UNL     1      -3.979  11.304  17.034  0.00  0.00    +0.000 A 
ATOM     31  O   UNL     1      -6.301  12.056  17.041  0.00  0.00    +0.000 OA
ATOM     32  C   UNL     1      -7.033  12.682  18.115  0.00  0.00    +0.000 C 
ATOM     33  O   UNL     1      -6.207  13.013  19.251  0.00  0.00    +0.000 OA
ENDBRANCH  24  25
ENDBRANCH  22  24
ENDBRANCH   5  20
TORSDOF 6
ENDMDL
MODEL 5
REMARK VINA RESULT:      -6.8      1.068      1.092
REMARK  Name = 
REMARK  6 active torsions:
REMARK  status: ('A' for Active; 'I' for Inactive)
REMARK    1  A    between atoms: C_2  and  C_3
REMARK    2  A    between atoms: C_6  and  C_7
REMARK    3  A    between atoms: C_9  and  C_10
REMARK    4  A    between atoms: C_17  and  C_18
REMARK    5  A    between atoms: N_20  and  C_21
REMARK    6  A    between atoms: C_21  and  C_22
REMARK                            x       y       z     vdW  Elec       q    Type
REMARK                         _______ _______ _______ _____ _____    ______ ____
ROOT
ATOM      1  C   UNL     1       1.354   9.205  19.466  0.00  0.00    +0.000 A 
ATOM      2  S   UNL     1       2.464   8.295  18.503  0.00  0.00    +0.000 S 
ATOM      3  C   UNL     1       2.308   6.952  19.557  0.00  0.00    +0.000 A 
ATOM      4  N   UNL     1       1.440   7.125  20.535  0.00  0.00    +0.000 NA
ATOM      5  C   UNL     1       0.908   8.413  20.525  0.00  0.00    +0.000 A 
ENDROOT
BRANCH   1   9
ATOM      6  C   UNL     1       0.222  13.282  18.743  0.00  0.00    +0.000 A 
ATOM      7  C   UNL     1      -0.592  12.246  18.296  0.00  0.00    +0.000 A 
ATOM      8  C   UNL     1      -0.182  10.920  18.464  0.00  0.00    +0.000 A 
ATOM      9  C   UNL     1       1.021  10.602  19.121  0.00  0.00    +0.000 A 
ATOM     10  C   UNL     1       1.847  11.665  19.512  0.00  0.00    +0.000 A 
ATOM     11  C   UNL     1       1.452  12.993  19.326  0.00  0.00    +0.000 A 
BRANCH   6  13
ATOM     12  N   UNL     1      -0.588  15.734  18.533  0.00  0.00    +0.000 NA
ATOM     13  C   UNL     1      -0.225  14.645  18.626  0.00  0.00    +0.000 C 
ENDBRANCH   6  13
ENDBRANCH   1   9
BRANCH   3  14
ATOM     14  C   UNL     1       3.113   5.680  19.331  0.00  0.00    +0.000 C 
ATOM     15  C   UNL     1       2.758   4.600  20.372  0.00  0.00    +0.000 C 
ATOM     16  C   UNL     1       1.334   4.070  20.200  0.00  0.00    +0.000 C 
ATOM     17  C   UNL     1       1.091   3.562  18.781  0.00  0.00    +0.000 C 
ATOM     18  C   UNL     1       1.464   4.590  17.714  0.00  0.00    +0.000 C 
ATOM     19  C   UNL     1       2.884   5.121  17.914  0.00  0.00    +0.000 C 
ENDBRANCH   3  14
BRANCH   5  20
ATOM     20  C   UNL     1      -0.005   8.874  21.593  0.00  0.00    +0.000 C 
ATOM     21  O   UNL     1      -0.924   8.182  22.021  0.00  0.00    +0.000 OA
ATOM     22  N   UNL     1       0.244  10.126  22.119  0.00  0.00    +0.000 N 
ATOM     23  H   UNL     1       0.983  10.690  21.717  0.00  0.00    +0.000 HD
BRANCH  22  24
ATOM     24  C   UNL     1      -0.575  10.620  23.208  0.00  0.00    +0.000 C 
BRANCH  24  25
ATOM     25  C   UNL     1      -1.682  11.544  22.752  0.00  0.00    +0.000 A 
ATOM     26  C   UNL     1      -1.635  12.132  21.462  0.00  0.00    +0.000 A 
ATOM     27  C   UNL     1      -2.651  12.983  21.012  0.00  0.00    +0.000 A 
ATOM     28  C   UNL     1      -3.694  13.242  21.872  0.00  0.00    +0.000 A 
ATOM     29  C   UNL     1      -3.745  12.696  23.132  0.00  0.00    +0.000 A 
ATOM     30  C   UNL     1      -2.764  11.841  23.599  0.00  0.00    +0.000 A 
ATOM     31  O   UNL     1      -4.845  13.095  23.825  0.00  0.00    +0.000 OA
ATOM     32  C   UNL     1      -5.442  14.009  22.882  0.00  0.00    +0.000 C 
ATOM     33  O   UNL     1      -4.763  14.042  21.609  0.00  0.00    +0.000 OA
ENDBRANCH  24  25
ENDBRANCH  22  24
ENDBRANCH   5  20
TORSDOF 6
ENDMDL
MODEL 6
REMARK VINA RESULT:      -6.7      3.128      8.452
REMARK  Name = 
REMARK  6 active torsions:
REMARK  status: ('A' for Active; 'I' for Inactive)
REMARK    1  A    between atoms: C_2  and  C_3
REMARK    2  A    between atoms: C_6  and  C_7
REMARK    3  A    between atoms: C_9  and  C_10
REMARK    4  A    between atoms: C_17  and  C_18
REMARK    5  A    between atoms: N_20  and  C_21
REMARK    6  A    between atoms: C_21  and  C_22
REMARK                            x       y       z     vdW  Elec       q    Type
REMARK                         _______ _______ _______ _____ _____    ______ ____
ROOT
ATOM      1  C   UNL     1      -1.669  13.015  20.852  0.00  0.00    +0.000 A 
ATOM      2  S   UNL     1      -1.910  14.721  20.980  0.00  0.00    +0.000 S 
ATOM      3  C   UNL     1      -1.288  14.709  22.577  0.00  0.00    +0.000 A 
ATOM      4  N   UNL     1      -0.861  13.530  22.987  0.00  0.00    +0.000 NA
ATOM      5  C   UNL     1      -1.099  12.541  22.034  0.00  0.00    +0.000 A 
ENDROOT
BRANCH   1   9
ATOM      6  C   UNL     1      -2.842  11.179  17.153  0.00  0.00    +0.000 A 
ATOM      7  C   UNL     1      -3.805  11.506  18.102  0.00  0.00    +0.000 A 
ATOM      8  C   UNL     1      -3.413  12.032  19.337  0.00  0.00    +0.000 A 
ATOM      9  C   UNL     1      -2.060  12.284  19.629  0.00  0.00    +0.000 A 
ATOM     10  C   UNL     1      -1.107  11.895  18.677  0.00  0.00    +0.000 A 
ATOM     11  C   UNL     1      -1.493  11.348  17.450  0.00  0.00    +0.000 A 
BRANCH   6  13
ATOM     12  N   UNL     1      -3.567  10.308  14.822  0.00  0.00    +0.000 NA
ATOM     13  C   UNL     1      -3.247  10.696  15.859  0.00  0.00    +0.000 C 
ENDBRANCH   6  13
ENDBRANCH   1   9
BRANCH   3  14
ATOM     14  C   UNL     1      -1.236  15.984  23.408  0.00  0.00    +0.000 C 
ATOM     15  C   UNL     1      -2.393  16.936  23.048  0.00  0.00    +0.000 C 
ATOM     16  C   UNL     1      -3.756  16.381  23.464  0.00  0.00    +0.000 C 
ATOM     17  C   UNL     1      -3.787  16.020  24.947  0.00  0.00    +0.000 C 
ATOM     18  C   UNL     1      -2.634  15.104  25.355  0.00  0.00    +0.000 C 
ATOM     19  C   UNL     1      -1.282  15.667  24.915  0.00  0.00    +0.000 C 
ENDBRANCH   3  14
BRANCH   5  20
ATOM     20  C   UNL     1      -0.806  11.119  22.316  0.00  0.00    +0.000 C 
ATOM     21  O   UNL     1      -1.414  10.476  23.166  0.00  0.00    +0.000 OA
ATOM     22  N   UNL     1       0.178  10.529  21.548  0.00  0.00    +0.000 N 
ATOM     23  H   UNL     1       0.691  11.097  20.885  0.00  0.00    +0.000 HD
BRANCH  22  24
ATOM     24  C   UNL     1       0.479   9.123  21.731  0.00  0.00    +0.000 C 
BRANCH  24  25
ATOM     25  C   UNL     1       1.225   8.514  20.563  0.00  0.00    +0.000 A 
ATOM     26  C   UNL     1       1.309   9.209  19.330  0.00  0.00    +0.000 A 
ATOM     27  C   UNL     1       2.000   8.672  18.237  0.00  0.00    +0.000 A 
ATOM     28  C   UNL     1       2.585   7.437  18.397  0.00  0.00    +0.000 A 
ATOM     29  C   UNL     1       2.497   6.743  19.579  0.00  0.00    +0.000 A 
ATOM     30  C   UNL     1       1.833   7.253  20.680  0.00  0.00    +0.000 A 
ATOM     31  O   UNL     1       3.125   5.538  19.520  0.00  0.00    +0.000 OA
ATOM     32  C   UNL     1       3.557   5.525  18.143  0.00  0.00    +0.000 C 
ATOM     33  O   UNL     1       3.292   6.763  17.450  0.00  0.00    +0.000 OA
ENDBRANCH  24  25
ENDBRANCH  22  24
ENDBRANCH   5  20
TORSDOF 6
ENDMDL
MODEL 7
REMARK VINA RESULT:      -6.7      0.825      1.683
REMARK  Name = 
REMARK  6 active torsions:
REMARK  status: ('A' for Active; 'I' for Inactive)
REMARK    1  A    between atoms: C_2  and  C_3
REMARK    2  A    between atoms: C_6  and  C_7
REMARK    3  A    between atoms: C_9  and  C_10
REMARK    4  A    between atoms: C_17  and  C_18
REMARK    5  A    between atoms: N_20  and  C_21
REMARK    6  A    between atoms: C_21  and  C_22
REMARK                            x       y       z     vdW  Elec       q    Type
REMARK                         _______ _______ _______ _____ _____    ______ ____
ROOT
ATOM      1  C   UNL     1       1.444   9.136  19.161  0.00  0.00    +0.000 A 
ATOM      2  S   UNL     1       1.997   8.078  17.911  0.00  0.00    +0.000 S 
ATOM      3  C   UNL     1       2.218   6.816  19.049  0.00  0.00    +0.000 A 
ATOM      4  N   UNL     1       1.849   7.120  20.279  0.00  0.00    +0.000 NA
ATOM      5  C   UNL     1       1.436   8.447  20.375  0.00  0.00    +0.000 A 
ENDROOT
BRANCH   1   9
ATOM      6  C   UNL     1       0.338  13.246  18.610  0.00  0.00    +0.000 A 
ATOM      7  C   UNL     1      -0.638  12.256  18.587  0.00  0.00    +0.000 A 
ATOM      8  C   UNL     1      -0.266  10.912  18.689  0.00  0.00    +0.000 A 
ATOM      9  C   UNL     1       1.078  10.535  18.862  0.00  0.00    +0.000 A 
ATOM     10  C   UNL     1       2.046  11.549  18.827  0.00  0.00    +0.000 A 
ATOM     11  C   UNL     1       1.681  12.893  18.703  0.00  0.00    +0.000 A 
BRANCH   6  13
ATOM     12  N   UNL     1      -0.351  15.743  18.533  0.00  0.00    +0.000 NA
ATOM     13  C   UNL     1      -0.047  14.633  18.568  0.00  0.00    +0.000 C 
ENDBRANCH   6  13
ENDBRANCH   1   9
BRANCH   3  14
ATOM     14  C   UNL     1       2.781   5.466  18.625  0.00  0.00    +0.000 C 
ATOM     15  C   UNL     1       3.312   5.510  17.179  0.00  0.00    +0.000 C 
ATOM     16  C   UNL     1       4.554   6.391  17.041  0.00  0.00    +0.000 C 
ATOM     17  C   UNL     1       5.653   5.972  18.015  0.00  0.00    +0.000 C 
ATOM     18  C   UNL     1       5.159   5.881  19.458  0.00  0.00    +0.000 C 
ATOM     19  C   UNL     1       3.907   5.010  19.573  0.00  0.00    +0.000 C 
ENDBRANCH   3  14
BRANCH   5  20
ATOM     20  C   UNL     1       1.080   9.047  21.679  0.00  0.00    +0.000 C 
ATOM     21  O   UNL     1       1.919   9.310  22.536  0.00  0.00    +0.000 OA
ATOM     22  N   UNL     1      -0.255   9.332  21.883  0.00  0.00    +0.000 N 
ATOM     23  H   UNL     1      -0.929   9.064  21.175  0.00  0.00    +0.000 HD
BRANCH  22  24
ATOM     24  C   UNL     1      -0.669   9.972  23.116  0.00  0.00    +0.000 C 
BRANCH  24  25
ATOM     25  C   UNL     1      -1.210  11.370  22.912  0.00  0.00    +0.000 A 
ATOM     26  C   UNL     1      -0.425  12.350  22.254  0.00  0.00    +0.000 A 
ATOM     27  C   UNL     1      -0.905  13.648  22.045  0.00  0.00    +0.000 A 
ATOM     28  C   UNL     1      -2.165  13.946  22.512  0.00  0.00    +0.000 A 
ATOM     29  C   UNL     1      -2.931  13.012  23.168  0.00  0.00    +0.000 A 
ATOM     30  C   UNL     1      -2.489  11.719  23.377  0.00  0.00    +0.000 A 
ATOM     31  O   UNL     1      -4.131  13.515  23.565  0.00  0.00    +0.000 OA
ATOM     32  C   UNL     1      -4.001  14.889  23.145  0.00  0.00    +0.000 C 
ATOM     33  O   UNL     1      -2.792  15.148  22.402  0.00  0.00    +0.000 OA
ENDBRANCH  24  25
ENDBRANCH  22  24
ENDBRANCH   5  20
TORSDOF 6
ENDMDL
MODEL 8
REMARK VINA RESULT:      -6.6      3.435      8.094
REMARK  Name = 
REMARK  6 active torsions:
REMARK  status: ('A' for Active; 'I' for Inactive)
REMARK    1  A    between atoms: C_2  and  C_3
REMARK    2  A    between atoms: C_6  and  C_7
REMARK    3  A    between atoms: C_9  and  C_10
REMARK    4  A    between atoms: C_17  and  C_18
REMARK    5  A    between atoms: N_20  and  C_21
REMARK    6  A    between atoms: C_21  and  C_22
REMARK                            x       y       z     vdW  Elec       q    Type
REMARK                         _______ _______ _______ _____ _____    ______ ____
ROOT
ATOM      1  C   UNL     1      -0.301  12.951  20.026  0.00  0.00    +0.000 A 
ATOM      2  S   UNL     1       0.216  14.543  19.595  0.00  0.00    +0.000 S 
ATOM      3  C   UNL     1       1.729  14.279  20.353  0.00  0.00    +0.000 A 
ATOM      4  N   UNL     1       1.888  13.066  20.848  0.00  0.00    +0.000 NA
ATOM      5  C   UNL     1       0.732  12.301  20.704  0.00  0.00    +0.000 A 
ENDROOT
BRANCH   1   9
ATOM      6  C   UNL     1      -4.279  11.842  18.858  0.00  0.00    +0.000 A 
ATOM      7  C   UNL     1      -4.077  12.571  20.025  0.00  0.00    +0.000 A 
ATOM      8  C   UNL     1      -2.775  12.863  20.443  0.00  0.00    +0.000 A 
ATOM      9  C   UNL     1      -1.657  12.476  19.683  0.00  0.00    +0.000 A 
ATOM     10  C   UNL     1      -1.888  11.696  18.540  0.00  0.00    +0.000 A 
ATOM     11  C   UNL     1      -3.187  11.382  18.130  0.00  0.00    +0.000 A 
BRANCH   6  13
ATOM     12  N   UNL     1      -6.690  11.395  18.017  0.00  0.00    +0.000 NA
ATOM     13  C   UNL     1      -5.619  11.593  18.393  0.00  0.00    +0.000 C 
ENDBRANCH   6  13
ENDBRANCH   1   9
BRANCH   3  14
ATOM     14  C   UNL     1       2.781  15.379  20.411  0.00  0.00    +0.000 C 
ATOM     15  C   UNL     1       4.159  14.861  19.957  0.00  0.00    +0.000 C 
ATOM     16  C   UNL     1       4.191  14.515  18.468  0.00  0.00    +0.000 C 
ATOM     17  C   UNL     1       3.740  15.693  17.607  0.00  0.00    +0.000 C 
ATOM     18  C   UNL     1       2.391  16.261  18.046  0.00  0.00    +0.000 C 
ATOM     19  C   UNL     1       2.373  16.584  19.542  0.00  0.00    +0.000 C 
ENDBRANCH   3  14
BRANCH   5  20
ATOM     20  C   UNL     1       0.634  10.944  21.282  0.00  0.00    +0.000 C 
ATOM     21  O   UNL     1       0.152  10.732  22.391  0.00  0.00    +0.000 OA
ATOM     22  N   UNL     1       1.088   9.905  20.495  0.00  0.00    +0.000 N 
ATOM     23  H   UNL     1       1.520  10.115  19.603  0.00  0.00    +0.000 HD
BRANCH  22  24
ATOM     24  C   UNL     1       0.972   8.541  20.975  0.00  0.00    +0.000 C 
BRANCH  24  25
ATOM     25  C   UNL     1       1.727   7.543  20.125  0.00  0.00    +0.000 A 
ATOM     26  C   UNL     1       2.251   7.928  18.865  0.00  0.00    +0.000 A 
ATOM     27  C   UNL     1       2.960   7.026  18.064  0.00  0.00    +0.000 A 
ATOM     28  C   UNL     1       3.121   5.743  18.536  0.00  0.00    +0.000 A 
ATOM     29  C   UNL     1       2.604   5.349  19.747  0.00  0.00    +0.000 A 
ATOM     30  C   UNL     1       1.911   6.221  20.566  0.00  0.00    +0.000 A 
ATOM     31  O   UNL     1       2.856   4.039  20.015  0.00  0.00    +0.000 OA
ATOM     32  C   UNL     1       3.530   3.640  18.803  0.00  0.00    +0.000 C 
ATOM     33  O   UNL     1       3.776   4.737  17.898  0.00  0.00    +0.000 OA
ENDBRANCH  24  25
ENDBRANCH  22  24
ENDBRANCH   5  20
TORSDOF 6
ENDMDL
MODEL 9
REMARK VINA RESULT:      -6.6      0.808      1.275
REMARK  Name = 
REMARK  6 active torsions:
REMARK  status: ('A' for Active; 'I' for Inactive)
REMARK    1  A    between atoms: C_2  and  C_3
REMARK    2  A    between atoms: C_6  and  C_7
REMARK    3  A    between atoms: C_9  and  C_10
REMARK    4  A    between atoms: C_17  and  C_18
REMARK    5  A    between atoms: N_20  and  C_21
REMARK    6  A    between atoms: C_21  and  C_22
REMARK                            x       y       z     vdW  Elec       q    Type
REMARK                         _______ _______ _______ _____ _____    ______ ____
ROOT
ATOM      1  C   UNL     1       1.337   9.819  19.269  0.00  0.00    +0.000 A 
ATOM      2  S   UNL     1       2.029   9.029  17.896  0.00  0.00    +0.000 S 
ATOM      3  C   UNL     1       2.288   7.609  18.818  0.00  0.00    +0.000 A 
ATOM      4  N   UNL     1       1.837   7.672  20.057  0.00  0.00    +0.000 NA
ATOM      5  C   UNL     1       1.321   8.934  20.348  0.00  0.00    +0.000 A 
ENDROOT
BRANCH   1   9
ATOM      6  C   UNL     1       0.174  13.917  18.748  0.00  0.00    +0.000 A 
ATOM      7  C   UNL     1       1.354  13.611  19.417  0.00  0.00    +0.000 A 
ATOM      8  C   UNL     1       1.691  12.274  19.653  0.00  0.00    +0.000 A 
ATOM      9  C   UNL     1       0.882  11.222  19.187  0.00  0.00    +0.000 A 
ATOM     10  C   UNL     1      -0.328  11.560  18.564  0.00  0.00    +0.000 A 
ATOM     11  C   UNL     1      -0.679  12.895  18.346  0.00  0.00    +0.000 A 
BRANCH   6  13
ATOM     12  N   UNL     1      -0.403  16.387  18.212  0.00  0.00    +0.000 NA
ATOM     13  C   UNL     1      -0.144  15.289  18.450  0.00  0.00    +0.000 C 
ENDBRANCH   6  13
ENDBRANCH   1   9
BRANCH   3  14
ATOM     14  C   UNL     1       2.971   6.391  18.210  0.00  0.00    +0.000 C 
ATOM     15  C   UNL     1       3.980   5.765  19.192  0.00  0.00    +0.000 C 
ATOM     16  C   UNL     1       3.297   5.131  20.404  0.00  0.00    +0.000 C 
ATOM     17  C   UNL     1       2.238   4.113  19.984  0.00  0.00    +0.000 C 
ATOM     18  C   UNL     1       1.237   4.684  18.982  0.00  0.00    +0.000 C 
ATOM     19  C   UNL     1       1.939   5.329  17.786  0.00  0.00    +0.000 C 
ENDBRANCH   3  14
BRANCH   5  20
ATOM     20  C   UNL     1       0.859   9.277  21.710  0.00  0.00    +0.000 C 
ATOM     21  O   UNL     1       1.577   9.164  22.699  0.00  0.00    +0.000 OA
ATOM     22  N   UNL     1      -0.427   9.766  21.820  0.00  0.00    +0.000 N 
ATOM     23  H   UNL     1      -1.010   9.807  20.991  0.00  0.00    +0.000 HD
BRANCH  22  24
ATOM     24  C   UNL     1      -0.929  10.175  23.116  0.00  0.00    +0.000 C 
BRANCH  24  25
ATOM     25  C   UNL     1      -1.499  11.576  23.122  0.00  0.00    +0.000 A 
ATOM     26  C   UNL     1      -0.750  12.654  22.587  0.00  0.00    +0.000 A 
ATOM     27  C   UNL     1      -1.257  13.958  22.572  0.00  0.00    +0.000 A 
ATOM     28  C   UNL     1      -2.508  14.162  23.109  0.00  0.00    +0.000 A 
ATOM     29  C   UNL     1      -3.240  13.132  23.649  0.00  0.00    +0.000 A 
ATOM     30  C   UNL     1      -2.770  11.831  23.665  0.00  0.00    +0.000 A 
ATOM     31  O   UNL     1      -4.436  13.550  24.143  0.00  0.00    +0.000 OA
ATOM     32  C   UNL     1      -4.341  14.971  23.915  0.00  0.00    +0.000 C 
ATOM     33  O   UNL     1      -3.158  15.355  23.183  0.00  0.00    +0.000 OA
ENDBRANCH  24  25
ENDBRANCH  22  24
ENDBRANCH   5  20
TORSDOF 6
ENDMDL
