MODEL 1
REMARK VINA RESULT:      -7.5      0.000      0.000
REMARK  Name = 
REMARK  8 active torsions:
REMARK  status: ('A' for Active; 'I' for Inactive)
REMARK    1  A    between atoms: C_2  and  C_3
REMARK    2  A    between atoms: C_3  and  C_16
REMARK    3  A    between atoms: C_4  and  C_5
REMARK    4  A    between atoms: C_7  and  O_8
REMARK    5  A    between atoms: C_9  and  O_10
REMARK    6  A    between atoms: C_11  and  N_12
REMARK    7  A    between atoms: N_18  and  C_19
REMARK    8  A    between atoms: C_19  and  C_20
REMARK                            x       y       z     vdW  Elec       q    Type
REMARK                         _______ _______ _______ _____ _____    ______ ____
ROOT
ATOM      1  C   UNL     1       2.066   8.275  18.640  0.00  0.00    +0.000 C 
ATOM      2  C   UNL     1       2.786   7.546  17.759  0.00  0.00    +0.000 C 
ENDROOT
BRANCH   2   3
ATOM      3  C   UNL     1       3.421   6.251  18.088  0.00  0.00    +0.000 A 
ATOM      4  C   UNL     1       2.663   5.075  18.226  0.00  0.00    +0.000 A 
ATOM      5  C   UNL     1       3.288   3.881  18.614  0.00  0.00    +0.000 A 
ATOM      6  C   UNL     1       4.659   3.827  18.852  0.00  0.00    +0.000 A 
ATOM      7  C   UNL     1       5.405   4.987  18.703  0.00  0.00    +0.000 A 
ATOM      8  C   UNL     1       4.801   6.201  18.330  0.00  0.00    +0.000 A 
BRANCH   7   9
ATOM      9  N   UNL     1       6.830   4.980  18.956  0.00  0.00    +0.000 N 
ATOM     10  O   UNL     1       7.230   5.484  20.013  0.00  0.00    +0.000 OA
ATOM     11  O   UNL     1       7.539   4.389  18.128  0.00  0.00    +0.000 OA
ENDBRANCH   7   9
BRANCH   5  12
ATOM     12  O   UNL     1       2.583   2.721  18.796  0.00  0.00    +0.000 OA
ATOM     13  H   UNL     1       2.866   2.301  19.627  0.00  0.00    +0.000 HD
ENDBRANCH   5  12
BRANCH   6  14
ATOM     14  O   UNL     1       5.211   2.645  19.259  0.00  0.00    +0.000 OA
ATOM     15  H   UNL     1       4.586   1.946  18.975  0.00  0.00    +0.000 HD
ENDBRANCH   6  14
ENDBRANCH   2   3
BRANCH   1  16
ATOM     16  C   UNL     1       1.482   9.598  18.270  0.00  0.00    +0.000 C 
ATOM     17  O   UNL     1       2.051  10.337  17.468  0.00  0.00    +0.000 OA
ATOM     18  N   UNL     1       0.291   9.931  18.869  0.00  0.00    +0.000 N 
ATOM     19  H   UNL     1      -0.109   9.382  19.620  0.00  0.00    +0.000 HD
BRANCH  18  20
ATOM     20  C   UNL     1      -0.366  11.203  18.614  0.00  0.00    +0.000 C 
BRANCH  20  21
ATOM     21  C   UNL     1      -1.750  11.024  18.037  0.00  0.00    +0.000 A 
ATOM     22  C   UNL     1      -1.949  10.185  16.956  0.00  0.00    +0.000 A 
ATOM     23  C   UNL     1      -3.236  10.098  16.478  0.00  0.00    +0.000 A 
ATOM     24  N   UNL     1      -4.270  10.776  17.005  0.00  0.00    +0.000 NA
ATOM     25  C   UNL     1      -3.973  11.570  18.044  0.00  0.00    +0.000 A 
ATOM     26  N   UNL     1      -2.758  11.739  18.591  0.00  0.00    +0.000 NA
ENDBRANCH  20  21
ENDBRANCH  18  20
ENDBRANCH   1  16
BRANCH   1  28
ATOM     27  N   UNL     1       1.653   7.241  21.189  0.00  0.00    +0.000 NA
ATOM     28  C   UNL     1       1.840   7.710  20.033  0.00  0.00    +0.000 C 
ENDBRANCH   1  28
TORSDOF 8
ENDMDL
MODEL 2
REMARK VINA RESULT:      -7.2      1.235      2.459
REMARK  Name = 
REMARK  8 active torsions:
REMARK  status: ('A' for Active; 'I' for Inactive)
REMARK    1  A    between atoms: C_2  and  C_3
REMARK    2  A    between atoms: C_3  and  C_16
REMARK    3  A    between atoms: C_4  and  C_5
REMARK    4  A    between atoms: C_7  and  O_8
REMARK    5  A    between atoms: C_9  and  O_10
REMARK    6  A    between atoms: C_11  and  N_12
REMARK    7  A    between atoms: N_18  and  C_19
REMARK    8  A    between atoms: C_19  and  C_20
REMARK                            x       y       z     vdW  Elec       q    Type
REMARK                         _______ _______ _______ _____ _____    ______ ____
ROOT
ATOM      1  C   UNL     1       2.052   8.081  18.792  0.00  0.00    +0.000 C 
ATOM      2  C   UNL     1       2.751   7.243  17.994  0.00  0.00    +0.000 C 
ENDROOT
BRANCH   2   3
ATOM      3  C   UNL     1       3.335   5.964  18.455  0.00  0.00    +0.000 A 
ATOM      4  C   UNL     1       4.719   5.726  18.399  0.00  0.00    +0.000 A 
ATOM      5  C   UNL     1       5.230   4.475  18.774  0.00  0.00    +0.000 A 
ATOM      6  C   UNL     1       4.392   3.456  19.220  0.00  0.00    +0.000 A 
ATOM      7  C   UNL     1       3.027   3.700  19.285  0.00  0.00    +0.000 A 
ATOM      8  C   UNL     1       2.488   4.940  18.901  0.00  0.00    +0.000 A 
BRANCH   7   9
ATOM      9  N   UNL     1       2.118   2.663  19.727  0.00  0.00    +0.000 N 
ATOM     10  O   UNL     1       1.405   2.904  20.710  0.00  0.00    +0.000 OA
ATOM     11  O   UNL     1       2.063   1.638  19.032  0.00  0.00    +0.000 OA
ENDBRANCH   7   9
BRANCH   5  12
ATOM     12  O   UNL     1       6.567   4.187  18.702  0.00  0.00    +0.000 OA
ATOM     13  H   UNL     1       7.073   4.911  19.109  0.00  0.00    +0.000 HD
ENDBRANCH   5  12
BRANCH   6  14
ATOM     14  O   UNL     1       4.939   2.246  19.541  0.00  0.00    +0.000 OA
ATOM     15  H   UNL     1       5.698   2.443  20.128  0.00  0.00    +0.000 HD
ENDBRANCH   6  14
ENDBRANCH   2   3
BRANCH   1  16
ATOM     16  C   UNL     1       1.520   9.381  18.287  0.00  0.00    +0.000 C 
ATOM     17  O   UNL     1       2.061   9.962  17.348  0.00  0.00    +0.000 OA
ATOM     18  N   UNL     1       0.410   9.878  18.925  0.00  0.00    +0.000 N 
ATOM     19  H   UNL     1       0.044   9.465  19.775  0.00  0.00    +0.000 HD
BRANCH  18  20
ATOM     20  C   UNL     1      -0.188  11.148  18.548  0.00  0.00    +0.000 C 
BRANCH  20  21
ATOM     21  C   UNL     1      -1.619  10.992  18.092  0.00  0.00    +0.000 A 
ATOM     22  C   UNL     1      -1.926  10.141  17.047  0.00  0.00    +0.000 A 
ATOM     23  C   UNL     1      -3.251  10.076  16.681  0.00  0.00    +0.000 A 
ATOM     24  N   UNL     1      -4.222  10.786  17.280  0.00  0.00    +0.000 NA
ATOM     25  C   UNL     1      -3.822  11.589  18.276  0.00  0.00    +0.000 A 
ATOM     26  N   UNL     1      -2.561  11.738  18.716  0.00  0.00    +0.000 NA
ENDBRANCH  20  21
ENDBRANCH  18  20
ENDBRANCH   1  16
BRANCH   1  28
ATOM     27  N   UNL     1       1.584   7.319  21.425  0.00  0.00    +0.000 NA
ATOM     28  C   UNL     1       1.796   7.664  20.231  0.00  0.00    +0.000 C 
ENDBRANCH   1  28
TORSDOF 8
ENDMDL
MODEL 3
REMARK VINA RESULT:      -7.1      2.932      3.936
REMARK  Name = 
REMARK  8 active torsions:
REMARK  status: ('A' for Active; 'I' for Inactive)
REMARK    1  A    between atoms: C_2  and  C_3
REMARK    2  A    between atoms: C_3  and  C_16
REMARK    3  A    between atoms: C_4  and  C_5
REMARK    4  A    between atoms: C_7  and  O_8
REMARK    5  A    between atoms: C_9  and  O_10
REMARK    6  A    between atoms: C_11  and  N_12
REMARK    7  A    between atoms: N_18  and  C_19
REMARK    8  A    between atoms: C_19  and  C_20
REMARK                            x       y       z     vdW  Elec       q    Type
REMARK                         _______ _______ _______ _____ _____    ______ ____
ROOT
ATOM      1  C   UNL     1       2.742   7.567  18.027  0.00  0.00    +0.000 C 
ATOM      2  C   UNL     1       3.903   7.747  17.358  0.00  0.00    +0.000 C 
ENDROOT
BRANCH   2   3
ATOM      3  C   UNL     1       4.977   6.732  17.288  0.00  0.00    +0.000 A 
ATOM      4  C   UNL     1       5.674   6.320  18.438  0.00  0.00    +0.000 A 
ATOM      5  C   UNL     1       6.738   5.413  18.324  0.00  0.00    +0.000 A 
ATOM      6  C   UNL     1       7.114   4.892  17.088  0.00  0.00    +0.000 A 
ATOM      7  C   UNL     1       6.416   5.292  15.958  0.00  0.00    +0.000 A 
ATOM      8  C   UNL     1       5.356   6.211  16.042  0.00  0.00    +0.000 A 
BRANCH   7   9
ATOM      9  N   UNL     1       6.785   4.788  14.652  0.00  0.00    +0.000 N 
ATOM     10  O   UNL     1       6.094   3.881  14.169  0.00  0.00    +0.000 OA
ATOM     11  O   UNL     1       7.719   5.365  14.077  0.00  0.00    +0.000 OA
ENDBRANCH   7   9
BRANCH   5  12
ATOM     12  O   UNL     1       7.467   5.011  19.411  0.00  0.00    +0.000 OA
ATOM     13  H   UNL     1       8.304   5.506  19.437  0.00  0.00    +0.000 HD
ENDBRANCH   5  12
BRANCH   6  14
ATOM     14  O   UNL     1       8.178   4.036  17.031  0.00  0.00    +0.000 OA
ATOM     15  H   UNL     1       8.764   4.384  16.327  0.00  0.00    +0.000 HD
ENDBRANCH   6  14
ENDBRANCH   2   3
BRANCH   1  16
ATOM     16  C   UNL     1       1.708   8.641  18.102  0.00  0.00    +0.000 C 
ATOM     17  O   UNL     1       1.057   8.961  17.109  0.00  0.00    +0.000 OA
ATOM     18  N   UNL     1       1.533   9.237  19.327  0.00  0.00    +0.000 N 
ATOM     19  H   UNL     1       2.154   9.062  20.108  0.00  0.00    +0.000 HD
BRANCH  18  20
ATOM     20  C   UNL     1       0.577  10.315  19.526  0.00  0.00    +0.000 C 
BRANCH  20  21
ATOM     21  C   UNL     1       0.087  10.387  20.953  0.00  0.00    +0.000 A 
ATOM     22  C   UNL     1       0.348   9.351  21.830  0.00  0.00    +0.000 A 
ATOM     23  C   UNL     1      -0.155   9.488  23.103  0.00  0.00    +0.000 A 
ATOM     24  N   UNL     1      -0.864  10.554  23.511  0.00  0.00    +0.000 NA
ATOM     25  C   UNL     1      -1.070  11.501  22.584  0.00  0.00    +0.000 A 
ATOM     26  N   UNL     1      -0.636  11.474  21.313  0.00  0.00    +0.000 NA
ENDBRANCH  20  21
ENDBRANCH  18  20
ENDBRANCH   1  16
BRANCH   1  28
ATOM     27  N   UNL     1       2.288   5.114  19.257  0.00  0.00    +0.000 NA
ATOM     28  C   UNL     1       2.494   6.226  18.699  0.00  0.00    +0.000 C 
ENDBRANCH   1  28
TORSDOF 8
ENDMDL
MODEL 4
REMARK VINA RESULT:      -7.1      1.287      2.652
REMARK  Name = 
REMARK  8 active torsions:
REMARK  status: ('A' for Active; 'I' for Inactive)
REMARK    1  A    between atoms: C_2  and  C_3
REMARK    2  A    between atoms: C_3  and  C_16
REMARK    3  A    between atoms: C_4  and  C_5
REMARK    4  A    between atoms: C_7  and  O_8
REMARK    5  A    between atoms: C_9  and  O_10
REMARK    6  A    between atoms: C_11  and  N_12
REMARK    7  A    between atoms: N_18  and  C_19
REMARK    8  A    between atoms: C_19  and  C_20
REMARK                            x       y       z     vdW  Elec       q    Type
REMARK                         _______ _______ _______ _____ _____    ______ ____
ROOT
ATOM      1  C   UNL     1       1.969   8.367  18.741  0.00  0.00    +0.000 C 
ATOM      2  C   UNL     1       2.676   7.568  17.910  0.00  0.00    +0.000 C 
ENDROOT
BRANCH   2   3
ATOM      3  C   UNL     1       3.264   6.274  18.319  0.00  0.00    +0.000 A 
ATOM      4  C   UNL     1       4.595   6.179  18.761  0.00  0.00    +0.000 A 
ATOM      5  C   UNL     1       5.144   4.924  19.068  0.00  0.00    +0.000 A 
ATOM      6  C   UNL     1       4.388   3.760  18.959  0.00  0.00    +0.000 A 
ATOM      7  C   UNL     1       3.071   3.860  18.533  0.00  0.00    +0.000 A 
ATOM      8  C   UNL     1       2.502   5.103  18.205  0.00  0.00    +0.000 A 
BRANCH   7   9
ATOM      9  N   UNL     1       2.255   2.672  18.390  0.00  0.00    +0.000 N 
ATOM     10  O   UNL     1       2.677   1.768  17.659  0.00  0.00    +0.000 OA
ATOM     11  O   UNL     1       1.228   2.616  19.084  0.00  0.00    +0.000 OA
ENDBRANCH   7   9
BRANCH   5  12
ATOM     12  O   UNL     1       6.445   4.781  19.468  0.00  0.00    +0.000 OA
ATOM     13  H   UNL     1       6.740   5.601  19.901  0.00  0.00    +0.000 HD
ENDBRANCH   5  12
BRANCH   6  14
ATOM     14  O   UNL     1       4.981   2.561  19.239  0.00  0.00    +0.000 OA
ATOM     15  H   UNL     1       4.503   1.894  18.705  0.00  0.00    +0.000 HD
ENDBRANCH   6  14
ENDBRANCH   2   3
BRANCH   1  16
ATOM     16  C   UNL     1       1.433   9.686  18.290  0.00  0.00    +0.000 C 
ATOM     17  O   UNL     1       2.051  10.375  17.480  0.00  0.00    +0.000 OA
ATOM     18  N   UNL     1       0.229  10.073  18.827  0.00  0.00    +0.000 N 
ATOM     19  H   UNL     1      -0.213   9.567  19.585  0.00  0.00    +0.000 HD
BRANCH  18  20
ATOM     20  C   UNL     1      -0.386  11.347  18.491  0.00  0.00    +0.000 C 
BRANCH  20  21
ATOM     21  C   UNL     1      -1.800  11.182  17.985  0.00  0.00    +0.000 A 
ATOM     22  C   UNL     1      -2.850  11.786  18.651  0.00  0.00    +0.000 A 
ATOM     23  C   UNL     1      -4.107  11.565  18.137  0.00  0.00    +0.000 A 
ATOM     24  N   UNL     1      -4.342  10.809  17.051  0.00  0.00    +0.000 NA
ATOM     25  C   UNL     1      -3.259  10.260  16.482  0.00  0.00    +0.000 A 
ATOM     26  N   UNL     1      -1.989  10.399  16.896  0.00  0.00    +0.000 NA
ENDBRANCH  20  21
ENDBRANCH  18  20
ENDBRANCH   1  16
BRANCH   1  28
ATOM     27  N   UNL     1       1.493   7.490  21.337  0.00  0.00    +0.000 NA
ATOM     28  C   UNL     1       1.709   7.888  20.160  0.00  0.00    +0.000 C 
ENDBRANCH   1  28
TORSDOF 8
ENDMDL
MODEL 5
REMARK VINA RESULT:      -7.1      3.005      3.925
REMARK  Name = 
REMARK  8 active torsions:
REMARK  status: ('A' for Active; 'I' for Inactive)
REMARK    1  A    between atoms: C_2  and  C_3
REMARK    2  A    between atoms: C_3  and  C_16
REMARK    3  A    between atoms: C_4  and  C_5
REMARK    4  A    between atoms: C_7  and  O_8
REMARK    5  A    between atoms: C_9  and  O_10
REMARK    6  A    between atoms: C_11  and  N_12
REMARK    7  A    between atoms: N_18  and  C_19
REMARK    8  A    between atoms: C_19  and  C_20
REMARK                            x       y       z     vdW  Elec       q    Type
REMARK                         _______ _______ _______ _____ _____    ______ ____
ROOT
ATOM      1  C   UNL     1       2.758   7.569  18.139  0.00  0.00    +0.000 C 
ATOM      2  C   UNL     1       3.861   7.679  17.366  0.00  0.00    +0.000 C 
ENDROOT
BRANCH   2   3
ATOM      3  C   UNL     1       4.953   6.680  17.344  0.00  0.00    +0.000 A 
ATOM      4  C   UNL     1       5.614   6.289  18.522  0.00  0.00    +0.000 A 
ATOM      5  C   UNL     1       6.695   5.397  18.455  0.00  0.00    +0.000 A 
ATOM      6  C   UNL     1       7.124   4.872  17.238  0.00  0.00    +0.000 A 
ATOM      7  C   UNL     1       6.460   5.252  16.080  0.00  0.00    +0.000 A 
ATOM      8  C   UNL     1       5.384   6.155  16.118  0.00  0.00    +0.000 A 
BRANCH   7   9
ATOM      9  N   UNL     1       6.884   4.742  14.793  0.00  0.00    +0.000 N 
ATOM     10  O   UNL     1       7.856   5.283  14.250  0.00  0.00    +0.000 OA
ATOM     11  O   UNL     1       6.289   3.741  14.368  0.00  0.00    +0.000 OA
ENDBRANCH   7   9
BRANCH   5  12
ATOM     12  O   UNL     1       7.390   5.017  19.571  0.00  0.00    +0.000 OA
ATOM     13  H   UNL     1       7.175   5.619  20.304  0.00  0.00    +0.000 HD
ENDBRANCH   5  12
BRANCH   6  14
ATOM     14  O   UNL     1       8.202   4.033  17.226  0.00  0.00    +0.000 OA
ATOM     15  H   UNL     1       8.527   4.027  16.303  0.00  0.00    +0.000 HD
ENDBRANCH   6  14
ENDBRANCH   2   3
BRANCH   1  16
ATOM     16  C   UNL     1       1.706   8.627  18.156  0.00  0.00    +0.000 C 
ATOM     17  O   UNL     1       1.167   8.999  17.115  0.00  0.00    +0.000 OA
ATOM     18  N   UNL     1       1.382   9.149  19.385  0.00  0.00    +0.000 N 
ATOM     19  H   UNL     1       1.913   8.935  20.220  0.00  0.00    +0.000 HD
BRANCH  18  20
ATOM     20  C   UNL     1       0.394  10.205  19.533  0.00  0.00    +0.000 C 
BRANCH  20  21
ATOM     21  C   UNL     1      -0.083  10.344  20.960  0.00  0.00    +0.000 A 
ATOM     22  C   UNL     1      -0.716  11.502  21.371  0.00  0.00    +0.000 A 
ATOM     23  C   UNL     1      -1.097  11.554  22.692  0.00  0.00    +0.000 A 
ATOM     24  N   UNL     1      -0.882  10.556  23.566  0.00  0.00    +0.000 NA
ATOM     25  C   UNL     1      -0.254   9.479  23.072  0.00  0.00    +0.000 A 
ATOM     26  N   UNL     1       0.168   9.318  21.807  0.00  0.00    +0.000 NA
ENDBRANCH  20  21
ENDBRANCH  18  20
ENDBRANCH   1  16
BRANCH   1  28
ATOM     27  N   UNL     1       2.458   5.288  19.702  0.00  0.00    +0.000 NA
ATOM     28  C   UNL     1       2.594   6.322  18.993  0.00  0.00    +0.000 C 
ENDBRANCH   1  28
TORSDOF 8
ENDMDL
MODEL 6
REMARK VINA RESULT:      -7.0      2.168      2.815
REMARK  Name = 
REMARK  8 active torsions:
REMARK  status: ('A' for Active; 'I' for Inactive)
REMARK    1  A    between atoms: C_2  and  C_3
REMARK    2  A    between atoms: C_3  and  C_16
REMARK    3  A    between atoms: C_4  and  C_5
REMARK    4  A    between atoms: C_7  and  O_8
REMARK    5  A    between atoms: C_9  and  O_10
REMARK    6  A    between atoms: C_11  and  N_12
REMARK    7  A    between atoms: N_18  and  C_19
REMARK    8  A    between atoms: C_19  and  C_20
REMARK                            x       y       z     vdW  Elec       q    Type
REMARK                         _______ _______ _______ _____ _____    ______ ____
ROOT
ATOM      1  C   UNL     1       1.649   7.432  20.283  0.00  0.00    +0.000 C 
ATOM      2  C   UNL     1       1.409   6.218  20.828  0.00  0.00    +0.000 C 
ENDROOT
BRANCH   2   3
ATOM      3  C   UNL     1       1.796   4.940  20.190  0.00  0.00    +0.000 A 
ATOM      4  C   UNL     1       0.843   4.105  19.581  0.00  0.00    +0.000 A 
ATOM      5  C   UNL     1       1.233   2.865  19.053  0.00  0.00    +0.000 A 
ATOM      6  C   UNL     1       2.560   2.443  19.105  0.00  0.00    +0.000 A 
ATOM      7  C   UNL     1       3.499   3.276  19.697  0.00  0.00    +0.000 A 
ATOM      8  C   UNL     1       3.132   4.517  20.246  0.00  0.00    +0.000 A 
BRANCH   7   9
ATOM      9  N   UNL     1       4.886   2.870  19.786  0.00  0.00    +0.000 N 
ATOM     10  O   UNL     1       5.133   1.780  20.319  0.00  0.00    +0.000 OA
ATOM     11  O   UNL     1       5.718   3.610  19.242  0.00  0.00    +0.000 OA
ENDBRANCH   7   9
BRANCH   5  12
ATOM     12  O   UNL     1       0.334   2.005  18.483  0.00  0.00    +0.000 OA
ATOM     13  H   UNL     1       0.535   1.912  17.536  0.00  0.00    +0.000 HD
ENDBRANCH   5  12
BRANCH   6  14
ATOM     14  O   UNL     1       2.880   1.213  18.605  0.00  0.00    +0.000 OA
ATOM     15  H   UNL     1       2.240   0.587  19.004  0.00  0.00    +0.000 HD
ENDBRANCH   6  14
ENDBRANCH   2   3
BRANCH   1  16
ATOM     16  C   UNL     1       1.199   8.690  20.948  0.00  0.00    +0.000 C 
ATOM     17  O   UNL     1       1.070   8.748  22.169  0.00  0.00    +0.000 OA
ATOM     18  N   UNL     1       0.944   9.760  20.124  0.00  0.00    +0.000 N 
ATOM     19  H   UNL     1       0.927   9.674  19.115  0.00  0.00    +0.000 HD
BRANCH  18  20
ATOM     20  C   UNL     1       0.473  11.033  20.645  0.00  0.00    +0.000 C 
BRANCH  20  21
ATOM     21  C   UNL     1      -0.891  11.400  20.107  0.00  0.00    +0.000 A 
ATOM     22  C   UNL     1      -1.325  10.881  18.902  0.00  0.00    +0.000 A 
ATOM     23  C   UNL     1      -2.568  11.285  18.475  0.00  0.00    +0.000 A 
ATOM     24  N   UNL     1      -3.348  12.137  19.162  0.00  0.00    +0.000 NA
ATOM     25  C   UNL     1      -2.834  12.592  20.314  0.00  0.00    +0.000 A 
ATOM     26  N   UNL     1      -1.634  12.273  20.828  0.00  0.00    +0.000 NA
ENDBRANCH  20  21
ENDBRANCH  18  20
ENDBRANCH   1  16
BRANCH   1  28
ATOM     27  N   UNL     1       3.043   7.553  17.880  0.00  0.00    +0.000 NA
ATOM     28  C   UNL     1       2.411   7.498  18.969  0.00  0.00    +0.000 C 
ENDBRANCH   1  28
TORSDOF 8
ENDMDL
MODEL 7
REMARK VINA RESULT:      -6.9      1.874      2.117
REMARK  Name = 
REMARK  8 active torsions:
REMARK  status: ('A' for Active; 'I' for Inactive)
REMARK    1  A    between atoms: C_2  and  C_3
REMARK    2  A    between atoms: C_3  and  C_16
REMARK    3  A    between atoms: C_4  and  C_5
REMARK    4  A    between atoms: C_7  and  O_8
REMARK    5  A    between atoms: C_9  and  O_10
REMARK    6  A    between atoms: C_11  and  N_12
REMARK    7  A    between atoms: N_18  and  C_19
REMARK    8  A    between atoms: C_19  and  C_20
REMARK                            x       y       z     vdW  Elec       q    Type
REMARK                         _______ _______ _______ _____ _____    ______ ____
ROOT
ATOM      1  C   UNL     1       2.162   7.261  19.710  0.00  0.00    +0.000 C 
ATOM      2  C   UNL     1       2.754   7.375  18.500  0.00  0.00    +0.000 C 
ENDROOT
BRANCH   2   3
ATOM      3  C   UNL     1       3.530   6.291  17.860  0.00  0.00    +0.000 A 
ATOM      4  C   UNL     1       3.005   4.995  17.720  0.00  0.00    +0.000 A 
ATOM      5  C   UNL     1       3.798   3.972  17.178  0.00  0.00    +0.000 A 
ATOM      6  C   UNL     1       5.102   4.217  16.754  0.00  0.00    +0.000 A 
ATOM      7  C   UNL     1       5.612   5.501  16.883  0.00  0.00    +0.000 A 
ATOM      8  C   UNL     1       4.844   6.540  17.438  0.00  0.00    +0.000 A 
BRANCH   7   9
ATOM      9  N   UNL     1       6.969   5.795  16.471  0.00  0.00    +0.000 N 
ATOM     10  O   UNL     1       7.320   5.427  15.343  0.00  0.00    +0.000 OA
ATOM     11  O   UNL     1       7.653   6.473  17.252  0.00  0.00    +0.000 OA
ENDBRANCH   7   9
BRANCH   5  12
ATOM     12  O   UNL     1       3.339   2.688  17.055  0.00  0.00    +0.000 OA
ATOM     13  H   UNL     1       3.915   2.092  17.565  0.00  0.00    +0.000 HD
ENDBRANCH   5  12
BRANCH   6  14
ATOM     14  O   UNL     1       5.841   3.178  16.263  0.00  0.00    +0.000 OA
ATOM     15  H   UNL     1       6.668   3.166  16.787  0.00  0.00    +0.000 HD
ENDBRANCH   6  14
ENDBRANCH   2   3
BRANCH   1  16
ATOM     16  C   UNL     1       1.426   8.402  20.332  0.00  0.00    +0.000 C 
ATOM     17  O   UNL     1       1.233   8.442  21.545  0.00  0.00    +0.000 OA
ATOM     18  N   UNL     1       0.987   9.384  19.478  0.00  0.00    +0.000 N 
ATOM     19  H   UNL     1       1.034   9.287  18.471  0.00  0.00    +0.000 HD
BRANCH  18  20
ATOM     20  C   UNL     1       0.233  10.533  19.955  0.00  0.00    +0.000 C 
BRANCH  20  21
ATOM     21  C   UNL     1      -1.006  10.785  19.128  0.00  0.00    +0.000 A 
ATOM     22  C   UNL     1      -1.178  10.138  17.919  0.00  0.00    +0.000 A 
ATOM     23  C   UNL     1      -2.322  10.443  17.220  0.00  0.00    +0.000 A 
ATOM     24  N   UNL     1      -3.247  11.317  17.655  0.00  0.00    +0.000 NA
ATOM     25  C   UNL     1      -2.984  11.898  18.834  0.00  0.00    +0.000 A 
ATOM     26  N   UNL     1      -1.902  11.685  19.600  0.00  0.00    +0.000 NA
ENDBRANCH  20  21
ENDBRANCH  18  20
ENDBRANCH   1  16
BRANCH   1  28
ATOM     27  N   UNL     1       2.311   4.820  21.033  0.00  0.00    +0.000 NA
ATOM     28  C   UNL     1       2.243   5.927  20.433  0.00  0.00    +0.000 C 
ENDBRANCH   1  28
TORSDOF 8
ENDMDL
MODEL 8
REMARK VINA RESULT:      -6.9      3.029      3.854
REMARK  Name = 
REMARK  8 active torsions:
REMARK  status: ('A' for Active; 'I' for Inactive)
REMARK    1  A    between atoms: C_2  and  C_3
REMARK    2  A    between atoms: C_3  and  C_16
REMARK    3  A    between atoms: C_4  and  C_5
REMARK    4  A    between atoms: C_7  and  O_8
REMARK    5  A    between atoms: C_9  and  O_10
REMARK    6  A    between atoms: C_11  and  N_12
REMARK    7  A    between atoms: N_18  and  C_19
REMARK    8  A    between atoms: C_19  and  C_20
REMARK                            x       y       z     vdW  Elec       q    Type
REMARK                         _______ _______ _______ _____ _____    ______ ____
ROOT
ATOM      1  C   UNL     1       2.542   7.447  18.236  0.00  0.00    +0.000 C 
ATOM      2  C   UNL     1       1.874   6.426  18.819  0.00  0.00    +0.000 C 
ENDROOT
BRANCH   2   3
ATOM      3  C   UNL     1       2.307   5.013  18.746  0.00  0.00    +0.000 A 
ATOM      4  C   UNL     1       2.172   4.263  17.565  0.00  0.00    +0.000 A 
ATOM      5  C   UNL     1       2.522   2.905  17.553  0.00  0.00    +0.000 A 
ATOM      6  C   UNL     1       3.021   2.278  18.692  0.00  0.00    +0.000 A 
ATOM      7  C   UNL     1       3.164   3.025  19.853  0.00  0.00    +0.000 A 
ATOM      8  C   UNL     1       2.807   4.384  19.896  0.00  0.00    +0.000 A 
BRANCH   7   9
ATOM      9  N   UNL     1       3.664   2.409  21.064  0.00  0.00    +0.000 N 
ATOM     10  O   UNL     1       4.824   1.976  21.054  0.00  0.00    +0.000 OA
ATOM     11  O   UNL     1       2.915   2.438  22.052  0.00  0.00    +0.000 OA
ENDBRANCH   7   9
BRANCH   5  12
ATOM     12  O   UNL     1       2.374   2.128  16.436  0.00  0.00    +0.000 OA
ATOM     13  H   UNL     1       1.428   1.949  16.293  0.00  0.00    +0.000 HD
ENDBRANCH   5  12
BRANCH   6  14
ATOM     14  O   UNL     1       3.316   0.945  18.635  0.00  0.00    +0.000 OA
ATOM     15  H   UNL     1       3.638   0.781  17.724  0.00  0.00    +0.000 HD
ENDBRANCH   6  14
ENDBRANCH   2   3
BRANCH   1  16
ATOM     16  C   UNL     1       2.038   8.850  18.304  0.00  0.00    +0.000 C 
ATOM     17  O   UNL     1       2.302   9.659  17.416  0.00  0.00    +0.000 OA
ATOM     18  N   UNL     1       1.275   9.175  19.399  0.00  0.00    +0.000 N 
ATOM     19  H   UNL     1       1.165   8.548  20.187  0.00  0.00    +0.000 HD
BRANCH  18  20
ATOM     20  C   UNL     1       0.748  10.515  19.596  0.00  0.00    +0.000 C 
BRANCH  20  21
ATOM     21  C   UNL     1       0.088  10.676  20.946  0.00  0.00    +0.000 A 
ATOM     22  C   UNL     1      -0.487  11.883  21.298  0.00  0.00    +0.000 A 
ATOM     23  C   UNL     1      -1.044  11.950  22.554  0.00  0.00    +0.000 A 
ATOM     24  N   UNL     1      -1.049  10.922  23.420  0.00  0.00    +0.000 NA
ATOM     25  C   UNL     1      -0.459   9.798  22.988  0.00  0.00    +0.000 A 
ATOM     26  N   UNL     1       0.122   9.618  21.790  0.00  0.00    +0.000 NA
ENDBRANCH  20  21
ENDBRANCH  18  20
ENDBRANCH   1  16
BRANCH   1  28
ATOM     27  N   UNL     1       4.924   6.889  16.914  0.00  0.00    +0.000 NA
ATOM     28  C   UNL     1       3.844   7.142  17.514  0.00  0.00    +0.000 C 
ENDBRANCH   1  28
TORSDOF 8
ENDMDL
MODEL 9
REMARK VINA RESULT:      -6.9      3.155      8.260
REMARK  Name = 
REMARK  8 active torsions:
REMARK  status: ('A' for Active; 'I' for Inactive)
REMARK    1  A    between atoms: C_2  and  C_3
REMARK    2  A    between atoms: C_3  and  C_16
REMARK    3  A    between atoms: C_4  and  C_5
REMARK    4  A    between atoms: C_7  and  O_8
REMARK    5  A    between atoms: C_9  and  O_10
REMARK    6  A    between atoms: C_11  and  N_12
REMARK    7  A    between atoms: N_18  and  C_19
REMARK    8  A    between atoms: C_19  and  C_20
REMARK                            x       y       z     vdW  Elec       q    Type
REMARK                         _______ _______ _______ _____ _____    ______ ____
ROOT
ATOM      1  C   UNL     1       3.270   5.737  18.883  0.00  0.00    +0.000 C 
ATOM      2  C   UNL     1       3.249   7.056  18.588  0.00  0.00    +0.000 C 
ENDROOT
BRANCH   2   3
ATOM      3  C   UNL     1       2.150   7.967  18.976  0.00  0.00    +0.000 A 
ATOM      4  C   UNL     1       1.452   8.725  18.020  0.00  0.00    +0.000 A 
ATOM      5  C   UNL     1       0.467   9.636  18.431  0.00  0.00    +0.000 A 
ATOM      6  C   UNL     1       0.149   9.797  19.778  0.00  0.00    +0.000 A 
ATOM      7  C   UNL     1       0.833   9.038  20.717  0.00  0.00    +0.000 A 
ATOM      8  C   UNL     1       1.834   8.129  20.333  0.00  0.00    +0.000 A 
BRANCH   7   9
ATOM      9  N   UNL     1       0.545   9.186  22.128  0.00  0.00    +0.000 N 
ATOM     10  O   UNL     1      -0.594   8.897  22.517  0.00  0.00    +0.000 OA
ATOM     11  O   UNL     1       1.494   9.512  22.858  0.00  0.00    +0.000 OA
ENDBRANCH   7   9
BRANCH   5  12
ATOM     12  O   UNL     1      -0.212  10.420  17.538  0.00  0.00    +0.000 OA
ATOM     13  H   UNL     1       0.180  11.311  17.530  0.00  0.00    +0.000 HD
ENDBRANCH   5  12
BRANCH   6  14
ATOM     14  O   UNL     1      -0.795  10.722  20.125  0.00  0.00    +0.000 OA
ATOM     15  H   UNL     1      -1.639  10.395  19.751  0.00  0.00    +0.000 HD
ENDBRANCH   6  14
ENDBRANCH   2   3
BRANCH   1  16
ATOM     16  C   UNL     1       4.383   4.851  18.430  0.00  0.00    +0.000 C 
ATOM     17  O   UNL     1       4.332   3.635  18.601  0.00  0.00    +0.000 OA
ATOM     18  N   UNL     1       5.447   5.470  17.820  0.00  0.00    +0.000 N 
ATOM     19  H   UNL     1       5.545   6.478  17.794  0.00  0.00    +0.000 HD
BRANCH  18  20
ATOM     20  C   UNL     1       6.607   4.723  17.359  0.00  0.00    +0.000 C 
BRANCH  20  21
ATOM     21  C   UNL     1       6.652   4.613  15.853  0.00  0.00    +0.000 A 
ATOM     22  C   UNL     1       5.800   3.746  15.194  0.00  0.00    +0.000 A 
ATOM     23  C   UNL     1       5.925   3.690  13.825  0.00  0.00    +0.000 A 
ATOM     24  N   UNL     1       6.812   4.422  13.130  0.00  0.00    +0.000 NA
ATOM     25  C   UNL     1       7.599   5.225  13.861  0.00  0.00    +0.000 A 
ATOM     26  N   UNL     1       7.573   5.358  15.197  0.00  0.00    +0.000 NA
ENDBRANCH  20  21
ENDBRANCH  18  20
ENDBRANCH   1  16
BRANCH   1  28
ATOM     27  N   UNL     1       1.189   4.684  20.398  0.00  0.00    +0.000 NA
ATOM     28  C   UNL     1       2.132   5.162  19.711  0.00  0.00    +0.000 C 
ENDBRANCH   1  28
TORSDOF 8
ENDMDL
