MODEL 1
REMARK VINA RESULT:      -7.6      0.000      0.000
REMARK  Name = 
REMARK  11 active torsions:
REMARK  status: ('A' for Active; 'I' for Inactive)
REMARK    1  A    between atoms: C_2  and  C_3
REMARK    2  A    between atoms: C_3  and  C_4
REMARK    3  A    between atoms: C_4  and  N_5
REMARK    4  A    between atoms: N_10  and  C_11
REMARK    5  A    between atoms: C_15  and  N_16
REMARK    6  A    between atoms: N_19  and  C_20
REMARK    7  A    between atoms: C_23  and  N_24
REMARK    8  A    between atoms: N_24  and  C_25
REMARK    9  A    between atoms: N_24  and  C_28
REMARK   10  A    between atoms: C_25  and  C_26
REMARK   11  A    between atoms: C_28  and  C_29
REMARK                            x       y       z     vdW  Elec       q    Type
REMARK                         _______ _______ _______ _____ _____    ______ ____
ROOT
ATOM      1  N   UNL     1       0.865   9.476  19.401  0.00  0.00    +0.000 N 
ATOM      2  C   UNL     1       1.707   8.880  18.465  0.00  0.00    +0.000 C 
ATOM      3  O   UNL     1       2.011   9.377  17.383  0.00  0.00    +0.000 OA
ATOM      4  N   UNL     1       2.147   7.630  18.881  0.00  0.00    +0.000 N 
ATOM      5  H   UNL     1       1.057   9.240  20.364  0.00  0.00    +0.000 HD
ATOM      6  H   UNL     1       1.470   7.115  19.426  0.00  0.00    +0.000 HD
ENDROOT
BRANCH   1  11
ATOM      7  C   UNL     1      -2.078  11.698  18.702  0.00  0.00    +0.000 A 
ATOM      8  C   UNL     1      -1.452  12.948  18.725  0.00  0.00    +0.000 A 
ATOM      9  C   UNL     1      -0.079  13.055  18.939  0.00  0.00    +0.000 A 
ATOM     10  C   UNL     1       0.688  11.914  19.157  0.00  0.00    +0.000 A 
ATOM     11  C   UNL     1       0.098  10.648  19.154  0.00  0.00    +0.000 A 
ATOM     12  C   UNL     1      -1.282  10.545  18.883  0.00  0.00    +0.000 A 
BRANCH   7  15
ATOM     13  O   UNL     1      -3.643  11.435  16.197  0.00  0.00    +0.000 OA
ATOM     14  C   UNL     1      -4.156  11.425  17.315  0.00  0.00    +0.000 C 
ATOM     15  N   UNL     1      -3.483  11.542  18.524  0.00  0.00    +0.000 N 
ATOM     16  H   UNL     1      -4.044  11.535  19.366  0.00  0.00    +0.000 HD
BRANCH  14  17
ATOM     17  C   UNL     1      -5.662  11.247  17.430  0.00  0.00    +0.000 C 
BRANCH  17  18
ATOM     18  C   UNL     1      -6.108  10.716  18.796  0.00  0.00    +0.000 C 
BRANCH  18  19
ATOM     19  N   UNL     1      -7.300  11.420  19.317  0.00  0.00    +0.000 NA
ATOM     20  C   UNL     1      -7.100  12.866  19.517  0.00  0.00    +0.000 C 
ATOM     21  C   UNL     1      -6.612  13.020  20.943  0.00  0.00    +0.000 C 
ATOM     22  C   UNL     1      -7.408  11.968  21.683  0.00  0.00    +0.000 C 
ATOM     23  C   UNL     1      -7.708  10.897  20.638  0.00  0.00    +0.000 C 
ENDBRANCH  18  19
ENDBRANCH  17  18
ENDBRANCH  14  17
ENDBRANCH   7  15
ENDBRANCH   1  11
BRANCH   4  24
ATOM     24  C   UNL     1       3.058   6.853  18.119  0.00  0.00    +0.000 A 
ATOM     25  C   UNL     1       2.966   5.465  18.015  0.00  0.00    +0.000 A 
ATOM     26  C   UNL     1       3.897   4.734  17.247  0.00  0.00    +0.000 A 
ATOM     27  C   UNL     1       4.965   5.352  16.578  0.00  0.00    +0.000 A 
ATOM     28  C   UNL     1       5.023   6.752  16.697  0.00  0.00    +0.000 A 
ATOM     29  C   UNL     1       4.079   7.495  17.431  0.00  0.00    +0.000 A 
BRANCH  27  30
ATOM     30  N   UNL     1       5.925   4.629  15.872  0.00  0.00    +0.000 N 
BRANCH  30  31
ATOM     31  C   UNL     1       7.358   4.668  16.229  0.00  0.00    +0.000 C 
BRANCH  31  32
ATOM     32  C   UNL     1       7.644   4.532  17.731  0.00  0.00    +0.000 C 
ATOM     33 CL   UNL     1       7.870   6.108  18.536  0.00  0.00    +0.000 Cl
ENDBRANCH  31  32
ENDBRANCH  30  31
BRANCH  30  34
ATOM     34  C   UNL     1       5.533   3.635  14.846  0.00  0.00    +0.000 C 
BRANCH  34  35
ATOM     35  C   UNL     1       6.278   3.860  13.526  0.00  0.00    +0.000 C 
ATOM     36 CL   UNL     1       5.265   3.364  12.145  0.00  0.00    +0.000 Cl
ENDBRANCH  34  35
ENDBRANCH  30  34
ENDBRANCH  27  30
ENDBRANCH   4  24
TORSDOF 11
ENDMDL
MODEL 2
REMARK VINA RESULT:      -7.5      7.343     10.542
REMARK  Name = 
REMARK  11 active torsions:
REMARK  status: ('A' for Active; 'I' for Inactive)
REMARK    1  A    between atoms: C_2  and  C_3
REMARK    2  A    between atoms: C_3  and  C_4
REMARK    3  A    between atoms: C_4  and  N_5
REMARK    4  A    between atoms: N_10  and  C_11
REMARK    5  A    between atoms: C_15  and  N_16
REMARK    6  A    between atoms: N_19  and  C_20
REMARK    7  A    between atoms: C_23  and  N_24
REMARK    8  A    between atoms: N_24  and  C_25
REMARK    9  A    between atoms: N_24  and  C_28
REMARK   10  A    between atoms: C_25  and  C_26
REMARK   11  A    between atoms: C_28  and  C_29
REMARK                            x       y       z     vdW  Elec       q    Type
REMARK                         _______ _______ _______ _____ _____    ______ ____
ROOT
ATOM      1  N   UNL     1       7.939   7.124  18.392  0.00  0.00    +0.000 N 
ATOM      2  C   UNL     1       8.088   8.500  18.239  0.00  0.00    +0.000 C 
ATOM      3  O   UNL     1       7.404   9.197  17.493  0.00  0.00    +0.000 OA
ATOM      4  N   UNL     1       9.128   9.000  19.011  0.00  0.00    +0.000 N 
ATOM      5  H   UNL     1       8.187   6.763  19.302  0.00  0.00    +0.000 HD
ATOM      6  H   UNL     1       9.907   8.366  19.114  0.00  0.00    +0.000 HD
ENDROOT
BRANCH   1  11
ATOM      7  C   UNL     1       5.010   5.067  17.259  0.00  0.00    +0.000 A 
ATOM      8  C   UNL     1       5.413   4.763  15.956  0.00  0.00    +0.000 A 
ATOM      9  C   UNL     1       6.642   5.206  15.467  0.00  0.00    +0.000 A 
ATOM     10  C   UNL     1       7.478   5.979  16.267  0.00  0.00    +0.000 A 
ATOM     11  C   UNL     1       7.106   6.313  17.571  0.00  0.00    +0.000 A 
ATOM     12  C   UNL     1       5.886   5.817  18.076  0.00  0.00    +0.000 A 
BRANCH   7  15
ATOM     13  O   UNL     1       2.700   6.732  18.089  0.00  0.00    +0.000 OA
ATOM     14  C   UNL     1       2.706   5.504  18.162  0.00  0.00    +0.000 C 
ATOM     15  N   UNL     1       3.750   4.668  17.789  0.00  0.00    +0.000 N 
ATOM     16  H   UNL     1       3.615   3.674  17.924  0.00  0.00    +0.000 HD
BRANCH  14  17
ATOM     17  C   UNL     1       1.464   4.794  18.678  0.00  0.00    +0.000 C 
BRANCH  17  18
ATOM     18  C   UNL     1       1.506   4.512  20.183  0.00  0.00    +0.000 C 
BRANCH  18  19
ATOM     19  N   UNL     1       1.589   3.067  20.488  0.00  0.00    +0.000 NA
ATOM     20  C   UNL     1       2.781   2.688  21.267  0.00  0.00    +0.000 C 
ATOM     21  C   UNL     1       3.847   2.346  20.246  0.00  0.00    +0.000 C 
ATOM     22  C   UNL     1       3.056   1.659  19.155  0.00  0.00    +0.000 C 
ATOM     23  C   UNL     1       1.653   2.252  19.256  0.00  0.00    +0.000 C 
ENDBRANCH  18  19
ENDBRANCH  17  18
ENDBRANCH  14  17
ENDBRANCH   7  15
ENDBRANCH   1  11
BRANCH   4  24
ATOM     24  C   UNL     1       9.437  10.384  19.063  0.00  0.00    +0.000 A 
ATOM     25  C   UNL     1       9.186  11.174  20.184  0.00  0.00    +0.000 A 
ATOM     26  C   UNL     1       9.509  12.548  20.189  0.00  0.00    +0.000 A 
ATOM     27  C   UNL     1      10.067  13.190  19.072  0.00  0.00    +0.000 A 
ATOM     28  C   UNL     1      10.314  12.363  17.963  0.00  0.00    +0.000 A 
ATOM     29  C   UNL     1      10.030  10.985  17.959  0.00  0.00    +0.000 A 
BRANCH  27  30
ATOM     30  N   UNL     1      10.326  14.559  19.049  0.00  0.00    +0.000 N 
BRANCH  30  31
ATOM     31  C   UNL     1      11.654  15.101  18.691  0.00  0.00    +0.000 C 
BRANCH  31  32
ATOM     32  C   UNL     1      11.850  16.584  19.038  0.00  0.00    +0.000 C 
ATOM     33 CL   UNL     1      11.828  17.639  17.599  0.00  0.00    +0.000 Cl
ENDBRANCH  31  32
ENDBRANCH  30  31
BRANCH  30  34
ATOM     34  C   UNL     1       9.234  15.548  19.198  0.00  0.00    +0.000 C 
BRANCH  34  35
ATOM     35  C   UNL     1       8.495  15.779  17.876  0.00  0.00    +0.000 C 
ATOM     36 CL   UNL     1       7.087  14.691  17.750  0.00  0.00    +0.000 Cl
ENDBRANCH  34  35
ENDBRANCH  30  34
ENDBRANCH  27  30
ENDBRANCH   4  24
TORSDOF 11
ENDMDL
MODEL 3
REMARK VINA RESULT:      -7.3      7.724     10.520
REMARK  Name = 
REMARK  11 active torsions:
REMARK  status: ('A' for Active; 'I' for Inactive)
REMARK    1  A    between atoms: C_2  and  C_3
REMARK    2  A    between atoms: C_3  and  C_4
REMARK    3  A    between atoms: C_4  and  N_5
REMARK    4  A    between atoms: N_10  and  C_11
REMARK    5  A    between atoms: C_15  and  N_16
REMARK    6  A    between atoms: N_19  and  C_20
REMARK    7  A    between atoms: C_23  and  N_24
REMARK    8  A    between atoms: N_24  and  C_25
REMARK    9  A    between atoms: N_24  and  C_28
REMARK   10  A    between atoms: C_25  and  C_26
REMARK   11  A    between atoms: C_28  and  C_29
REMARK                            x       y       z     vdW  Elec       q    Type
REMARK                         _______ _______ _______ _____ _____    ______ ____
ROOT
ATOM      1  N   UNL     1       7.857   6.867  18.386  0.00  0.00    +0.000 N 
ATOM      2  C   UNL     1       8.005   8.240  18.207  0.00  0.00    +0.000 C 
ATOM      3  O   UNL     1       7.359   8.913  17.407  0.00  0.00    +0.000 OA
ATOM      4  N   UNL     1       8.998   8.768  19.023  0.00  0.00    +0.000 N 
ATOM      5  H   UNL     1       8.057   6.531  19.318  0.00  0.00    +0.000 HD
ATOM      6  H   UNL     1       9.774   8.143  19.184  0.00  0.00    +0.000 HD
ENDROOT
BRANCH   1  11
ATOM      7  C   UNL     1       4.998   4.781  17.135  0.00  0.00    +0.000 A 
ATOM      8  C   UNL     1       5.486   4.428  15.874  0.00  0.00    +0.000 A 
ATOM      9  C   UNL     1       6.747   4.848  15.453  0.00  0.00    +0.000 A 
ATOM     10  C   UNL     1       7.532   5.647  16.279  0.00  0.00    +0.000 A 
ATOM     11  C   UNL     1       7.076   6.030  17.542  0.00  0.00    +0.000 A 
ATOM     12  C   UNL     1       5.822   5.557  17.981  0.00  0.00    +0.000 A 
BRANCH   7  15
ATOM     13  O   UNL     1       2.710   6.492  17.930  0.00  0.00    +0.000 OA
ATOM     14  C   UNL     1       2.671   5.263  17.954  0.00  0.00    +0.000 C 
ATOM     15  N   UNL     1       3.703   4.406  17.594  0.00  0.00    +0.000 N 
ATOM     16  H   UNL     1       3.529   3.413  17.682  0.00  0.00    +0.000 HD
BRANCH  14  17
ATOM     17  C   UNL     1       1.385   4.578  18.386  0.00  0.00    +0.000 C 
BRANCH  17  18
ATOM     18  C   UNL     1       1.392   3.064  18.148  0.00  0.00    +0.000 C 
BRANCH  18  19
ATOM     19  N   UNL     1       1.465   2.292  19.407  0.00  0.00    +0.000 NA
ATOM     20  C   UNL     1       1.021   3.041  20.595  0.00  0.00    +0.000 C 
ATOM     21  C   UNL     1       2.264   3.709  21.147  0.00  0.00    +0.000 C 
ATOM     22  C   UNL     1       3.334   2.665  20.916  0.00  0.00    +0.000 C 
ATOM     23  C   UNL     1       2.849   1.868  19.708  0.00  0.00    +0.000 C 
ENDBRANCH  18  19
ENDBRANCH  17  18
ENDBRANCH  14  17
ENDBRANCH   7  15
ENDBRANCH   1  11
BRANCH   4  24
ATOM     24  C   UNL     1       9.295  10.156  19.056  0.00  0.00    +0.000 A 
ATOM     25  C   UNL     1       9.307  10.898  20.236  0.00  0.00    +0.000 A 
ATOM     26  C   UNL     1       9.606  12.278  20.221  0.00  0.00    +0.000 A 
ATOM     27  C   UNL     1       9.876  12.971  19.031  0.00  0.00    +0.000 A 
ATOM     28  C   UNL     1       9.864  12.191  17.862  0.00  0.00    +0.000 A 
ATOM     29  C   UNL     1       9.602  10.808  17.869  0.00  0.00    +0.000 A 
BRANCH  27  30
ATOM     30  N   UNL     1      10.107  14.345  19.002  0.00  0.00    +0.000 N 
BRANCH  30  31
ATOM     31  C   UNL     1       9.197  15.309  19.655  0.00  0.00    +0.000 C 
BRANCH  31  32
ATOM     32  C   UNL     1       9.869  16.214  20.697  0.00  0.00    +0.000 C 
ATOM     33 CL   UNL     1      10.374  15.325  22.160  0.00  0.00    +0.000 Cl
ENDBRANCH  31  32
ENDBRANCH  30  31
BRANCH  30  34
ATOM     34  C   UNL     1      11.378  14.897  18.478  0.00  0.00    +0.000 C 
BRANCH  34  35
ATOM     35  C   UNL     1      11.164  15.669  17.172  0.00  0.00    +0.000 C 
ATOM     36 CL   UNL     1      11.684  17.364  17.356  0.00  0.00    +0.000 Cl
ENDBRANCH  34  35
ENDBRANCH  30  34
ENDBRANCH  27  30
ENDBRANCH   4  24
TORSDOF 11
ENDMDL
MODEL 4
REMARK VINA RESULT:      -7.3      6.798     10.063
REMARK  Name = 
REMARK  11 active torsions:
REMARK  status: ('A' for Active; 'I' for Inactive)
REMARK    1  A    between atoms: C_2  and  C_3
REMARK    2  A    between atoms: C_3  and  C_4
REMARK    3  A    between atoms: C_4  and  N_5
REMARK    4  A    between atoms: N_10  and  C_11
REMARK    5  A    between atoms: C_15  and  N_16
REMARK    6  A    between atoms: N_19  and  C_20
REMARK    7  A    between atoms: C_23  and  N_24
REMARK    8  A    between atoms: N_24  and  C_25
REMARK    9  A    between atoms: N_24  and  C_28
REMARK   10  A    between atoms: C_25  and  C_26
REMARK   11  A    between atoms: C_28  and  C_29
REMARK                            x       y       z     vdW  Elec       q    Type
REMARK                         _______ _______ _______ _____ _____    ______ ____
ROOT
ATOM      1  N   UNL     1       7.728   6.532  18.201  0.00  0.00    +0.000 N 
ATOM      2  C   UNL     1       7.914   7.902  18.037  0.00  0.00    +0.000 C 
ATOM      3  O   UNL     1       7.358   8.584  17.180  0.00  0.00    +0.000 OA
ATOM      4  N   UNL     1       8.832   8.415  18.945  0.00  0.00    +0.000 N 
ATOM      5  H   UNL     1       7.833   6.193  19.146  0.00  0.00    +0.000 HD
ATOM      6  H   UNL     1       9.580   7.777  19.179  0.00  0.00    +0.000 HD
ENDROOT
BRANCH   1  11
ATOM      7  C   UNL     1       4.977   4.473  16.689  0.00  0.00    +0.000 A 
ATOM      8  C   UNL     1       5.571   4.127  15.472  0.00  0.00    +0.000 A 
ATOM      9  C   UNL     1       6.866   4.541  15.165  0.00  0.00    +0.000 A 
ATOM     10  C   UNL     1       7.581   5.329  16.063  0.00  0.00    +0.000 A 
ATOM     11  C   UNL     1       7.019   5.706  17.284  0.00  0.00    +0.000 A 
ATOM     12  C   UNL     1       5.728   5.238  17.609  0.00  0.00    +0.000 A 
BRANCH   7  15
ATOM     13  O   UNL     1       3.983   2.019  18.026  0.00  0.00    +0.000 OA
ATOM     14  C   UNL     1       3.244   2.932  17.657  0.00  0.00    +0.000 C 
ATOM     15  N   UNL     1       3.644   4.104  17.029  0.00  0.00    +0.000 N 
ATOM     16  H   UNL     1       2.917   4.758  16.768  0.00  0.00    +0.000 HD
BRANCH  14  17
ATOM     17  C   UNL     1       1.750   2.816  17.917  0.00  0.00    +0.000 C 
BRANCH  17  18
ATOM     18  C   UNL     1       1.256   3.734  19.040  0.00  0.00    +0.000 C 
BRANCH  18  19
ATOM     19  N   UNL     1       2.321   4.619  19.560  0.00  0.00    +0.000 NA
ATOM     20  C   UNL     1       2.207   4.908  21.000  0.00  0.00    +0.000 C 
ATOM     21  C   UNL     1       1.366   6.165  21.101  0.00  0.00    +0.000 C 
ATOM     22  C   UNL     1       1.833   6.974  19.912  0.00  0.00    +0.000 C 
ATOM     23  C   UNL     1       2.306   5.939  18.895  0.00  0.00    +0.000 C 
ENDBRANCH  18  19
ENDBRANCH  17  18
ENDBRANCH  14  17
ENDBRANCH   7  15
ENDBRANCH   1  11
BRANCH   4  24
ATOM     24  C   UNL     1       9.146   9.797  19.008  0.00  0.00    +0.000 A 
ATOM     25  C   UNL     1       9.342  10.475  20.211  0.00  0.00    +0.000 A 
ATOM     26  C   UNL     1       9.650  11.852  20.225  0.00  0.00    +0.000 A 
ATOM     27  C   UNL     1       9.748  12.609  19.046  0.00  0.00    +0.000 A 
ATOM     28  C   UNL     1       9.553  11.893  17.852  0.00  0.00    +0.000 A 
ATOM     29  C   UNL     1       9.280  10.513  17.825  0.00  0.00    +0.000 A 
BRANCH  27  30
ATOM     30  N   UNL     1       9.987  13.981  19.057  0.00  0.00    +0.000 N 
BRANCH  30  31
ATOM     31  C   UNL     1      11.255  14.554  19.555  0.00  0.00    +0.000 C 
BRANCH  31  32
ATOM     32  C   UNL     1      12.222  15.013  18.454  0.00  0.00    +0.000 C 
ATOM     33 CL   UNL     1      12.333  13.851  17.105  0.00  0.00    +0.000 Cl
ENDBRANCH  31  32
ENDBRANCH  30  31
BRANCH  30  34
ATOM     34  C   UNL     1       9.058  14.926  18.395  0.00  0.00    +0.000 C 
BRANCH  34  35
ATOM     35  C   UNL     1       7.628  14.777  18.923  0.00  0.00    +0.000 C 
ATOM     36 CL   UNL     1       6.548  14.173  17.640  0.00  0.00    +0.000 Cl
ENDBRANCH  34  35
ENDBRANCH  30  34
ENDBRANCH  27  30
ENDBRANCH   4  24
TORSDOF 11
ENDMDL
MODEL 5
REMARK VINA RESULT:      -7.2      7.022     10.307
REMARK  Name = 
REMARK  11 active torsions:
REMARK  status: ('A' for Active; 'I' for Inactive)
REMARK    1  A    between atoms: C_2  and  C_3
REMARK    2  A    between atoms: C_3  and  C_4
REMARK    3  A    between atoms: C_4  and  N_5
REMARK    4  A    between atoms: N_10  and  C_11
REMARK    5  A    between atoms: C_15  and  N_16
REMARK    6  A    between atoms: N_19  and  C_20
REMARK    7  A    between atoms: C_23  and  N_24
REMARK    8  A    between atoms: N_24  and  C_25
REMARK    9  A    between atoms: N_24  and  C_28
REMARK   10  A    between atoms: C_25  and  C_26
REMARK   11  A    between atoms: C_28  and  C_29
REMARK                            x       y       z     vdW  Elec       q    Type
REMARK                         _______ _______ _______ _____ _____    ______ ____
ROOT
ATOM      1  N   UNL     1       7.803   6.600  18.199  0.00  0.00    +0.000 N 
ATOM      2  C   UNL     1       7.946   7.974  18.029  0.00  0.00    +0.000 C 
ATOM      3  O   UNL     1       7.341   8.641  17.192  0.00  0.00    +0.000 OA
ATOM      4  N   UNL     1       8.882   8.513  18.903  0.00  0.00    +0.000 N 
ATOM      5  H   UNL     1       7.951   6.264  19.140  0.00  0.00    +0.000 HD
ATOM      6  H   UNL     1       9.654   7.896  19.110  0.00  0.00    +0.000 HD
ENDROOT
BRANCH   1  11
ATOM      7  C   UNL     1       5.037   4.508  16.763  0.00  0.00    +0.000 A 
ATOM      8  C   UNL     1       5.616   4.137  15.547  0.00  0.00    +0.000 A 
ATOM      9  C   UNL     1       6.907   4.546  15.216  0.00  0.00    +0.000 A 
ATOM     10  C   UNL     1       7.632   5.352  16.088  0.00  0.00    +0.000 A 
ATOM     11  C   UNL     1       7.084   5.755  17.308  0.00  0.00    +0.000 A 
ATOM     12  C   UNL     1       5.798   5.292  17.658  0.00  0.00    +0.000 A 
BRANCH   7  15
ATOM     13  O   UNL     1       4.051   2.043  18.087  0.00  0.00    +0.000 OA
ATOM     14  C   UNL     1       3.312   2.967  17.747  0.00  0.00    +0.000 C 
ATOM     15  N   UNL     1       3.709   4.144  17.127  0.00  0.00    +0.000 N 
ATOM     16  H   UNL     1       2.982   4.808  16.891  0.00  0.00    +0.000 HD
BRANCH  14  17
ATOM     17  C   UNL     1       1.824   2.859  18.038  0.00  0.00    +0.000 C 
BRANCH  17  18
ATOM     18  C   UNL     1       1.255   4.087  18.756  0.00  0.00    +0.000 C 
BRANCH  18  19
ATOM     19  N   UNL     1       2.274   4.802  19.553  0.00  0.00    +0.000 NA
ATOM     20  C   UNL     1       1.910   4.977  20.970  0.00  0.00    +0.000 C 
ATOM     21  C   UNL     1       1.184   6.305  21.047  0.00  0.00    +0.000 C 
ATOM     22  C   UNL     1       1.945   7.158  20.055  0.00  0.00    +0.000 C 
ATOM     23  C   UNL     1       2.510   6.168  19.040  0.00  0.00    +0.000 C 
ENDBRANCH  18  19
ENDBRANCH  17  18
ENDBRANCH  14  17
ENDBRANCH   7  15
ENDBRANCH   1  11
BRANCH   4  24
ATOM     24  C   UNL     1       9.160   9.903  18.955  0.00  0.00    +0.000 A 
ATOM     25  C   UNL     1       9.381  10.674  17.814  0.00  0.00    +0.000 A 
ATOM     26  C   UNL     1       9.657  12.055  17.915  0.00  0.00    +0.000 A 
ATOM     27  C   UNL     1       9.747  12.711  19.153  0.00  0.00    +0.000 A 
ATOM     28  C   UNL     1       9.510  11.906  20.281  0.00  0.00    +0.000 A 
ATOM     29  C   UNL     1       9.200  10.537  20.191  0.00  0.00    +0.000 A 
BRANCH  27  30
ATOM     30  N   UNL     1      10.083  14.059  19.262  0.00  0.00    +0.000 N 
BRANCH  30  31
ATOM     31  C   UNL     1      11.353  14.598  18.731  0.00  0.00    +0.000 C 
BRANCH  31  32
ATOM     32  C   UNL     1      11.385  16.126  18.586  0.00  0.00    +0.000 C 
ATOM     33 CL   UNL     1      10.936  16.673  16.949  0.00  0.00    +0.000 Cl
ENDBRANCH  31  32
ENDBRANCH  30  31
BRANCH  30  34
ATOM     34  C   UNL     1       9.101  15.056  19.746  0.00  0.00    +0.000 C 
BRANCH  34  35
ATOM     35  C   UNL     1       7.915  15.195  18.787  0.00  0.00    +0.000 C 
ATOM     36 CL   UNL     1       7.434  16.905  18.633  0.00  0.00    +0.000 Cl
ENDBRANCH  34  35
ENDBRANCH  30  34
ENDBRANCH  27  30
ENDBRANCH   4  24
TORSDOF 11
ENDMDL
MODEL 6
REMARK VINA RESULT:      -7.1      7.071     10.331
REMARK  Name = 
REMARK  11 active torsions:
REMARK  status: ('A' for Active; 'I' for Inactive)
REMARK    1  A    between atoms: C_2  and  C_3
REMARK    2  A    between atoms: C_3  and  C_4
REMARK    3  A    between atoms: C_4  and  N_5
REMARK    4  A    between atoms: N_10  and  C_11
REMARK    5  A    between atoms: C_15  and  N_16
REMARK    6  A    between atoms: N_19  and  C_20
REMARK    7  A    between atoms: C_23  and  N_24
REMARK    8  A    between atoms: N_24  and  C_25
REMARK    9  A    between atoms: N_24  and  C_28
REMARK   10  A    between atoms: C_25  and  C_26
REMARK   11  A    between atoms: C_28  and  C_29
REMARK                            x       y       z     vdW  Elec       q    Type
REMARK                         _______ _______ _______ _____ _____    ______ ____
ROOT
ATOM      1  N   UNL     1       7.795   6.522  18.136  0.00  0.00    +0.000 N 
ATOM      2  C   UNL     1       7.880   7.906  18.012  0.00  0.00    +0.000 C 
ATOM      3  O   UNL     1       7.212   8.580  17.232  0.00  0.00    +0.000 OA
ATOM      4  N   UNL     1       8.840   8.446  18.859  0.00  0.00    +0.000 N 
ATOM      5  H   UNL     1       8.001   6.158  19.055  0.00  0.00    +0.000 HD
ATOM      6  H   UNL     1       9.643   7.851  19.005  0.00  0.00    +0.000 HD
ENDROOT
BRANCH   1  11
ATOM      7  C   UNL     1       4.999   4.458  16.717  0.00  0.00    +0.000 A 
ATOM      8  C   UNL     1       5.567   4.082  15.497  0.00  0.00    +0.000 A 
ATOM      9  C   UNL     1       6.859   4.478  15.158  0.00  0.00    +0.000 A 
ATOM     10  C   UNL     1       7.598   5.277  16.026  0.00  0.00    +0.000 A 
ATOM     11  C   UNL     1       7.062   5.684  17.250  0.00  0.00    +0.000 A 
ATOM     12  C   UNL     1       5.774   5.234  17.607  0.00  0.00    +0.000 A 
BRANCH   7  15
ATOM     13  O   UNL     1       4.027   2.116  18.257  0.00  0.00    +0.000 OA
ATOM     14  C   UNL     1       3.280   2.988  17.814  0.00  0.00    +0.000 C 
ATOM     15  N   UNL     1       3.669   4.107  17.090  0.00  0.00    +0.000 N 
ATOM     16  H   UNL     1       2.937   4.730  16.775  0.00  0.00    +0.000 HD
BRANCH  14  17
ATOM     17  C   UNL     1       1.788   2.882  18.085  0.00  0.00    +0.000 C 
BRANCH  17  18
ATOM     18  C   UNL     1       1.249   4.012  18.969  0.00  0.00    +0.000 C 
BRANCH  18  19
ATOM     19  N   UNL     1       2.326   4.833  19.561  0.00  0.00    +0.000 NA
ATOM     20  C   UNL     1       2.159   5.089  21.003  0.00  0.00    +0.000 C 
ATOM     21  C   UNL     1       1.372   6.380  21.101  0.00  0.00    +0.000 C 
ATOM     22  C   UNL     1       1.929   7.198  19.958  0.00  0.00    +0.000 C 
ATOM     23  C   UNL     1       2.402   6.170  18.934  0.00  0.00    +0.000 C 
ENDBRANCH  18  19
ENDBRANCH  17  18
ENDBRANCH  14  17
ENDBRANCH   7  15
ENDBRANCH   1  11
BRANCH   4  24
ATOM     24  C   UNL     1       9.072   9.843  18.951  0.00  0.00    +0.000 A 
ATOM     25  C   UNL     1       9.099  10.680  17.837  0.00  0.00    +0.000 A 
ATOM     26  C   UNL     1       9.336  12.065  17.977  0.00  0.00    +0.000 A 
ATOM     27  C   UNL     1       9.579  12.660  19.225  0.00  0.00    +0.000 A 
ATOM     28  C   UNL     1       9.536  11.789  20.327  0.00  0.00    +0.000 A 
ATOM     29  C   UNL     1       9.266  10.413  20.203  0.00  0.00    +0.000 A 
BRANCH  27  30
ATOM     30  N   UNL     1       9.878  14.014  19.362  0.00  0.00    +0.000 N 
BRANCH  30  31
ATOM     31  C   UNL     1       9.296  14.842  20.439  0.00  0.00    +0.000 C 
BRANCH  31  32
ATOM     32  C   UNL     1      10.308  15.323  21.489  0.00  0.00    +0.000 C 
ATOM     33 CL   UNL     1       9.644  15.307  23.145  0.00  0.00    +0.000 Cl
ENDBRANCH  31  32
ENDBRANCH  30  31
BRANCH  30  34
ATOM     34  C   UNL     1      10.941  14.650  18.550  0.00  0.00    +0.000 C 
BRANCH  34  35
ATOM     35  C   UNL     1      10.387  15.781  17.678  0.00  0.00    +0.000 C 
ATOM     36 CL   UNL     1      11.339  17.271  17.909  0.00  0.00    +0.000 Cl
ENDBRANCH  34  35
ENDBRANCH  30  34
ENDBRANCH  27  30
ENDBRANCH   4  24
TORSDOF 11
ENDMDL
MODEL 7
REMARK VINA RESULT:      -7.1      3.160      4.463
REMARK  Name = 
REMARK  11 active torsions:
REMARK  status: ('A' for Active; 'I' for Inactive)
REMARK    1  A    between atoms: C_2  and  C_3
REMARK    2  A    between atoms: C_3  and  C_4
REMARK    3  A    between atoms: C_4  and  N_5
REMARK    4  A    between atoms: N_10  and  C_11
REMARK    5  A    between atoms: C_15  and  N_16
REMARK    6  A    between atoms: N_19  and  C_20
REMARK    7  A    between atoms: C_23  and  N_24
REMARK    8  A    between atoms: N_24  and  C_25
REMARK    9  A    between atoms: N_24  and  C_28
REMARK   10  A    between atoms: C_25  and  C_26
REMARK   11  A    between atoms: C_28  and  C_29
REMARK                            x       y       z     vdW  Elec       q    Type
REMARK                         _______ _______ _______ _____ _____    ______ ____
ROOT
ATOM      1  N   UNL     1      -0.505  12.249  20.522  0.00  0.00    +0.000 N 
ATOM      2  C   UNL     1      -0.113  10.913  20.514  0.00  0.00    +0.000 C 
ATOM      3  O   UNL     1      -0.545  10.054  21.279  0.00  0.00    +0.000 OA
ATOM      4  N   UNL     1       0.857  10.660  19.552  0.00  0.00    +0.000 N 
ATOM      5  H   UNL     1      -0.469  12.713  19.626  0.00  0.00    +0.000 HD
ATOM      6  H   UNL     1       1.496  11.428  19.400  0.00  0.00    +0.000 HD
ENDROOT
BRANCH   1  11
ATOM      7  C   UNL     1      -3.541  13.473  22.359  0.00  0.00    +0.000 A 
ATOM      8  C   UNL     1      -2.945  13.940  23.533  0.00  0.00    +0.000 A 
ATOM      9  C   UNL     1      -1.564  13.878  23.707  0.00  0.00    +0.000 A 
ATOM     10  C   UNL     1      -0.756  13.327  22.716  0.00  0.00    +0.000 A 
ATOM     11  C   UNL     1      -1.315  12.838  21.533  0.00  0.00    +0.000 A 
ATOM     12  C   UNL     1      -2.708  12.953  21.343  0.00  0.00    +0.000 A 
BRANCH   7  15
ATOM     13  O   UNL     1      -5.689  12.184  23.948  0.00  0.00    +0.000 OA
ATOM     14  C   UNL     1      -5.907  12.853  22.938  0.00  0.00    +0.000 C 
ATOM     15  N   UNL     1      -4.951  13.482  22.153  0.00  0.00    +0.000 N 
ATOM     16  H   UNL     1      -5.281  13.984  21.338  0.00  0.00    +0.000 HD
BRANCH  14  17
ATOM     17  C   UNL     1      -7.346  13.054  22.488  0.00  0.00    +0.000 C 
BRANCH  17  18
ATOM     18  C   UNL     1      -7.659  12.394  21.141  0.00  0.00    +0.000 C 
BRANCH  18  19
ATOM     19  N   UNL     1      -6.689  11.336  20.788  0.00  0.00    +0.000 NA
ATOM     20  C   UNL     1      -5.963  11.587  19.530  0.00  0.00    +0.000 C 
ATOM     21  C   UNL     1      -6.792  10.935  18.441  0.00  0.00    +0.000 C 
ATOM     22  C   UNL     1      -7.301   9.681  19.116  0.00  0.00    +0.000 C 
ATOM     23  C   UNL     1      -7.351  10.028  20.601  0.00  0.00    +0.000 C 
ENDBRANCH  18  19
ENDBRANCH  17  18
ENDBRANCH  14  17
ENDBRANCH   7  15
ENDBRANCH   1  11
BRANCH   4  24
ATOM     24  C   UNL     1       1.374   9.360  19.318  0.00  0.00    +0.000 A 
ATOM     25  C   UNL     1       1.768   8.918  18.055  0.00  0.00    +0.000 A 
ATOM     26  C   UNL     1       2.275   7.614  17.870  0.00  0.00    +0.000 A 
ATOM     27  C   UNL     1       2.382   6.696  18.926  0.00  0.00    +0.000 A 
ATOM     28  C   UNL     1       1.984   7.176  20.186  0.00  0.00    +0.000 A 
ATOM     29  C   UNL     1       1.511   8.486  20.389  0.00  0.00    +0.000 A 
BRANCH  27  30
ATOM     30  N   UNL     1       2.820   5.386  18.738  0.00  0.00    +0.000 N 
BRANCH  30  31
ATOM     31  C   UNL     1       4.009   4.847  19.430  0.00  0.00    +0.000 C 
BRANCH  31  32
ATOM     32  C   UNL     1       5.343   5.444  18.962  0.00  0.00    +0.000 C 
ATOM     33 CL   UNL     1       5.418   5.664  17.193  0.00  0.00    +0.000 Cl
ENDBRANCH  31  32
ENDBRANCH  30  31
BRANCH  30  34
ATOM     34  C   UNL     1       2.006   4.409  17.978  0.00  0.00    +0.000 C 
BRANCH  34  35
ATOM     35  C   UNL     1       1.896   3.070  18.714  0.00  0.00    +0.000 C 
ATOM     36 CL   UNL     1       0.774   3.206  20.093  0.00  0.00    +0.000 Cl
ENDBRANCH  34  35
ENDBRANCH  30  34
ENDBRANCH  27  30
ENDBRANCH   4  24
TORSDOF 11
ENDMDL
MODEL 8
REMARK VINA RESULT:      -7.1      2.874      4.069
REMARK  Name = 
REMARK  11 active torsions:
REMARK  status: ('A' for Active; 'I' for Inactive)
REMARK    1  A    between atoms: C_2  and  C_3
REMARK    2  A    between atoms: C_3  and  C_4
REMARK    3  A    between atoms: C_4  and  N_5
REMARK    4  A    between atoms: N_10  and  C_11
REMARK    5  A    between atoms: C_15  and  N_16
REMARK    6  A    between atoms: N_19  and  C_20
REMARK    7  A    between atoms: C_23  and  N_24
REMARK    8  A    between atoms: N_24  and  C_25
REMARK    9  A    between atoms: N_24  and  C_28
REMARK   10  A    between atoms: C_25  and  C_26
REMARK   11  A    between atoms: C_28  and  C_29
REMARK                            x       y       z     vdW  Elec       q    Type
REMARK                         _______ _______ _______ _____ _____    ______ ____
ROOT
ATOM      1  N   UNL     1      -0.299  11.730  20.497  0.00  0.00    +0.000 N 
ATOM      2  C   UNL     1      -0.030  10.370  20.370  0.00  0.00    +0.000 C 
ATOM      3  O   UNL     1      -0.753   9.473  20.796  0.00  0.00    +0.000 OA
ATOM      4  N   UNL     1       1.178  10.136  19.725  0.00  0.00    +0.000 N 
ATOM      5  H   UNL     1       0.064  12.312  19.755  0.00  0.00    +0.000 HD
ATOM      6  H   UNL     1       1.889  10.827  19.919  0.00  0.00    +0.000 HD
ENDROOT
BRANCH   1  11
ATOM      7  C   UNL     1      -3.704  12.919  21.539  0.00  0.00    +0.000 A 
ATOM      8  C   UNL     1      -3.446  13.266  22.868  0.00  0.00    +0.000 A 
ATOM      9  C   UNL     1      -2.167  13.136  23.405  0.00  0.00    +0.000 A 
ATOM     10  C   UNL     1      -1.127  12.636  22.626  0.00  0.00    +0.000 A 
ATOM     11  C   UNL     1      -1.346  12.267  21.297  0.00  0.00    +0.000 A 
ATOM     12  C   UNL     1      -2.631  12.452  20.747  0.00  0.00    +0.000 A 
BRANCH   7  15
ATOM     13  O   UNL     1      -6.310  11.990  22.607  0.00  0.00    +0.000 OA
ATOM     14  C   UNL     1      -6.189  12.541  21.514  0.00  0.00    +0.000 C 
ATOM     15  N   UNL     1      -5.002  13.000  20.958  0.00  0.00    +0.000 N 
ATOM     16  H   UNL     1      -5.056  13.419  20.038  0.00  0.00    +0.000 HD
BRANCH  14  17
ATOM     17  C   UNL     1      -7.432  12.784  20.673  0.00  0.00    +0.000 C 
BRANCH  17  18
ATOM     18  C   UNL     1      -7.141  13.507  19.354  0.00  0.00    +0.000 C 
BRANCH  18  19
ATOM     19  N   UNL     1      -7.282  12.621  18.178  0.00  0.00    +0.000 NA
ATOM     20  C   UNL     1      -6.970  11.208  18.453  0.00  0.00    +0.000 C 
ATOM     21  C   UNL     1      -5.490  11.051  18.165  0.00  0.00    +0.000 C 
ATOM     22  C   UNL     1      -5.288  11.945  16.961  0.00  0.00    +0.000 C 
ATOM     23  C   UNL     1      -6.369  13.016  17.084  0.00  0.00    +0.000 C 
ENDBRANCH  18  19
ENDBRANCH  17  18
ENDBRANCH  14  17
ENDBRANCH   7  15
ENDBRANCH   1  11
BRANCH   4  24
ATOM     24  C   UNL     1       1.640   8.827  19.431  0.00  0.00    +0.000 A 
ATOM     25  C   UNL     1       1.684   7.809  20.383  0.00  0.00    +0.000 A 
ATOM     26  C   UNL     1       2.154   6.521  20.045  0.00  0.00    +0.000 A 
ATOM     27  C   UNL     1       2.621   6.209  18.758  0.00  0.00    +0.000 A 
ATOM     28  C   UNL     1       2.555   7.256  17.822  0.00  0.00    +0.000 A 
ATOM     29  C   UNL     1       2.055   8.533  18.138  0.00  0.00    +0.000 A 
BRANCH  27  30
ATOM     30  N   UNL     1       3.147   4.960  18.436  0.00  0.00    +0.000 N 
BRANCH  30  31
ATOM     31  C   UNL     1       4.482   4.526  18.899  0.00  0.00    +0.000 C 
BRANCH  31  32
ATOM     32  C   UNL     1       5.510   4.322  17.777  0.00  0.00    +0.000 C 
ATOM     33 CL   UNL     1       7.083   5.083  18.134  0.00  0.00    +0.000 Cl
ENDBRANCH  31  32
ENDBRANCH  30  31
BRANCH  30  34
ATOM     34  C   UNL     1       2.318   3.927  17.772  0.00  0.00    +0.000 C 
BRANCH  34  35
ATOM     35  C   UNL     1       2.104   2.707  18.673  0.00  0.00    +0.000 C 
ATOM     36 CL   UNL     1       0.786   3.013  19.834  0.00  0.00    +0.000 Cl
ENDBRANCH  34  35
ENDBRANCH  30  34
ENDBRANCH  27  30
ENDBRANCH   4  24
TORSDOF 11
ENDMDL
MODEL 9
REMARK VINA RESULT:      -7.0      5.121     12.169
REMARK  Name = 
REMARK  11 active torsions:
REMARK  status: ('A' for Active; 'I' for Inactive)
REMARK    1  A    between atoms: C_2  and  C_3
REMARK    2  A    between atoms: C_3  and  C_4
REMARK    3  A    between atoms: C_4  and  N_5
REMARK    4  A    between atoms: N_10  and  C_11
REMARK    5  A    between atoms: C_15  and  N_16
REMARK    6  A    between atoms: N_19  and  C_20
REMARK    7  A    between atoms: C_23  and  N_24
REMARK    8  A    between atoms: N_24  and  C_25
REMARK    9  A    between atoms: N_24  and  C_28
REMARK   10  A    between atoms: C_25  and  C_26
REMARK   11  A    between atoms: C_28  and  C_29
REMARK                            x       y       z     vdW  Elec       q    Type
REMARK                         _______ _______ _______ _____ _____    ______ ____
ROOT
ATOM      1  N   UNL     1       1.723   7.802  21.138  0.00  0.00    +0.000 N 
ATOM      2  C   UNL     1       0.555   8.552  21.245  0.00  0.00    +0.000 C 
ATOM      3  O   UNL     1      -0.556   8.167  20.889  0.00  0.00    +0.000 OA
ATOM      4  N   UNL     1       0.792   9.812  21.779  0.00  0.00    +0.000 N 
ATOM      5  H   UNL     1       2.422   7.991  21.842  0.00  0.00    +0.000 HD
ATOM      6  H   UNL     1       1.684  10.208  21.520  0.00  0.00    +0.000 HD
ENDROOT
BRANCH   1  11
ATOM      7  C   UNL     1       2.838   5.231  18.641  0.00  0.00    +0.000 A 
ATOM      8  C   UNL     1       2.079   4.135  19.062  0.00  0.00    +0.000 A 
ATOM      9  C   UNL     1       1.195   4.248  20.133  0.00  0.00    +0.000 A 
ATOM     10  C   UNL     1       1.071   5.455  20.816  0.00  0.00    +0.000 A 
ATOM     11  C   UNL     1       1.820   6.570  20.434  0.00  0.00    +0.000 A 
ATOM     12  C   UNL     1       2.673   6.461  19.315  0.00  0.00    +0.000 A 
BRANCH   7  15
ATOM     13  O   UNL     1       4.326   2.883  17.606  0.00  0.00    +0.000 OA
ATOM     14  C   UNL     1       4.446   4.015  17.140  0.00  0.00    +0.000 C 
ATOM     15  N   UNL     1       3.780   5.153  17.575  0.00  0.00    +0.000 N 
ATOM     16  H   UNL     1       3.996   6.022  17.103  0.00  0.00    +0.000 HD
BRANCH  14  17
ATOM     17  C   UNL     1       5.382   4.227  15.960  0.00  0.00    +0.000 C 
BRANCH  17  18
ATOM     18  C   UNL     1       6.575   5.132  16.286  0.00  0.00    +0.000 C 
BRANCH  18  19
ATOM     19  N   UNL     1       6.360   5.935  17.509  0.00  0.00    +0.000 NA
ATOM     20  C   UNL     1       6.320   7.389  17.270  0.00  0.00    +0.000 C 
ATOM     21  C   UNL     1       7.748   7.870  17.425  0.00  0.00    +0.000 C 
ATOM     22  C   UNL     1       8.266   7.018  18.562  0.00  0.00    +0.000 C 
ATOM     23  C   UNL     1       7.445   5.733  18.493  0.00  0.00    +0.000 C 
ENDBRANCH  18  19
ENDBRANCH  17  18
ENDBRANCH  14  17
ENDBRANCH   7  15
ENDBRANCH   1  11
BRANCH   4  24
ATOM     24  C   UNL     1      -0.253  10.737  22.035  0.00  0.00    +0.000 A 
ATOM     25  C   UNL     1      -1.080  10.655  23.154  0.00  0.00    +0.000 A 
ATOM     26  C   UNL     1      -2.109  11.597  23.366  0.00  0.00    +0.000 A 
ATOM     27  C   UNL     1      -2.369  12.638  22.460  0.00  0.00    +0.000 A 
ATOM     28  C   UNL     1      -1.511  12.697  21.347  0.00  0.00    +0.000 A 
ATOM     29  C   UNL     1      -0.460  11.784  21.144  0.00  0.00    +0.000 A 
BRANCH  27  30
ATOM     30  N   UNL     1      -3.424  13.531  22.630  0.00  0.00    +0.000 N 
BRANCH  30  31
ATOM     31  C   UNL     1      -4.837  13.100  22.571  0.00  0.00    +0.000 C 
BRANCH  31  32
ATOM     32  C   UNL     1      -5.292  12.600  21.193  0.00  0.00    +0.000 C 
ATOM     33 CL   UNL     1      -6.955  11.955  21.207  0.00  0.00    +0.000 Cl
ENDBRANCH  31  32
ENDBRANCH  30  31
BRANCH  30  34
ATOM     34  C   UNL     1      -3.184  14.926  23.067  0.00  0.00    +0.000 C 
BRANCH  34  35
ATOM     35  C   UNL     1      -4.422  15.805  22.861  0.00  0.00    +0.000 C 
ATOM     36 CL   UNL     1      -5.044  16.383  24.429  0.00  0.00    +0.000 Cl
ENDBRANCH  34  35
ENDBRANCH  30  34
ENDBRANCH  27  30
ENDBRANCH   4  24
TORSDOF 11
ENDMDL
