MODEL 1
REMARK VINA RESULT:      -8.3      0.000      0.000
REMARK  Name = 
REMARK  4 active torsions:
REMARK  status: ('A' for Active; 'I' for Inactive)
REMARK    1  A    between atoms: C_1  and  C_2
REMARK    2  A    between atoms: C_4  and  N_5
REMARK    3  A    between atoms: N_9  and  C_10
REMARK    4  A    between atoms: N_15  and  C_16
REMARK                            x       y       z     vdW  Elec       q    Type
REMARK                         _______ _______ _______ _____ _____    ______ ____
ROOT
ATOM      1  C   UNL     1       8.295   5.686  20.084  0.00  0.00    +0.000 C 
ATOM      2  C   UNL     1       7.293   5.626  18.973  0.00  0.00    +0.000 A 
ATOM      3  C   UNL     1       5.953   5.481  19.263  0.00  0.00    +0.000 A 
ATOM      4  C   UNL     1       5.071   5.297  18.218  0.00  0.00    +0.000 A 
ATOM      5  N   UNL     1       5.524   5.332  16.966  0.00  0.00    +0.000 NA
ATOM      6  C   UNL     1       6.843   5.511  16.740  0.00  0.00    +0.000 A 
ATOM      7  N   UNL     1       7.311   5.543  15.430  0.00  0.00    +0.000 N 
ATOM      8  N   UNL     1       7.752   5.669  17.711  0.00  0.00    +0.000 NA
ATOM      9  H   UNL     1       8.276   5.831  15.389  0.00  0.00    +0.000 HD
ENDROOT
BRANCH   4  10
ATOM     10  N   UNL     1       3.719   5.088  18.455  0.00  0.00    +0.000 N 
ATOM     11  C   UNL     1       3.066   5.751  19.578  0.00  0.00    +0.000 C 
ATOM     12  C   UNL     1       2.562   4.801  20.656  0.00  0.00    +0.000 C 
ATOM     13  C   UNL     1       1.354   3.998  20.187  0.00  0.00    +0.000 C 
ATOM     14  N   UNL     1       1.672   2.718  19.548  0.00  0.00    +0.000 NA
ATOM     15  C   UNL     1       0.488   2.188  18.873  0.00  0.00    +0.000 C 
ATOM     16  C   UNL     1       2.854   2.735  18.659  0.00  0.00    +0.000 C 
ATOM     17  C   UNL     1       3.039   3.980  17.764  0.00  0.00    +0.000 C 
ENDBRANCH   4  10
BRANCH   7  18
ATOM     18  C   UNL     1       6.784   4.881  14.314  0.00  0.00    +0.000 A 
ATOM     19  C   UNL     1       5.526   4.274  14.400  0.00  0.00    +0.000 A 
ATOM     20  C   UNL     1       5.037   3.495  13.344  0.00  0.00    +0.000 A 
ATOM     21  C   UNL     1       5.800   3.332  12.189  0.00  0.00    +0.000 A 
ATOM     22 CL   UNL     1       5.221   2.341  10.909  0.00  0.00    +0.000 Cl
ATOM     23  C   UNL     1       7.037   3.951  12.073  0.00  0.00    +0.000 A 
ATOM     24  C   UNL     1       7.522   4.717  13.131  0.00  0.00    +0.000 A 
ENDBRANCH   7  18
TORSDOF 2
ENDMDL
MODEL 2
REMARK VINA RESULT:      -8.1      0.981      1.491
REMARK  Name = 
REMARK  4 active torsions:
REMARK  status: ('A' for Active; 'I' for Inactive)
REMARK    1  A    between atoms: C_1  and  C_2
REMARK    2  A    between atoms: C_4  and  N_5
REMARK    3  A    between atoms: N_9  and  C_10
REMARK    4  A    between atoms: N_15  and  C_16
REMARK                            x       y       z     vdW  Elec       q    Type
REMARK                         _______ _______ _______ _____ _____    ______ ____
ROOT
ATOM      1  C   UNL     1       8.190   6.282  19.385  0.00  0.00    +0.000 C 
ATOM      2  C   UNL     1       7.206   5.747  18.391  0.00  0.00    +0.000 A 
ATOM      3  C   UNL     1       6.114   5.026  18.826  0.00  0.00    +0.000 A 
ATOM      4  C   UNL     1       5.299   4.436  17.881  0.00  0.00    +0.000 A 
ATOM      5  N   UNL     1       5.550   4.632  16.587  0.00  0.00    +0.000 NA
ATOM      6  C   UNL     1       6.615   5.375  16.220  0.00  0.00    +0.000 A 
ATOM      7  N   UNL     1       6.873   5.573  14.867  0.00  0.00    +0.000 N 
ATOM      8  N   UNL     1       7.457   5.951  17.087  0.00  0.00    +0.000 NA
ATOM      9  H   UNL     1       7.597   6.260  14.726  0.00  0.00    +0.000 HD
ENDROOT
BRANCH   4  10
ATOM     10  N   UNL     1       4.219   3.651  18.262  0.00  0.00    +0.000 N 
ATOM     11  C   UNL     1       3.127   3.415  17.326  0.00  0.00    +0.000 C 
ATOM     12  C   UNL     1       1.794   4.012  17.758  0.00  0.00    +0.000 C 
ATOM     13  C   UNL     1       1.192   3.262  18.940  0.00  0.00    +0.000 C 
ATOM     14  N   UNL     1       1.575   3.774  20.259  0.00  0.00    +0.000 NA
ATOM     15  C   UNL     1       1.201   2.813  21.297  0.00  0.00    +0.000 C 
ATOM     16  C   UNL     1       2.985   4.201  20.383  0.00  0.00    +0.000 C 
ATOM     17  C   UNL     1       4.047   3.322  19.687  0.00  0.00    +0.000 C 
ENDBRANCH   4  10
BRANCH   7  18
ATOM     18  C   UNL     1       6.580   4.711  13.802  0.00  0.00    +0.000 A 
ATOM     19  C   UNL     1       5.359   4.028  13.782  0.00  0.00    +0.000 A 
ATOM     20  C   UNL     1       5.099   3.063  12.801  0.00  0.00    +0.000 A 
ATOM     21  C   UNL     1       6.056   2.788  11.825  0.00  0.00    +0.000 A 
ATOM     22 CL   UNL     1       5.757   1.574  10.645  0.00  0.00    +0.000 Cl
ATOM     23  C   UNL     1       7.261   3.478  11.810  0.00  0.00    +0.000 A 
ATOM     24  C   UNL     1       7.518   4.430  12.796  0.00  0.00    +0.000 A 
ENDBRANCH   7  18
TORSDOF 2
ENDMDL
MODEL 3
REMARK VINA RESULT:      -7.8      0.180      1.016
REMARK  Name = 
REMARK  4 active torsions:
REMARK  status: ('A' for Active; 'I' for Inactive)
REMARK    1  A    between atoms: C_1  and  C_2
REMARK    2  A    between atoms: C_4  and  N_5
REMARK    3  A    between atoms: N_9  and  C_10
REMARK    4  A    between atoms: N_15  and  C_16
REMARK                            x       y       z     vdW  Elec       q    Type
REMARK                         _______ _______ _______ _____ _____    ______ ____
ROOT
ATOM      1  C   UNL     1       8.330   5.724  20.153  0.00  0.00    +0.000 C 
ATOM      2  C   UNL     1       7.341   5.618  19.033  0.00  0.00    +0.000 A 
ATOM      3  C   UNL     1       5.999   5.473  19.314  0.00  0.00    +0.000 A 
ATOM      4  C   UNL     1       5.130   5.246  18.267  0.00  0.00    +0.000 A 
ATOM      5  N   UNL     1       5.597   5.240  17.019  0.00  0.00    +0.000 NA
ATOM      6  C   UNL     1       6.917   5.420  16.801  0.00  0.00    +0.000 A 
ATOM      7  N   UNL     1       7.399   5.409  15.496  0.00  0.00    +0.000 N 
ATOM      8  N   UNL     1       7.813   5.618  17.775  0.00  0.00    +0.000 NA
ATOM      9  H   UNL     1       8.363   5.702  15.456  0.00  0.00    +0.000 HD
ENDROOT
BRANCH   4  10
ATOM     10  N   UNL     1       3.777   5.036  18.496  0.00  0.00    +0.000 N 
ATOM     11  C   UNL     1       3.111   5.721  19.598  0.00  0.00    +0.000 C 
ATOM     12  C   UNL     1       2.601   4.793  20.692  0.00  0.00    +0.000 C 
ATOM     13  C   UNL     1       1.401   3.974  20.231  0.00  0.00    +0.000 C 
ATOM     14  N   UNL     1       1.731   2.682  19.623  0.00  0.00    +0.000 NA
ATOM     15  C   UNL     1       0.554   2.131  18.950  0.00  0.00    +0.000 C 
ATOM     16  C   UNL     1       2.920   2.685  18.744  0.00  0.00    +0.000 C 
ATOM     17  C   UNL     1       3.108   3.910  17.824  0.00  0.00    +0.000 C 
ENDBRANCH   4  10
BRANCH   7  18
ATOM     18  C   UNL     1       6.889   4.704  14.398  0.00  0.00    +0.000 A 
ATOM     19  C   UNL     1       7.549   4.770  13.166  0.00  0.00    +0.000 A 
ATOM     20  C   UNL     1       6.988   4.185  12.025  0.00  0.00    +0.000 A 
ATOM     21  C   UNL     1       5.769   3.515  12.115  0.00  0.00    +0.000 A 
ATOM     22 CL   UNL     1       5.057   2.831  10.707  0.00  0.00    +0.000 Cl
ATOM     23  C   UNL     1       5.115   3.411  13.335  0.00  0.00    +0.000 A 
ATOM     24  C   UNL     1       5.673   4.006  14.465  0.00  0.00    +0.000 A 
ENDBRANCH   7  18
TORSDOF 2
ENDMDL
MODEL 4
REMARK VINA RESULT:      -7.7      2.583      4.614
REMARK  Name = 
REMARK  4 active torsions:
REMARK  status: ('A' for Active; 'I' for Inactive)
REMARK    1  A    between atoms: C_1  and  C_2
REMARK    2  A    between atoms: C_4  and  N_5
REMARK    3  A    between atoms: N_9  and  C_10
REMARK    4  A    between atoms: N_15  and  C_16
REMARK                            x       y       z     vdW  Elec       q    Type
REMARK                         _______ _______ _______ _____ _____    ______ ____
ROOT
ATOM      1  C   UNL     1       0.554   2.312  19.006  0.00  0.00    +0.000 C 
ATOM      2  C   UNL     1       1.719   3.215  18.741  0.00  0.00    +0.000 A 
ATOM      3  C   UNL     1       1.704   4.511  19.211  0.00  0.00    +0.000 A 
ATOM      4  C   UNL     1       2.729   5.356  18.839  0.00  0.00    +0.000 A 
ATOM      5  N   UNL     1       3.731   4.883  18.098  0.00  0.00    +0.000 NA
ATOM      6  C   UNL     1       3.709   3.595  17.694  0.00  0.00    +0.000 A 
ATOM      7  N   UNL     1       4.756   3.108  16.917  0.00  0.00    +0.000 N 
ATOM      8  N   UNL     1       2.731   2.733  17.999  0.00  0.00    +0.000 NA
ATOM      9  H   UNL     1       4.700   2.107  16.809  0.00  0.00    +0.000 HD
ENDROOT
BRANCH   4  10
ATOM     10  N   UNL     1       2.736   6.686  19.235  0.00  0.00    +0.000 N 
ATOM     11  C   UNL     1       2.221   7.056  20.549  0.00  0.00    +0.000 C 
ATOM     12  C   UNL     1       0.974   7.928  20.506  0.00  0.00    +0.000 C 
ATOM     13  C   UNL     1       1.284   9.341  20.024  0.00  0.00    +0.000 C 
ATOM     14  N   UNL     1       1.177   9.537  18.576  0.00  0.00    +0.000 NA
ATOM     15  C   UNL     1       1.783  10.814  18.197  0.00  0.00    +0.000 C 
ATOM     16  C   UNL     1       1.682   8.419  17.750  0.00  0.00    +0.000 C 
ATOM     17  C   UNL     1       2.978   7.728  18.224  0.00  0.00    +0.000 C 
ENDBRANCH   4  10
BRANCH   7  18
ATOM     18  C   UNL     1       5.552   3.816  16.007  0.00  0.00    +0.000 A 
ATOM     19  C   UNL     1       5.233   3.791  14.645  0.00  0.00    +0.000 A 
ATOM     20  C   UNL     1       6.086   4.379  13.703  0.00  0.00    +0.000 A 
ATOM     21  C   UNL     1       7.257   5.009  14.123  0.00  0.00    +0.000 A 
ATOM     22 CL   UNL     1       8.328   5.694  12.966  0.00  0.00    +0.000 Cl
ATOM     23  C   UNL     1       7.574   5.071  15.474  0.00  0.00    +0.000 A 
ATOM     24  C   UNL     1       6.726   4.474  16.405  0.00  0.00    +0.000 A 
ENDBRANCH   7  18
TORSDOF 2
ENDMDL
MODEL 5
REMARK VINA RESULT:      -7.5      2.797      4.828
REMARK  Name = 
REMARK  4 active torsions:
REMARK  status: ('A' for Active; 'I' for Inactive)
REMARK    1  A    between atoms: C_1  and  C_2
REMARK    2  A    between atoms: C_4  and  N_5
REMARK    3  A    between atoms: N_9  and  C_10
REMARK    4  A    between atoms: N_15  and  C_16
REMARK                            x       y       z     vdW  Elec       q    Type
REMARK                         _______ _______ _______ _____ _____    ______ ____
ROOT
ATOM      1  C   UNL     1       1.081   2.747  21.183  0.00  0.00    +0.000 C 
ATOM      2  C   UNL     1       2.049   3.700  20.552  0.00  0.00    +0.000 A 
ATOM      3  C   UNL     1       1.842   5.059  20.656  0.00  0.00    +0.000 A 
ATOM      4  C   UNL     1       2.676   5.906  19.955  0.00  0.00    +0.000 A 
ATOM      5  N   UNL     1       3.689   5.395  19.257  0.00  0.00    +0.000 NA
ATOM      6  C   UNL     1       3.864   4.057  19.218  0.00  0.00    +0.000 A 
ATOM      7  N   UNL     1       4.922   3.530  18.483  0.00  0.00    +0.000 N 
ATOM      8  N   UNL     1       3.074   3.183  19.854  0.00  0.00    +0.000 NA
ATOM      9  H   UNL     1       5.034   2.542  18.654  0.00  0.00    +0.000 HD
ENDROOT
BRANCH   4  10
ATOM     10  N   UNL     1       2.479   7.279  19.977  0.00  0.00    +0.000 N 
ATOM     11  C   UNL     1       1.756   7.892  21.085  0.00  0.00    +0.000 C 
ATOM     12  C   UNL     1       0.434   8.536  20.687  0.00  0.00    +0.000 C 
ATOM     13  C   UNL     1       0.643   9.809  19.875  0.00  0.00    +0.000 C 
ATOM     14  N   UNL     1       0.707   9.613  18.424  0.00  0.00    +0.000 NA
ATOM     15  C   UNL     1       1.209  10.826  17.777  0.00  0.00    +0.000 C 
ATOM     16  C   UNL     1       1.441   8.407  17.983  0.00  0.00    +0.000 C 
ATOM     17  C   UNL     1       2.733   8.054  18.751  0.00  0.00    +0.000 C 
ENDBRANCH   4  10
BRANCH   7  18
ATOM     18  C   UNL     1       5.516   4.061  17.331  0.00  0.00    +0.000 A 
ATOM     19  C   UNL     1       4.826   4.016  16.115  0.00  0.00    +0.000 A 
ATOM     20  C   UNL     1       5.450   4.418  14.927  0.00  0.00    +0.000 A 
ATOM     21  C   UNL     1       6.764   4.881  14.955  0.00  0.00    +0.000 A 
ATOM     22 CL   UNL     1       7.547   5.335  13.493  0.00  0.00    +0.000 Cl
ATOM     23  C   UNL     1       7.454   4.962  16.157  0.00  0.00    +0.000 A 
ATOM     24  C   UNL     1       6.831   4.550  17.334  0.00  0.00    +0.000 A 
ENDBRANCH   7  18
TORSDOF 2
ENDMDL
MODEL 6
REMARK VINA RESULT:      -7.3      3.798      6.138
REMARK  Name = 
REMARK  4 active torsions:
REMARK  status: ('A' for Active; 'I' for Inactive)
REMARK    1  A    between atoms: C_1  and  C_2
REMARK    2  A    between atoms: C_4  and  N_5
REMARK    3  A    between atoms: N_9  and  C_10
REMARK    4  A    between atoms: N_15  and  C_16
REMARK                            x       y       z     vdW  Elec       q    Type
REMARK                         _______ _______ _______ _____ _____    ______ ____
ROOT
ATOM      1  C   UNL     1       5.955   5.018  14.562  0.00  0.00    +0.000 C 
ATOM      2  C   UNL     1       5.185   5.276  15.821  0.00  0.00    +0.000 A 
ATOM      3  C   UNL     1       4.742   4.217  16.583  0.00  0.00    +0.000 A 
ATOM      4  C   UNL     1       3.925   4.482  17.663  0.00  0.00    +0.000 A 
ATOM      5  N   UNL     1       3.644   5.747  17.976  0.00  0.00    +0.000 NA
ATOM      6  C   UNL     1       4.134   6.746  17.212  0.00  0.00    +0.000 A 
ATOM      7  N   UNL     1       3.835   8.064  17.541  0.00  0.00    +0.000 N 
ATOM      8  N   UNL     1       4.909   6.552  16.137  0.00  0.00    +0.000 NA
ATOM      9  H   UNL     1       4.376   8.714  16.992  0.00  0.00    +0.000 HD
ENDROOT
BRANCH   4  10
ATOM     10  N   UNL     1       3.402   3.451  18.432  0.00  0.00    +0.000 N 
ATOM     11  C   UNL     1       2.480   2.493  17.833  0.00  0.00    +0.000 C 
ATOM     12  C   UNL     1       1.073   2.538  18.412  0.00  0.00    +0.000 C 
ATOM     13  C   UNL     1       1.023   1.981  19.830  0.00  0.00    +0.000 C 
ATOM     14  N   UNL     1       1.230   2.971  20.891  0.00  0.00    +0.000 NA
ATOM     15  C   UNL     1       1.468   2.295  22.167  0.00  0.00    +0.000 C 
ATOM     16  C   UNL     1       2.261   3.993  20.606  0.00  0.00    +0.000 C 
ATOM     17  C   UNL     1       3.545   3.513  19.896  0.00  0.00    +0.000 C 
ENDBRANCH   4  10
BRANCH   7  18
ATOM     18  C   UNL     1       2.684   8.551  18.174  0.00  0.00    +0.000 A 
ATOM     19  C   UNL     1       2.034   9.677  17.657  0.00  0.00    +0.000 A 
ATOM     20  C   UNL     1       0.963  10.260  18.345  0.00  0.00    +0.000 A 
ATOM     21  C   UNL     1       0.527   9.708  19.548  0.00  0.00    +0.000 A 
ATOM     22 CL   UNL     1      -0.761  10.447  20.416  0.00  0.00    +0.000 Cl
ATOM     23  C   UNL     1       1.138   8.572  20.061  0.00  0.00    +0.000 A 
ATOM     24  C   UNL     1       2.211   8.003  19.377  0.00  0.00    +0.000 A 
ENDBRANCH   7  18
TORSDOF 2
ENDMDL
MODEL 7
REMARK VINA RESULT:      -7.1      0.977      1.793
REMARK  Name = 
REMARK  4 active torsions:
REMARK  status: ('A' for Active; 'I' for Inactive)
REMARK    1  A    between atoms: C_1  and  C_2
REMARK    2  A    between atoms: C_4  and  N_5
REMARK    3  A    between atoms: N_9  and  C_10
REMARK    4  A    between atoms: N_15  and  C_16
REMARK                            x       y       z     vdW  Elec       q    Type
REMARK                         _______ _______ _______ _____ _____    ______ ____
ROOT
ATOM      1  C   UNL     1       8.199   6.200  19.502  0.00  0.00    +0.000 C 
ATOM      2  C   UNL     1       7.192   5.657  18.536  0.00  0.00    +0.000 A 
ATOM      3  C   UNL     1       6.106   4.947  19.002  0.00  0.00    +0.000 A 
ATOM      4  C   UNL     1       5.269   4.348  18.083  0.00  0.00    +0.000 A 
ATOM      5  N   UNL     1       5.493   4.526  16.782  0.00  0.00    +0.000 NA
ATOM      6  C   UNL     1       6.554   5.260  16.383  0.00  0.00    +0.000 A 
ATOM      7  N   UNL     1       6.784   5.439  15.022  0.00  0.00    +0.000 N 
ATOM      8  N   UNL     1       7.416   5.844  17.224  0.00  0.00    +0.000 NA
ATOM      9  H   UNL     1       7.508   6.122  14.857  0.00  0.00    +0.000 HD
ENDROOT
BRANCH   4  10
ATOM     10  N   UNL     1       4.194   3.574  18.496  0.00  0.00    +0.000 N 
ATOM     11  C   UNL     1       3.088   3.317  17.580  0.00  0.00    +0.000 C 
ATOM     12  C   UNL     1       1.763   3.926  18.018  0.00  0.00    +0.000 C 
ATOM     13  C   UNL     1       1.175   3.203  19.225  0.00  0.00    +0.000 C 
ATOM     14  N   UNL     1       1.577   3.744  20.526  0.00  0.00    +0.000 NA
ATOM     15  C   UNL     1       1.217   2.808  21.591  0.00  0.00    +0.000 C 
ATOM     16  C   UNL     1       2.989   4.172  20.621  0.00  0.00    +0.000 C 
ATOM     17  C   UNL     1       4.040   3.277  19.930  0.00  0.00    +0.000 C 
ENDBRANCH   4  10
BRANCH   7  18
ATOM     18  C   UNL     1       6.466   4.566  13.975  0.00  0.00    +0.000 A 
ATOM     19  C   UNL     1       7.408   4.316  12.971  0.00  0.00    +0.000 A 
ATOM     20  C   UNL     1       7.068   3.554  11.847  0.00  0.00    +0.000 A 
ATOM     21  C   UNL     1       5.784   3.024  11.730  0.00  0.00    +0.000 A 
ATOM     22 CL   UNL     1       5.350   2.123  10.331  0.00  0.00    +0.000 Cl
ATOM     23  C   UNL     1       4.844   3.233  12.731  0.00  0.00    +0.000 A 
ATOM     24  C   UNL     1       5.187   4.003  13.842  0.00  0.00    +0.000 A 
ENDBRANCH   7  18
TORSDOF 2
ENDMDL
MODEL 8
REMARK VINA RESULT:      -7.1      2.767      4.776
REMARK  Name = 
REMARK  4 active torsions:
REMARK  status: ('A' for Active; 'I' for Inactive)
REMARK    1  A    between atoms: C_1  and  C_2
REMARK    2  A    between atoms: C_4  and  N_5
REMARK    3  A    between atoms: N_9  and  C_10
REMARK    4  A    between atoms: N_15  and  C_16
REMARK                            x       y       z     vdW  Elec       q    Type
REMARK                         _______ _______ _______ _____ _____    ______ ____
ROOT
ATOM      1  C   UNL     1       1.995   2.460  21.770  0.00  0.00    +0.000 C 
ATOM      2  C   UNL     1       2.571   3.498  20.856  0.00  0.00    +0.000 A 
ATOM      3  C   UNL     1       1.859   4.648  20.588  0.00  0.00    +0.000 A 
ATOM      4  C   UNL     1       2.355   5.521  19.642  0.00  0.00    +0.000 A 
ATOM      5  N   UNL     1       3.530   5.265  19.067  0.00  0.00    +0.000 NA
ATOM      6  C   UNL     1       4.199   4.139  19.393  0.00  0.00    +0.000 A 
ATOM      7  N   UNL     1       5.423   3.875  18.786  0.00  0.00    +0.000 N 
ATOM      8  N   UNL     1       3.758   3.240  20.282  0.00  0.00    +0.000 NA
ATOM      9  H   UNL     1       5.889   3.092  19.220  0.00  0.00    +0.000 HD
ENDROOT
BRANCH   4  10
ATOM     10  N   UNL     1       1.653   6.666  19.290  0.00  0.00    +0.000 N 
ATOM     11  C   UNL     1       1.933   7.330  18.023  0.00  0.00    +0.000 C 
ATOM     12  C   UNL     1       2.521   8.727  18.168  0.00  0.00    +0.000 C 
ATOM     13  C   UNL     1       1.490   9.728  18.678  0.00  0.00    +0.000 C 
ATOM     14  N   UNL     1       1.429   9.864  20.136  0.00  0.00    +0.000 NA
ATOM     15  C   UNL     1       0.224  10.599  20.520  0.00  0.00    +0.000 C 
ATOM     16  C   UNL     1       1.572   8.602  20.893  0.00  0.00    +0.000 C 
ATOM     17  C   UNL     1       0.860   7.358  20.320  0.00  0.00    +0.000 C 
ENDBRANCH   4  10
BRANCH   7  18
ATOM     18  C   UNL     1       5.847   4.254  17.507  0.00  0.00    +0.000 A 
ATOM     19  C   UNL     1       5.130   3.824  16.385  0.00  0.00    +0.000 A 
ATOM     20  C   UNL     1       5.607   4.078  15.093  0.00  0.00    +0.000 A 
ATOM     21  C   UNL     1       6.799   4.779  14.918  0.00  0.00    +0.000 A 
ATOM     22 CL   UNL     1       7.410   5.056  13.335  0.00  0.00    +0.000 Cl
ATOM     23  C   UNL     1       7.508   5.242  16.018  0.00  0.00    +0.000 A 
ATOM     24  C   UNL     1       7.033   4.976  17.302  0.00  0.00    +0.000 A 
ENDBRANCH   7  18
TORSDOF 2
ENDMDL
MODEL 9
REMARK VINA RESULT:      -7.1     10.292     13.339
REMARK  Name = 
REMARK  4 active torsions:
REMARK  status: ('A' for Active; 'I' for Inactive)
REMARK    1  A    between atoms: C_1  and  C_2
REMARK    2  A    between atoms: C_4  and  N_5
REMARK    3  A    between atoms: N_9  and  C_10
REMARK    4  A    between atoms: N_15  and  C_16
REMARK                            x       y       z     vdW  Elec       q    Type
REMARK                         _______ _______ _______ _____ _____    ______ ____
ROOT
ATOM      1  C   UNL     1      -3.492  10.045  14.424  0.00  0.00    +0.000 C 
ATOM      2  C   UNL     1      -3.454  10.718  15.762  0.00  0.00    +0.000 A 
ATOM      3  C   UNL     1      -2.255  10.855  16.427  0.00  0.00    +0.000 A 
ATOM      4  C   UNL     1      -2.271  11.360  17.711  0.00  0.00    +0.000 A 
ATOM      5  N   UNL     1      -3.426  11.759  18.243  0.00  0.00    +0.000 NA
ATOM      6  C   UNL     1      -4.566  11.631  17.531  0.00  0.00    +0.000 A 
ATOM      7  N   UNL     1      -5.769  12.046  18.093  0.00  0.00    +0.000 N 
ATOM      8  N   UNL     1      -4.619  11.125  16.293  0.00  0.00    +0.000 NA
ATOM      9  H   UNL     1      -6.515  12.040  17.415  0.00  0.00    +0.000 HD
ENDROOT
BRANCH   4  10
ATOM     10  N   UNL     1      -1.101  11.467  18.450  0.00  0.00    +0.000 N 
ATOM     11  C   UNL     1      -0.701  10.382  19.339  0.00  0.00    +0.000 C 
ATOM     12  C   UNL     1      -0.696  10.756  20.815  0.00  0.00    +0.000 C 
ATOM     13  C   UNL     1       0.445  11.708  21.158  0.00  0.00    +0.000 C 
ATOM     14  N   UNL     1       0.118  13.132  21.046  0.00  0.00    +0.000 NA
ATOM     15  C   UNL     1       1.342  13.932  21.093  0.00  0.00    +0.000 C 
ATOM     16  C   UNL     1      -0.735  13.493  19.893  0.00  0.00    +0.000 C 
ATOM     17  C   UNL     1      -0.443  12.780  18.556  0.00  0.00    +0.000 C 
ENDBRANCH   4  10
BRANCH   7  18
ATOM     18  C   UNL     1      -6.124  12.061  19.448  0.00  0.00    +0.000 A 
ATOM     19  C   UNL     1      -7.178  11.255  19.895  0.00  0.00    +0.000 A 
ATOM     20  C   UNL     1      -7.637  11.351  21.214  0.00  0.00    +0.000 A 
ATOM     21  C   UNL     1      -7.033  12.243  22.098  0.00  0.00    +0.000 A 
ATOM     22 CL   UNL     1      -7.622  12.394  23.706  0.00  0.00    +0.000 Cl
ATOM     23  C   UNL     1      -5.965  13.028  21.682  0.00  0.00    +0.000 A 
ATOM     24  C   UNL     1      -5.520  12.936  20.364  0.00  0.00    +0.000 A 
ENDBRANCH   7  18
TORSDOF 2
ENDMDL
