MODEL 1
REMARK VINA RESULT:      -8.1      0.000      0.000
REMARK  Name = 
REMARK  3 active torsions:
REMARK  status: ('A' for Active; 'I' for Inactive)
REMARK    1  A    between atoms: C_2  and  C_3
REMARK    2  A    between atoms: N_6  and  C_7
REMARK    3  A    between atoms: C_19  and  N_20
REMARK                            x       y       z     vdW  Elec       q    Type
REMARK                         _______ _______ _______ _____ _____    ______ ____
ROOT
ATOM      1  O   UNL     1       5.214   2.680  19.593  0.00  0.00    +0.000 OA
ATOM      2  C   UNL     1       4.891   3.770  19.122  0.00  0.00    +0.000 C 
ATOM      3  N   UNL     1       3.793   4.488  19.617  0.00  0.00    +0.000 N 
ATOM      4  C   UNL     1       2.961   3.892  20.656  0.00  0.00    +0.000 C 
ATOM      5  C   UNL     1       1.481   4.193  20.397  0.00  0.00    +0.000 C 
ATOM      6  C   UNL     1       1.214   5.681  20.149  0.00  0.00    +0.000 C 
ATOM      7  C   UNL     1       2.171   6.263  19.095  0.00  0.00    +0.000 C 
ATOM      8  C   UNL     1       3.619   5.933  19.461  0.00  0.00    +0.000 C 
ENDROOT
BRANCH   2   9
ATOM      9  C   UNL     1       5.676   4.368  18.024  0.00  0.00    +0.000 A 
ATOM     10  C   UNL     1       6.456   5.543  18.115  0.00  0.00    +0.000 A 
ATOM     11  C   UNL     1       6.936   5.760  16.846  0.00  0.00    +0.000 A 
ATOM     12  N   UNL     1       6.470   4.733  16.059  0.00  0.00    +0.000 N 
ATOM     13  N   UNL     1       5.758   3.838  16.788  0.00  0.00    +0.000 NA
BRANCH  12  14
ATOM     14  C   UNL     1       6.632   4.566  14.654  0.00  0.00    +0.000 A 
ATOM     15  C   UNL     1       7.607   5.312  13.967  0.00  0.00    +0.000 A 
ATOM     16  C   UNL     1       7.788   5.142  12.590  0.00  0.00    +0.000 A 
ATOM     17  C   UNL     1       6.995   4.235  11.891  0.00  0.00    +0.000 A 
ATOM     18  C   UNL     1       6.034   3.500  12.574  0.00  0.00    +0.000 A 
ATOM     19  F   UNL     1       5.271   2.628  11.903  0.00  0.00    +0.000 F 
ATOM     20  C   UNL     1       5.844   3.652  13.945  0.00  0.00    +0.000 A 
ENDBRANCH  12  14
ENDBRANCH   2   9
BRANCH   7  21
ATOM     21  N   UNL     1       2.014   7.701  18.930  0.00  0.00    +0.000 N 
ATOM     22  C   UNL     1       1.467   8.574  19.826  0.00  0.00    +0.000 A 
ATOM     23  C   UNL     1       1.443   9.798  19.198  0.00  0.00    +0.000 A 
ATOM     24  C   UNL     1       1.996   9.559  17.927  0.00  0.00    +0.000 A 
ATOM     25  N   UNL     1       2.348   8.283  17.759  0.00  0.00    +0.000 NA
ENDBRANCH   7  21
TORSDOF 3
ENDMDL
MODEL 2
REMARK VINA RESULT:      -7.9      0.996      1.386
REMARK  Name = 
REMARK  3 active torsions:
REMARK  status: ('A' for Active; 'I' for Inactive)
REMARK    1  A    between atoms: C_2  and  C_3
REMARK    2  A    between atoms: N_6  and  C_7
REMARK    3  A    between atoms: C_19  and  N_20
REMARK                            x       y       z     vdW  Elec       q    Type
REMARK                         _______ _______ _______ _____ _____    ______ ____
ROOT
ATOM      1  O   UNL     1       5.048   2.426  19.845  0.00  0.00    +0.000 OA
ATOM      2  C   UNL     1       4.782   3.524  19.357  0.00  0.00    +0.000 C 
ATOM      3  N   UNL     1       3.673   4.270  19.783  0.00  0.00    +0.000 N 
ATOM      4  C   UNL     1       2.763   3.695  20.767  0.00  0.00    +0.000 C 
ATOM      5  C   UNL     1       1.310   4.033  20.417  0.00  0.00    +0.000 C 
ATOM      6  C   UNL     1       1.096   5.528  20.154  0.00  0.00    +0.000 C 
ATOM      7  C   UNL     1       2.133   6.084  19.163  0.00  0.00    +0.000 C 
ATOM      8  C   UNL     1       3.545   5.719  19.618  0.00  0.00    +0.000 C 
ENDROOT
BRANCH   2   9
ATOM      9  C   UNL     1       5.649   4.102  18.311  0.00  0.00    +0.000 A 
ATOM     10  C   UNL     1       6.586   5.143  18.500  0.00  0.00    +0.000 A 
ATOM     11  C   UNL     1       7.098   5.403  17.253  0.00  0.00    +0.000 A 
ATOM     12  N   UNL     1       6.497   4.526  16.380  0.00  0.00    +0.000 N 
ATOM     13  N   UNL     1       5.662   3.678  17.032  0.00  0.00    +0.000 NA
BRANCH  12  14
ATOM     14  C   UNL     1       6.641   4.464  14.966  0.00  0.00    +0.000 A 
ATOM     15  C   UNL     1       5.874   3.548  14.222  0.00  0.00    +0.000 A 
ATOM     16  C   UNL     1       5.993   3.491  12.829  0.00  0.00    +0.000 A 
ATOM     17  C   UNL     1       6.879   4.340  12.171  0.00  0.00    +0.000 A 
ATOM     18  C   UNL     1       7.634   5.244  12.910  0.00  0.00    +0.000 A 
ATOM     19  F   UNL     1       8.487   6.061  12.278  0.00  0.00    +0.000 F 
ATOM     20  C   UNL     1       7.524   5.318  14.296  0.00  0.00    +0.000 A 
ENDBRANCH  12  14
ENDBRANCH   2   9
BRANCH   7  21
ATOM     21  N   UNL     1       2.022   7.526  18.990  0.00  0.00    +0.000 N 
ATOM     22  C   UNL     1       1.435   8.413  19.848  0.00  0.00    +0.000 A 
ATOM     23  C   UNL     1       1.485   9.637  19.222  0.00  0.00    +0.000 A 
ATOM     24  C   UNL     1       2.119   9.385  17.992  0.00  0.00    +0.000 A 
ATOM     25  N   UNL     1       2.450   8.100  17.847  0.00  0.00    +0.000 NA
ENDBRANCH   7  21
TORSDOF 3
ENDMDL
MODEL 3
REMARK VINA RESULT:      -7.8      3.592      7.564
REMARK  Name = 
REMARK  3 active torsions:
REMARK  status: ('A' for Active; 'I' for Inactive)
REMARK    1  A    between atoms: C_2  and  C_3
REMARK    2  A    between atoms: N_6  and  C_7
REMARK    3  A    between atoms: C_19  and  N_20
REMARK                            x       y       z     vdW  Elec       q    Type
REMARK                         _______ _______ _______ _____ _____    ______ ____
ROOT
ATOM      1  O   UNL     1       2.229   3.704  16.996  0.00  0.00    +0.000 OA
ATOM      2  C   UNL     1       3.019   4.484  17.526  0.00  0.00    +0.000 C 
ATOM      3  N   UNL     1       4.281   4.743  16.972  0.00  0.00    +0.000 N 
ATOM      4  C   UNL     1       4.703   4.007  15.786  0.00  0.00    +0.000 C 
ATOM      5  C   UNL     1       6.184   3.627  15.888  0.00  0.00    +0.000 C 
ATOM      6  C   UNL     1       7.078   4.819  16.244  0.00  0.00    +0.000 C 
ATOM      7  C   UNL     1       6.537   5.592  17.459  0.00  0.00    +0.000 C 
ATOM      8  C   UNL     1       5.066   5.948  17.244  0.00  0.00    +0.000 C 
ENDROOT
BRANCH   2   9
ATOM      9  C   UNL     1       2.645   5.194  18.765  0.00  0.00    +0.000 A 
ATOM     10  C   UNL     1       2.537   4.609  20.048  0.00  0.00    +0.000 A 
ATOM     11  C   UNL     1       2.094   5.615  20.870  0.00  0.00    +0.000 A 
ATOM     12  N   UNL     1       1.975   6.746  20.095  0.00  0.00    +0.000 N 
ATOM     13  N   UNL     1       2.380   6.514  18.822  0.00  0.00    +0.000 NA
BRANCH  12  14
ATOM     14  C   UNL     1       1.473   8.021  20.480  0.00  0.00    +0.000 A 
ATOM     15  C   UNL     1       1.329   9.038  19.518  0.00  0.00    +0.000 A 
ATOM     16  C   UNL     1       0.818  10.289  19.880  0.00  0.00    +0.000 A 
ATOM     17  C   UNL     1       0.454  10.535  21.201  0.00  0.00    +0.000 A 
ATOM     18  C   UNL     1       0.597   9.527  22.148  0.00  0.00    +0.000 A 
ATOM     19  F   UNL     1       0.247   9.763  23.419  0.00  0.00    +0.000 F 
ATOM     20  C   UNL     1       1.098   8.275  21.804  0.00  0.00    +0.000 A 
ENDBRANCH  12  14
ENDBRANCH   2   9
BRANCH   7  21
ATOM     21  N   UNL     1       7.306   6.797  17.742  0.00  0.00    +0.000 N 
ATOM     22  C   UNL     1       8.189   6.984  18.768  0.00  0.00    +0.000 A 
ATOM     23  C   UNL     1       8.590   8.297  18.688  0.00  0.00    +0.000 A 
ATOM     24  C   UNL     1       7.894   8.818  17.583  0.00  0.00    +0.000 A 
ATOM     25  N   UNL     1       7.111   7.907  17.002  0.00  0.00    +0.000 NA
ENDBRANCH   7  21
TORSDOF 3
ENDMDL
MODEL 4
REMARK VINA RESULT:      -7.6      3.248      7.422
REMARK  Name = 
REMARK  3 active torsions:
REMARK  status: ('A' for Active; 'I' for Inactive)
REMARK    1  A    between atoms: C_2  and  C_3
REMARK    2  A    between atoms: N_6  and  C_7
REMARK    3  A    between atoms: C_19  and  N_20
REMARK                            x       y       z     vdW  Elec       q    Type
REMARK                         _______ _______ _______ _____ _____    ______ ____
ROOT
ATOM      1  O   UNL     1       2.145   3.790  17.048  0.00  0.00    +0.000 OA
ATOM      2  C   UNL     1       2.941   4.574  17.565  0.00  0.00    +0.000 C 
ATOM      3  N   UNL     1       4.213   4.798  17.018  0.00  0.00    +0.000 N 
ATOM      4  C   UNL     1       4.637   4.023  15.858  0.00  0.00    +0.000 C 
ATOM      5  C   UNL     1       6.110   3.624  15.987  0.00  0.00    +0.000 C 
ATOM      6  C   UNL     1       7.019   4.812  16.320  0.00  0.00    +0.000 C 
ATOM      7  C   UNL     1       6.476   5.627  17.506  0.00  0.00    +0.000 C 
ATOM      8  C   UNL     1       5.013   5.998  17.265  0.00  0.00    +0.000 C 
ENDROOT
BRANCH   2   9
ATOM      9  C   UNL     1       2.564   5.324  18.779  0.00  0.00    +0.000 A 
ATOM     10  C   UNL     1       2.418   4.774  20.073  0.00  0.00    +0.000 A 
ATOM     11  C   UNL     1       1.987   5.812  20.862  0.00  0.00    +0.000 A 
ATOM     12  N   UNL     1       1.913   6.926  20.058  0.00  0.00    +0.000 N 
ATOM     13  N   UNL     1       2.335   6.651  18.799  0.00  0.00    +0.000 NA
BRANCH  12  14
ATOM     14  C   UNL     1       1.439   8.223  20.402  0.00  0.00    +0.000 A 
ATOM     15  C   UNL     1       1.124   8.522  21.741  0.00  0.00    +0.000 A 
ATOM     16  C   UNL     1       0.675   9.799  22.095  0.00  0.00    +0.000 A 
ATOM     17  C   UNL     1       0.530  10.780  21.117  0.00  0.00    +0.000 A 
ATOM     18  C   UNL     1       0.842  10.480  19.797  0.00  0.00    +0.000 A 
ATOM     19  F   UNL     1       0.703  11.423  18.856  0.00  0.00    +0.000 F 
ATOM     20  C   UNL     1       1.296   9.217  19.428  0.00  0.00    +0.000 A 
ENDBRANCH  12  14
ENDBRANCH   2   9
BRANCH   7  21
ATOM     21  N   UNL     1       7.259   6.828  17.764  0.00  0.00    +0.000 N 
ATOM     22  C   UNL     1       8.192   7.003  18.747  0.00  0.00    +0.000 A 
ATOM     23  C   UNL     1       8.591   8.317  18.662  0.00  0.00    +0.000 A 
ATOM     24  C   UNL     1       7.843   8.850  17.598  0.00  0.00    +0.000 A 
ATOM     25  N   UNL     1       7.031   7.946  17.046  0.00  0.00    +0.000 NA
ENDBRANCH   7  21
TORSDOF 3
ENDMDL
MODEL 5
REMARK VINA RESULT:      -7.6      4.982      7.625
REMARK  Name = 
REMARK  3 active torsions:
REMARK  status: ('A' for Active; 'I' for Inactive)
REMARK    1  A    between atoms: C_2  and  C_3
REMARK    2  A    between atoms: N_6  and  C_7
REMARK    3  A    between atoms: C_19  and  N_20
REMARK                            x       y       z     vdW  Elec       q    Type
REMARK                         _______ _______ _______ _____ _____    ______ ____
ROOT
ATOM      1  O   UNL     1       1.351  11.404  21.225  0.00  0.00    +0.000 OA
ATOM      2  C   UNL     1       0.775  10.908  20.257  0.00  0.00    +0.000 C 
ATOM      3  N   UNL     1      -0.443  11.420  19.785  0.00  0.00    +0.000 N 
ATOM      4  C   UNL     1      -1.086  12.510  20.508  0.00  0.00    +0.000 C 
ATOM      5  C   UNL     1      -2.603  12.300  20.561  0.00  0.00    +0.000 C 
ATOM      6  C   UNL     1      -3.209  12.010  19.184  0.00  0.00    +0.000 C 
ATOM      7  C   UNL     1      -2.440  10.900  18.447  0.00  0.00    +0.000 C 
ATOM      8  C   UNL     1      -0.946  11.220  18.425  0.00  0.00    +0.000 C 
ENDROOT
BRANCH   2   9
ATOM      9  C   UNL     1       1.369   9.760  19.545  0.00  0.00    +0.000 A 
ATOM     10  C   UNL     1       1.856   9.776  18.218  0.00  0.00    +0.000 A 
ATOM     11  C   UNL     1       2.239   8.484  17.955  0.00  0.00    +0.000 A 
ATOM     12  N   UNL     1       2.006   7.755  19.098  0.00  0.00    +0.000 N 
ATOM     13  N   UNL     1       1.542   8.544  20.098  0.00  0.00    +0.000 NA
BRANCH  12  14
ATOM     14  C   UNL     1       2.166   6.353  19.288  0.00  0.00    +0.000 A 
ATOM     15  C   UNL     1       2.541   5.537  18.205  0.00  0.00    +0.000 A 
ATOM     16  C   UNL     1       2.720   4.161  18.384  0.00  0.00    +0.000 A 
ATOM     17  C   UNL     1       2.520   3.591  19.638  0.00  0.00    +0.000 A 
ATOM     18  C   UNL     1       2.149   4.401  20.705  0.00  0.00    +0.000 A 
ATOM     19  F   UNL     1       1.956   3.854  21.912  0.00  0.00    +0.000 F 
ATOM     20  C   UNL     1       1.973   5.773  20.546  0.00  0.00    +0.000 A 
ENDBRANCH  12  14
ENDBRANCH   2   9
BRANCH   7  21
ATOM     21  N   UNL     1      -2.925  10.690  17.090  0.00  0.00    +0.000 N 
ATOM     22  C   UNL     1      -2.344   9.923  16.120  0.00  0.00    +0.000 A 
ATOM     23  C   UNL     1      -3.101  10.107  14.986  0.00  0.00    +0.000 A 
ATOM     24  C   UNL     1      -4.115  11.001  15.373  0.00  0.00    +0.000 A 
ATOM     25  N   UNL     1      -4.014  11.359  16.655  0.00  0.00    +0.000 NA
ENDBRANCH   7  21
TORSDOF 3
ENDMDL
MODEL 6
REMARK VINA RESULT:      -7.6      4.721      7.511
REMARK  Name = 
REMARK  3 active torsions:
REMARK  status: ('A' for Active; 'I' for Inactive)
REMARK    1  A    between atoms: C_2  and  C_3
REMARK    2  A    between atoms: N_6  and  C_7
REMARK    3  A    between atoms: C_19  and  N_20
REMARK                            x       y       z     vdW  Elec       q    Type
REMARK                         _______ _______ _______ _____ _____    ______ ____
ROOT
ATOM      1  O   UNL     1       1.226  11.497  21.178  0.00  0.00    +0.000 OA
ATOM      2  C   UNL     1       0.678  10.978  20.205  0.00  0.00    +0.000 C 
ATOM      3  N   UNL     1      -0.536  11.464  19.700  0.00  0.00    +0.000 N 
ATOM      4  C   UNL     1      -1.210  12.556  20.391  0.00  0.00    +0.000 C 
ATOM      5  C   UNL     1      -2.725  12.324  20.414  0.00  0.00    +0.000 C 
ATOM      6  C   UNL     1      -3.296  12.005  19.028  0.00  0.00    +0.000 C 
ATOM      7  C   UNL     1      -2.495  10.895  18.326  0.00  0.00    +0.000 C 
ATOM      8  C   UNL     1      -1.006  11.237  18.332  0.00  0.00    +0.000 C 
ENDROOT
BRANCH   2   9
ATOM      9  C   UNL     1       1.305   9.828  19.525  0.00  0.00    +0.000 A 
ATOM     10  C   UNL     1       1.831   9.834  18.213  0.00  0.00    +0.000 A 
ATOM     11  C   UNL     1       2.234   8.543  17.976  0.00  0.00    +0.000 A 
ATOM     12  N   UNL     1       1.974   7.824  19.120  0.00  0.00    +0.000 N 
ATOM     13  N   UNL     1       1.471   8.619  20.097  0.00  0.00    +0.000 NA
BRANCH  12  14
ATOM     14  C   UNL     1       2.140   6.426  19.330  0.00  0.00    +0.000 A 
ATOM     15  C   UNL     1       1.849   5.867  20.588  0.00  0.00    +0.000 A 
ATOM     16  C   UNL     1       1.991   4.491  20.802  0.00  0.00    +0.000 A 
ATOM     17  C   UNL     1       2.430   3.669  19.768  0.00  0.00    +0.000 A 
ATOM     18  C   UNL     1       2.716   4.226  18.527  0.00  0.00    +0.000 A 
ATOM     19  F   UNL     1       3.139   3.435  17.532  0.00  0.00    +0.000 F 
ATOM     20  C   UNL     1       2.575   5.591  18.295  0.00  0.00    +0.000 A 
ENDBRANCH  12  14
ENDBRANCH   2   9
BRANCH   7  21
ATOM     21  N   UNL     1      -2.948  10.657  16.962  0.00  0.00    +0.000 N 
ATOM     22  C   UNL     1      -2.330   9.891  16.015  0.00  0.00    +0.000 A 
ATOM     23  C   UNL     1      -3.066  10.043  14.863  0.00  0.00    +0.000 A 
ATOM     24  C   UNL     1      -4.107  10.921  15.217  0.00  0.00    +0.000 A 
ATOM     25  N   UNL     1      -4.040  11.297  16.496  0.00  0.00    +0.000 NA
ENDBRANCH   7  21
TORSDOF 3
ENDMDL
MODEL 7
REMARK VINA RESULT:      -7.2      9.040     11.576
REMARK  Name = 
REMARK  3 active torsions:
REMARK  status: ('A' for Active; 'I' for Inactive)
REMARK    1  A    between atoms: C_2  and  C_3
REMARK    2  A    between atoms: N_6  and  C_7
REMARK    3  A    between atoms: C_19  and  N_20
REMARK                            x       y       z     vdW  Elec       q    Type
REMARK                         _______ _______ _______ _____ _____    ______ ____
ROOT
ATOM      1  O   UNL     1      -6.184  14.136  22.347  0.00  0.00    +0.000 OA
ATOM      2  C   UNL     1      -5.257  13.423  21.962  0.00  0.00    +0.000 C 
ATOM      3  N   UNL     1      -4.044  13.354  22.662  0.00  0.00    +0.000 N 
ATOM      4  C   UNL     1      -3.842  14.209  23.826  0.00  0.00    +0.000 C 
ATOM      5  C   UNL     1      -2.412  14.757  23.849  0.00  0.00    +0.000 C 
ATOM      6  C   UNL     1      -1.355  13.660  23.679  0.00  0.00    +0.000 C 
ATOM      7  C   UNL     1      -1.666  12.752  22.477  0.00  0.00    +0.000 C 
ATOM      8  C   UNL     1      -3.103  12.237  22.566  0.00  0.00    +0.000 C 
ENDROOT
BRANCH   2   9
ATOM      9  C   UNL     1      -5.409  12.597  20.749  0.00  0.00    +0.000 A 
ATOM     10  C   UNL     1      -6.546  11.826  20.415  0.00  0.00    +0.000 A 
ATOM     11  C   UNL     1      -6.214  11.172  19.254  0.00  0.00    +0.000 A 
ATOM     12  N   UNL     1      -4.941  11.571  18.917  0.00  0.00    +0.000 N 
ATOM     13  N   UNL     1      -4.470  12.498  19.788  0.00  0.00    +0.000 NA
BRANCH  12  14
ATOM     14  C   UNL     1      -4.134  11.103  17.842  0.00  0.00    +0.000 A 
ATOM     15  C   UNL     1      -4.601  11.208  16.518  0.00  0.00    +0.000 A 
ATOM     16  C   UNL     1      -3.809  10.769  15.451  0.00  0.00    +0.000 A 
ATOM     17  C   UNL     1      -2.554  10.219  15.697  0.00  0.00    +0.000 A 
ATOM     18  C   UNL     1      -2.097  10.119  17.006  0.00  0.00    +0.000 A 
ATOM     19  F   UNL     1      -0.889   9.590  17.244  0.00  0.00    +0.000 F 
ATOM     20  C   UNL     1      -2.869  10.555  18.079  0.00  0.00    +0.000 A 
ENDBRANCH  12  14
ENDBRANCH   2   9
BRANCH   7  21
ATOM     21  N   UNL     1      -0.741  11.633  22.368  0.00  0.00    +0.000 N 
ATOM     22  C   UNL     1       0.167  11.414  21.370  0.00  0.00    +0.000 A 
ATOM     23  C   UNL     1       0.741  10.193  21.641  0.00  0.00    +0.000 A 
ATOM     24  C   UNL     1       0.113   9.756  22.821  0.00  0.00    +0.000 A 
ATOM     25  N   UNL     1      -0.790  10.630  23.269  0.00  0.00    +0.000 NA
ENDBRANCH   7  21
TORSDOF 3
ENDMDL
MODEL 8
REMARK VINA RESULT:      -7.1      1.943      3.636
REMARK  Name = 
REMARK  3 active torsions:
REMARK  status: ('A' for Active; 'I' for Inactive)
REMARK    1  A    between atoms: C_2  and  C_3
REMARK    2  A    between atoms: N_6  and  C_7
REMARK    3  A    between atoms: C_19  and  N_20
REMARK                            x       y       z     vdW  Elec       q    Type
REMARK                         _______ _______ _______ _____ _____    ______ ____
ROOT
ATOM      1  O   UNL     1       3.625   8.791  17.080  0.00  0.00    +0.000 OA
ATOM      2  C   UNL     1       3.646   7.652  17.548  0.00  0.00    +0.000 C 
ATOM      3  N   UNL     1       2.738   7.247  18.536  0.00  0.00    +0.000 N 
ATOM      4  C   UNL     1       1.800   8.219  19.086  0.00  0.00    +0.000 C 
ATOM      5  C   UNL     1       1.646   8.022  20.597  0.00  0.00    +0.000 C 
ATOM      6  C   UNL     1       1.346   6.568  20.978  0.00  0.00    +0.000 C 
ATOM      7  C   UNL     1       2.327   5.591  20.308  0.00  0.00    +0.000 C 
ATOM      8  C   UNL     1       2.384   5.851  18.803  0.00  0.00    +0.000 C 
ENDROOT
BRANCH   2   9
ATOM      9  C   UNL     1       4.629   6.666  17.058  0.00  0.00    +0.000 A 
ATOM     10  C   UNL     1       5.594   6.003  17.850  0.00  0.00    +0.000 A 
ATOM     11  C   UNL     1       6.329   5.247  16.970  0.00  0.00    +0.000 A 
ATOM     12  N   UNL     1       5.790   5.446  15.720  0.00  0.00    +0.000 N 
ATOM     13  N   UNL     1       4.704   6.257  15.777  0.00  0.00    +0.000 NA
BRANCH  12  14
ATOM     14  C   UNL     1       6.261   4.943  14.475  0.00  0.00    +0.000 A 
ATOM     15  C   UNL     1       7.438   5.465  13.907  0.00  0.00    +0.000 A 
ATOM     16  C   UNL     1       7.921   4.965  12.693  0.00  0.00    +0.000 A 
ATOM     17  C   UNL     1       7.232   3.949  12.036  0.00  0.00    +0.000 A 
ATOM     18  C   UNL     1       6.070   3.436  12.601  0.00  0.00    +0.000 A 
ATOM     19  F   UNL     1       5.407   2.459  11.970  0.00  0.00    +0.000 F 
ATOM     20  C   UNL     1       5.579   3.918  13.811  0.00  0.00    +0.000 A 
ENDBRANCH  12  14
ENDBRANCH   2   9
BRANCH   7  21
ATOM     21  N   UNL     1       1.987   4.198  20.561  0.00  0.00    +0.000 N 
ATOM     22  C   UNL     1       2.107   3.526  21.745  0.00  0.00    +0.000 A 
ATOM     23  C   UNL     1       1.762   2.221  21.478  0.00  0.00    +0.000 A 
ATOM     24  C   UNL     1       1.451   2.207  20.107  0.00  0.00    +0.000 A 
ATOM     25  N   UNL     1       1.585   3.409  19.543  0.00  0.00    +0.000 NA
ENDBRANCH   7  21
TORSDOF 3
ENDMDL
MODEL 9
REMARK VINA RESULT:      -6.9      5.255      7.400
REMARK  Name = 
REMARK  3 active torsions:
REMARK  status: ('A' for Active; 'I' for Inactive)
REMARK    1  A    between atoms: C_2  and  C_3
REMARK    2  A    between atoms: N_6  and  C_7
REMARK    3  A    between atoms: C_19  and  N_20
REMARK                            x       y       z     vdW  Elec       q    Type
REMARK                         _______ _______ _______ _____ _____    ______ ____
ROOT
ATOM      1  O   UNL     1       1.745  10.575  21.732  0.00  0.00    +0.000 OA
ATOM      2  C   UNL     1       1.110  10.170  20.759  0.00  0.00    +0.000 C 
ATOM      3  N   UNL     1       0.020  10.885  20.242  0.00  0.00    +0.000 N 
ATOM      4  C   UNL     1      -0.426  12.094  20.924  0.00  0.00    +0.000 C 
ATOM      5  C   UNL     1      -1.956  12.170  20.938  0.00  0.00    +0.000 C 
ATOM      6  C   UNL     1      -2.572  11.961  19.550  0.00  0.00    +0.000 C 
ATOM      7  C   UNL     1      -2.005  10.710  18.858  0.00  0.00    +0.000 C 
ATOM      8  C   UNL     1      -0.477  10.747  18.872  0.00  0.00    +0.000 C 
ENDROOT
BRANCH   2   9
ATOM      9  C   UNL     1       1.498   8.913  20.089  0.00  0.00    +0.000 A 
ATOM     10  C   UNL     1       1.921   8.793  18.745  0.00  0.00    +0.000 A 
ATOM     11  C   UNL     1       2.100   7.448  18.538  0.00  0.00    +0.000 A 
ATOM     12  N   UNL     1       1.815   6.816  19.727  0.00  0.00    +0.000 N 
ATOM     13  N   UNL     1       1.517   7.713  20.700  0.00  0.00    +0.000 NA
BRANCH  12  14
ATOM     14  C   UNL     1       1.778   5.418  19.987  0.00  0.00    +0.000 A 
ATOM     15  C   UNL     1       2.193   4.925  21.238  0.00  0.00    +0.000 A 
ATOM     16  C   UNL     1       2.143   3.554  21.512  0.00  0.00    +0.000 A 
ATOM     17  C   UNL     1       1.686   2.667  20.541  0.00  0.00    +0.000 A 
ATOM     18  C   UNL     1       1.276   3.158  19.307  0.00  0.00    +0.000 A 
ATOM     19  F   UNL     1       0.837   2.306  18.371  0.00  0.00    +0.000 F 
ATOM     20  C   UNL     1       1.314   4.520  19.019  0.00  0.00    +0.000 A 
ENDBRANCH  12  14
ENDBRANCH   2   9
BRANCH   7  21
ATOM     21  N   UNL     1      -2.488  10.559  17.493  0.00  0.00    +0.000 N 
ATOM     22  C   UNL     1      -1.977   9.737  16.529  0.00  0.00    +0.000 A 
ATOM     23  C   UNL     1      -2.691  10.005  15.384  0.00  0.00    +0.000 A 
ATOM     24  C   UNL     1      -3.609  11.002  15.759  0.00  0.00    +0.000 A 
ATOM     25  N   UNL     1      -3.491  11.342  17.044  0.00  0.00    +0.000 NA
ENDBRANCH   7  21
TORSDOF 3
ENDMDL
