MODEL 1
REMARK VINA RESULT:      -8.0      0.000      0.000
REMARK  Name = 
REMARK  3 active torsions:
REMARK  status: ('A' for Active; 'I' for Inactive)
REMARK    1  A    between atoms: C_2  and  C_3
REMARK    2  A    between atoms: C_4  and  N_5
REMARK    3  A    between atoms: C_18  and  C_19
REMARK                            x       y       z     vdW  Elec       q    Type
REMARK                         _______ _______ _______ _____ _____    ______ ____
ROOT
ATOM      1  C   UNL     1       3.570   3.786  18.351  0.00  0.00    +0.000 C 
ATOM      2  C   UNL     1       2.467   4.153  19.033  0.00  0.00    +0.000 C 
ATOM      3  N   UNL     1       2.389   5.507  19.015  0.00  0.00    +0.000 N 
ATOM      4  C   UNL     1       1.893   6.261  20.048  0.00  0.00    +0.000 A 
ATOM      5  O   UNL     1       1.478   5.811  21.112  0.00  0.00    +0.000 OA
ATOM      6  C   UNL     1       1.821   7.695  19.769  0.00  0.00    +0.000 A 
ATOM      7  C   UNL     1       1.198   8.522  20.714  0.00  0.00    +0.000 A 
ATOM      8  C   UNL     1       0.904   9.831  20.380  0.00  0.00    +0.000 A 
ATOM      9  C   UNL     1       1.211  10.296  19.094  0.00  0.00    +0.000 A 
ATOM     10  C   UNL     1       1.895   9.481  18.179  0.00  0.00    +0.000 A 
ATOM     11  C   UNL     1       2.249   8.175  18.527  0.00  0.00    +0.000 A 
ATOM     12  C   UNL     1       3.171   7.337  17.676  0.00  0.00    +0.000 A 
ATOM     13  O   UNL     1       3.801   7.843  16.757  0.00  0.00    +0.000 OA
ATOM     14  N   UNL     1       3.301   6.028  18.073  0.00  0.00    +0.000 N 
ATOM     15  C   UNL     1       4.354   4.983  17.937  0.00  0.00    +0.000 C 
ENDROOT
BRANCH  15  16
ATOM     16  C   UNL     1       5.246   4.805  16.735  0.00  0.00    +0.000 A 
ATOM     17  C   UNL     1       4.601   4.415  15.532  0.00  0.00    +0.000 A 
ATOM     18  C   UNL     1       5.288   4.305  14.322  0.00  0.00    +0.000 A 
ATOM     19  C   UNL     1       6.643   4.591  14.286  0.00  0.00    +0.000 A 
ATOM     20 CL   UNL     1       7.499   4.441  12.800  0.00  0.00    +0.000 Cl
ATOM     21  C   UNL     1       7.301   5.015  15.438  0.00  0.00    +0.000 A 
ATOM     22  C   UNL     1       6.606   5.127  16.656  0.00  0.00    +0.000 A 
ATOM     23 CL   UNL     1       7.469   5.748  18.013  0.00  0.00    +0.000 Cl
ENDBRANCH  15  16
BRANCH   2  24
ATOM     24  N   UNL     1       1.585   3.365  19.736  0.00  0.00    +0.000 N 
ATOM     25  H   UNL     1       1.391   2.442  19.357  0.00  0.00    +0.000 HD
ATOM     26  H   UNL     1       1.837   3.322  20.728  0.00  0.00    +0.000 HD
ENDBRANCH   2  24
BRANCH   1  28
ATOM     27  N   UNL     1       4.083   1.060  18.538  0.00  0.00    +0.000 NA
ATOM     28  C   UNL     1       3.851   2.296  18.453  0.00  0.00    +0.000 C 
ENDBRANCH   1  28
TORSDOF 3
ENDMDL
MODEL 2
REMARK VINA RESULT:      -7.0      8.020     10.104
REMARK  Name = 
REMARK  3 active torsions:
REMARK  status: ('A' for Active; 'I' for Inactive)
REMARK    1  A    between atoms: C_2  and  C_3
REMARK    2  A    between atoms: C_4  and  N_5
REMARK    3  A    between atoms: C_18  and  C_19
REMARK                            x       y       z     vdW  Elec       q    Type
REMARK                         _______ _______ _______ _____ _____    ______ ____
ROOT
ATOM      1  C   UNL     1      -3.311  11.463  17.526  0.00  0.00    +0.000 C 
ATOM      2  C   UNL     1      -4.637  11.671  17.648  0.00  0.00    +0.000 C 
ATOM      3  N   UNL     1      -4.899  11.982  18.941  0.00  0.00    +0.000 N 
ATOM      4  C   UNL     1      -6.047  11.622  19.601  0.00  0.00    +0.000 A 
ATOM      5  O   UNL     1      -6.963  10.967  19.111  0.00  0.00    +0.000 OA
ATOM      6  C   UNL     1      -6.152  12.145  20.962  0.00  0.00    +0.000 A 
ATOM      7  C   UNL     1      -7.353  11.944  21.657  0.00  0.00    +0.000 A 
ATOM      8  C   UNL     1      -7.572  12.622  22.842  0.00  0.00    +0.000 A 
ATOM      9  C   UNL     1      -6.600  13.516  23.310  0.00  0.00    +0.000 A 
ATOM     10  C   UNL     1      -5.374  13.660  22.642  0.00  0.00    +0.000 A 
ATOM     11  C   UNL     1      -5.119  12.935  21.475  0.00  0.00    +0.000 A 
ATOM     12  C   UNL     1      -3.749  12.880  20.845  0.00  0.00    +0.000 A 
ATOM     13  O   UNL     1      -2.770  13.303  21.446  0.00  0.00    +0.000 OA
ATOM     14  N   UNL     1      -3.694  12.253  19.624  0.00  0.00    +0.000 N 
ATOM     15  C   UNL     1      -2.644  11.528  18.855  0.00  0.00    +0.000 C 
ENDROOT
BRANCH  15  16
ATOM     16  C   UNL     1      -1.179  11.884  18.843  0.00  0.00    +0.000 A 
ATOM     17  C   UNL     1      -0.852  13.156  18.302  0.00  0.00    +0.000 A 
ATOM     18  C   UNL     1       0.452  13.654  18.313  0.00  0.00    +0.000 A 
ATOM     19  C   UNL     1       1.463  12.892  18.875  0.00  0.00    +0.000 A 
ATOM     20 CL   UNL     1       3.075  13.495  18.876  0.00  0.00    +0.000 Cl
ATOM     21  C   UNL     1       1.172  11.657  19.450  0.00  0.00    +0.000 A 
ATOM     22  C   UNL     1      -0.143  11.157  19.440  0.00  0.00    +0.000 A 
ATOM     23 CL   UNL     1      -0.438   9.667  20.255  0.00  0.00    +0.000 Cl
ENDBRANCH  15  16
BRANCH   2  24
ATOM     24  N   UNL     1      -5.626  11.517  16.704  0.00  0.00    +0.000 N 
ATOM     25  H   UNL     1      -5.418  11.844  15.763  0.00  0.00    +0.000 HD
ATOM     26  H   UNL     1      -5.988  10.558  16.700  0.00  0.00    +0.000 HD
ENDBRANCH   2  24
BRANCH   1  28
ATOM     27  N   UNL     1      -2.609  10.505  15.011  0.00  0.00    +0.000 NA
ATOM     28  C   UNL     1      -2.927  10.939  16.151  0.00  0.00    +0.000 C 
ENDBRANCH   1  28
TORSDOF 3
ENDMDL
MODEL 3
REMARK VINA RESULT:      -7.0      1.550      1.887
REMARK  Name = 
REMARK  3 active torsions:
REMARK  status: ('A' for Active; 'I' for Inactive)
REMARK    1  A    between atoms: C_2  and  C_3
REMARK    2  A    between atoms: C_4  and  N_5
REMARK    3  A    between atoms: C_18  and  C_19
REMARK                            x       y       z     vdW  Elec       q    Type
REMARK                         _______ _______ _______ _____ _____    ______ ____
ROOT
ATOM      1  C   UNL     1       3.541   4.884  19.421  0.00  0.00    +0.000 C 
ATOM      2  C   UNL     1       2.465   5.253  20.144  0.00  0.00    +0.000 C 
ATOM      3  N   UNL     1       2.143   6.526  19.803  0.00  0.00    +0.000 N 
ATOM      4  C   UNL     1       1.627   7.448  20.678  0.00  0.00    +0.000 A 
ATOM      5  O   UNL     1       1.410   7.243  21.869  0.00  0.00    +0.000 OA
ATOM      6  C   UNL     1       1.270   8.728  20.066  0.00  0.00    +0.000 A 
ATOM      7  C   UNL     1       0.608   9.677  20.857  0.00  0.00    +0.000 A 
ATOM      8  C   UNL     1       0.051  10.790  20.256  0.00  0.00    +0.000 A 
ATOM      9  C   UNL     1       0.137  10.933  18.865  0.00  0.00    +0.000 A 
ATOM     10  C   UNL     1       0.860  10.012  18.090  0.00  0.00    +0.000 A 
ATOM     11  C   UNL     1       1.476   8.915  18.696  0.00  0.00    +0.000 A 
ATOM     12  C   UNL     1       2.443   8.024  17.954  0.00  0.00    +0.000 A 
ATOM     13  O   UNL     1       2.875   8.352  16.857  0.00  0.00    +0.000 OA
ATOM     14  N   UNL     1       2.846   6.904  18.639  0.00  0.00    +0.000 N 
ATOM     15  C   UNL     1       4.051   6.027  18.615  0.00  0.00    +0.000 C 
ENDROOT
BRANCH  15  16
ATOM     16  C   UNL     1       4.833   5.667  17.378  0.00  0.00    +0.000 A 
ATOM     17  C   UNL     1       6.086   6.317  17.222  0.00  0.00    +0.000 A 
ATOM     18  C   UNL     1       6.956   6.011  16.175  0.00  0.00    +0.000 A 
ATOM     19  C   UNL     1       6.596   5.036  15.258  0.00  0.00    +0.000 A 
ATOM     20 CL   UNL     1       7.659   4.667  13.956  0.00  0.00    +0.000 Cl
ATOM     21  C   UNL     1       5.393   4.350  15.403  0.00  0.00    +0.000 A 
ATOM     22  C   UNL     1       4.517   4.659  16.460  0.00  0.00    +0.000 A 
ATOM     23 CL   UNL     1       3.094   3.700  16.625  0.00  0.00    +0.000 Cl
ENDBRANCH  15  16
BRANCH   2  24
ATOM     24  N   UNL     1       1.815   4.562  21.140  0.00  0.00    +0.000 N 
ATOM     25  H   UNL     1       0.862   4.846  21.350  0.00  0.00    +0.000 HD
ATOM     26  H   UNL     1       1.885   3.549  20.993  0.00  0.00    +0.000 HD
ENDBRANCH   2  24
BRANCH   1  28
ATOM     27  N   UNL     1       4.553   2.414  20.201  0.00  0.00    +0.000 NA
ATOM     28  C   UNL     1       4.094   3.534  19.847  0.00  0.00    +0.000 C 
ENDBRANCH   1  28
TORSDOF 3
ENDMDL
MODEL 4
REMARK VINA RESULT:      -6.3      9.223     12.323
REMARK  Name = 
REMARK  3 active torsions:
REMARK  status: ('A' for Active; 'I' for Inactive)
REMARK    1  A    between atoms: C_2  and  C_3
REMARK    2  A    between atoms: C_4  and  N_5
REMARK    3  A    between atoms: C_18  and  C_19
REMARK                            x       y       z     vdW  Elec       q    Type
REMARK                         _______ _______ _______ _____ _____    ______ ____
ROOT
ATOM      1  C   UNL     1      -5.368  13.447  21.735  0.00  0.00    +0.000 C 
ATOM      2  C   UNL     1      -5.934  12.534  20.921  0.00  0.00    +0.000 C 
ATOM      3  N   UNL     1      -5.044  12.227  19.945  0.00  0.00    +0.000 N 
ATOM      4  C   UNL     1      -5.394  11.922  18.654  0.00  0.00    +0.000 A 
ATOM      5  O   UNL     1      -6.543  11.905  18.222  0.00  0.00    +0.000 OA
ATOM      6  C   UNL     1      -4.272  11.535  17.799  0.00  0.00    +0.000 A 
ATOM      7  C   UNL     1      -4.556  11.072  16.506  0.00  0.00    +0.000 A 
ATOM      8  C   UNL     1      -3.551  10.480  15.763  0.00  0.00    +0.000 A 
ATOM      9  C   UNL     1      -2.278  10.331  16.328  0.00  0.00    +0.000 A 
ATOM     10  C   UNL     1      -1.987  10.857  17.596  0.00  0.00    +0.000 A 
ATOM     11  C   UNL     1      -2.980  11.509  18.332  0.00  0.00    +0.000 A 
ATOM     12  C   UNL     1      -2.672  12.283  19.591  0.00  0.00    +0.000 A 
ATOM     13  O   UNL     1      -1.515  12.535  19.899  0.00  0.00    +0.000 OA
ATOM     14  N   UNL     1      -3.771  12.737  20.279  0.00  0.00    +0.000 N 
ATOM     15  C   UNL     1      -4.041  13.870  21.208  0.00  0.00    +0.000 C 
ENDROOT
BRANCH  15  16
ATOM     16  C   UNL     1      -3.066  14.406  22.225  0.00  0.00    +0.000 A 
ATOM     17  C   UNL     1      -2.941  15.819  22.285  0.00  0.00    +0.000 A 
ATOM     18  C   UNL     1      -2.147  16.454  23.241  0.00  0.00    +0.000 A 
ATOM     19  C   UNL     1      -1.461  15.687  24.169  0.00  0.00    +0.000 A 
ATOM     20 CL   UNL     1      -0.468  16.466  25.339  0.00  0.00    +0.000 Cl
ATOM     21  C   UNL     1      -1.591  14.301  24.165  0.00  0.00    +0.000 A 
ATOM     22  C   UNL     1      -2.393  13.662  23.202  0.00  0.00    +0.000 A 
ATOM     23 CL   UNL     1      -2.578  11.952  23.323  0.00  0.00    +0.000 Cl
ENDBRANCH  15  16
BRANCH   2  24
ATOM     24  N   UNL     1      -7.214  12.030  20.946  0.00  0.00    +0.000 N 
ATOM     25  H   UNL     1      -7.857  12.442  21.618  0.00  0.00    +0.000 HD
ATOM     26  H   UNL     1      -7.618  12.000  20.005  0.00  0.00    +0.000 HD
ENDBRANCH   2  24
BRANCH   1  28
ATOM     27  N   UNL     1      -7.149  14.443  23.624  0.00  0.00    +0.000 NA
ATOM     28  C   UNL     1      -6.341  13.991  22.767  0.00  0.00    +0.000 C 
ENDBRANCH   1  28
TORSDOF 3
ENDMDL
MODEL 5
REMARK VINA RESULT:      -6.2      9.647     11.684
REMARK  Name = 
REMARK  3 active torsions:
REMARK  status: ('A' for Active; 'I' for Inactive)
REMARK    1  A    between atoms: C_2  and  C_3
REMARK    2  A    between atoms: C_4  and  N_5
REMARK    3  A    between atoms: C_18  and  C_19
REMARK                            x       y       z     vdW  Elec       q    Type
REMARK                         _______ _______ _______ _____ _____    ______ ____
ROOT
ATOM      1  C   UNL     1       6.516  14.896  21.267  0.00  0.00    +0.000 C 
ATOM      2  C   UNL     1       6.729  14.986  19.939  0.00  0.00    +0.000 C 
ATOM      3  N   UNL     1       7.879  14.328  19.650  0.00  0.00    +0.000 N 
ATOM      4  C   UNL     1       8.756  14.710  18.666  0.00  0.00    +0.000 A 
ATOM      5  O   UNL     1       8.618  15.693  17.944  0.00  0.00    +0.000 OA
ATOM      6  C   UNL     1       9.882  13.797  18.472  0.00  0.00    +0.000 A 
ATOM      7  C   UNL     1      10.749  14.035  17.396  0.00  0.00    +0.000 A 
ATOM      8  C   UNL     1      11.674  13.070  17.045  0.00  0.00    +0.000 A 
ATOM      9  C   UNL     1      11.708  11.863  17.755  0.00  0.00    +0.000 A 
ATOM     10  C   UNL     1      10.882  11.662  18.872  0.00  0.00    +0.000 A 
ATOM     11  C   UNL     1       9.984  12.654  19.272  0.00  0.00    +0.000 A 
ATOM     12  C   UNL     1       9.239  12.586  20.582  0.00  0.00    +0.000 A 
ATOM     13  O   UNL     1       9.548  11.761  21.431  0.00  0.00    +0.000 OA
ATOM     14  N   UNL     1       8.284  13.557  20.760  0.00  0.00    +0.000 N 
ATOM     15  C   UNL     1       7.661  14.223  21.939  0.00  0.00    +0.000 C 
ENDROOT
BRANCH  15  16
ATOM     16  C   UNL     1       7.354  13.548  23.251  0.00  0.00    +0.000 A 
ATOM     17  C   UNL     1       6.501  12.415  23.185  0.00  0.00    +0.000 A 
ATOM     18  C   UNL     1       6.208  11.639  24.307  0.00  0.00    +0.000 A 
ATOM     19  C   UNL     1       6.771  11.975  25.528  0.00  0.00    +0.000 A 
ATOM     20 CL   UNL     1       6.400  11.030  26.918  0.00  0.00    +0.000 Cl
ATOM     21  C   UNL     1       7.644  13.056  25.623  0.00  0.00    +0.000 A 
ATOM     22  C   UNL     1       7.939  13.836  24.490  0.00  0.00    +0.000 A 
ATOM     23 CL   UNL     1       9.102  15.097  24.669  0.00  0.00    +0.000 Cl
ENDBRANCH  15  16
BRANCH   2  24
ATOM     24  N   UNL     1       6.014  15.687  18.995  0.00  0.00    +0.000 N 
ATOM     25  H   UNL     1       5.410  16.430  19.335  0.00  0.00    +0.000 HD
ATOM     26  H   UNL     1       6.622  16.009  18.235  0.00  0.00    +0.000 HD
ENDBRANCH   2  24
BRANCH   1  28
ATOM     27  N   UNL     1       4.370  16.450  22.111  0.00  0.00    +0.000 NA
ATOM     28  C   UNL     1       5.343  15.745  21.728  0.00  0.00    +0.000 C 
ENDBRANCH   1  28
TORSDOF 3
ENDMDL
MODEL 6
REMARK VINA RESULT:      -6.1      3.047      4.986
REMARK  Name = 
REMARK  3 active torsions:
REMARK  status: ('A' for Active; 'I' for Inactive)
REMARK    1  A    between atoms: C_2  and  C_3
REMARK    2  A    between atoms: C_4  and  N_5
REMARK    3  A    between atoms: C_18  and  C_19
REMARK                            x       y       z     vdW  Elec       q    Type
REMARK                         _______ _______ _______ _____ _____    ______ ____
ROOT
ATOM      1  C   UNL     1       6.147   5.128  15.960  0.00  0.00    +0.000 C 
ATOM      2  C   UNL     1       5.005   4.465  15.690  0.00  0.00    +0.000 C 
ATOM      3  N   UNL     1       4.275   4.397  16.831  0.00  0.00    +0.000 N 
ATOM      4  C   UNL     1       3.474   3.336  17.169  0.00  0.00    +0.000 A 
ATOM      5  O   UNL     1       3.332   2.319  16.495  0.00  0.00    +0.000 OA
ATOM      6  C   UNL     1       2.710   3.523  18.402  0.00  0.00    +0.000 A 
ATOM      7  C   UNL     1       1.762   2.550  18.747  0.00  0.00    +0.000 A 
ATOM      8  C   UNL     1       0.866   2.808  19.767  0.00  0.00    +0.000 A 
ATOM      9  C   UNL     1       0.907   4.049  20.417  0.00  0.00    +0.000 A 
ATOM     10  C   UNL     1       1.902   4.990  20.110  0.00  0.00    +0.000 A 
ATOM     11  C   UNL     1       2.849   4.715  19.121  0.00  0.00    +0.000 A 
ATOM     12  C   UNL     1       4.063   5.584  18.904  0.00  0.00    +0.000 A 
ATOM     13  O   UNL     1       4.366   6.445  19.721  0.00  0.00    +0.000 OA
ATOM     14  N   UNL     1       4.817   5.269  17.799  0.00  0.00    +0.000 N 
ATOM     15  C   UNL     1       6.246   5.434  17.414  0.00  0.00    +0.000 C 
ENDROOT
BRANCH  15  16
ATOM     16  C   UNL     1       7.111   6.611  17.784  0.00  0.00    +0.000 A 
ATOM     17  C   UNL     1       6.842   7.824  17.095  0.00  0.00    +0.000 A 
ATOM     18  C   UNL     1       7.501   9.015  17.403  0.00  0.00    +0.000 A 
ATOM     19  C   UNL     1       8.445   9.024  18.417  0.00  0.00    +0.000 A 
ATOM     20 CL   UNL     1       9.273  10.486  18.789  0.00  0.00    +0.000 Cl
ATOM     21  C   UNL     1       8.707   7.862  19.140  0.00  0.00    +0.000 A 
ATOM     22  C   UNL     1       8.041   6.663  18.829  0.00  0.00    +0.000 A 
ATOM     23 CL   UNL     1       8.350   5.294  19.831  0.00  0.00    +0.000 Cl
ENDBRANCH  15  16
BRANCH   2  24
ATOM     24  N   UNL     1       4.620   3.847  14.522  0.00  0.00    +0.000 N 
ATOM     25  H   UNL     1       3.963   4.351  13.931  0.00  0.00    +0.000 HD
ATOM     26  H   UNL     1       5.435   3.521  13.991  0.00  0.00    +0.000 HD
ENDBRANCH   2  24
BRANCH   1  28
ATOM     27  N   UNL     1       7.927   5.100  13.824  0.00  0.00    +0.000 NA
ATOM     28  C   UNL     1       7.120   5.113  14.792  0.00  0.00    +0.000 C 
ENDBRANCH   1  28
TORSDOF 3
ENDMDL
MODEL 7
REMARK VINA RESULT:      -6.0      7.344      9.253
REMARK  Name = 
REMARK  3 active torsions:
REMARK  status: ('A' for Active; 'I' for Inactive)
REMARK    1  A    between atoms: C_2  and  C_3
REMARK    2  A    between atoms: C_4  and  N_5
REMARK    3  A    between atoms: C_18  and  C_19
REMARK                            x       y       z     vdW  Elec       q    Type
REMARK                         _______ _______ _______ _____ _____    ______ ____
ROOT
ATOM      1  C   UNL     1      -0.438  12.989  21.150  0.00  0.00    +0.000 C 
ATOM      2  C   UNL     1       0.278  14.026  21.629  0.00  0.00    +0.000 C 
ATOM      3  N   UNL     1       1.426  14.113  20.914  0.00  0.00    +0.000 N 
ATOM      4  C   UNL     1       2.629  14.514  21.438  0.00  0.00    +0.000 A 
ATOM      5  O   UNL     1       2.817  14.825  22.611  0.00  0.00    +0.000 OA
ATOM      6  C   UNL     1       3.710  14.621  20.458  0.00  0.00    +0.000 A 
ATOM      7  C   UNL     1       4.934  15.158  20.880  0.00  0.00    +0.000 A 
ATOM      8  C   UNL     1       5.889  15.490  19.938  0.00  0.00    +0.000 A 
ATOM      9  C   UNL     1       5.604  15.308  18.578  0.00  0.00    +0.000 A 
ATOM     10  C   UNL     1       4.402  14.708  18.170  0.00  0.00    +0.000 A 
ATOM     11  C   UNL     1       3.454  14.315  19.118  0.00  0.00    +0.000 A 
ATOM     12  C   UNL     1       2.256  13.471  18.757  0.00  0.00    +0.000 A 
ATOM     13  O   UNL     1       2.182  12.933  17.660  0.00  0.00    +0.000 OA
ATOM     14  N   UNL     1       1.340  13.297  19.766  0.00  0.00    +0.000 N 
ATOM     15  C   UNL     1       0.332  12.255  20.109  0.00  0.00    +0.000 C 
ENDROOT
BRANCH  15  16
ATOM     16  C   UNL     1      -0.484  11.478  19.108  0.00  0.00    +0.000 A 
ATOM     17  C   UNL     1      -1.616  12.149  18.572  0.00  0.00    +0.000 A 
ATOM     18  C   UNL     1      -2.405  11.586  17.568  0.00  0.00    +0.000 A 
ATOM     19  C   UNL     1      -2.076  10.337  17.068  0.00  0.00    +0.000 A 
ATOM     20 CL   UNL     1      -3.057   9.632  15.842  0.00  0.00    +0.000 Cl
ATOM     21  C   UNL     1      -0.951   9.667  17.542  0.00  0.00    +0.000 A 
ATOM     22  C   UNL     1      -0.155  10.236  18.552  0.00  0.00    +0.000 A 
ATOM     23 CL   UNL     1       1.274   9.389  19.016  0.00  0.00    +0.000 Cl
ENDBRANCH  15  16
BRANCH   2  24
ATOM     24  N   UNL     1       0.010  14.834  22.711  0.00  0.00    +0.000 N 
ATOM     25  H   UNL     1      -0.963  15.082  22.869  0.00  0.00    +0.000 HD
ATOM     26  H   UNL     1       0.452  14.470  23.562  0.00  0.00    +0.000 HD
ENDBRANCH   2  24
BRANCH   1  28
ATOM     27  N   UNL     1      -2.689  12.444  22.690  0.00  0.00    +0.000 NA
ATOM     28  C   UNL     1      -1.668  12.692  21.992  0.00  0.00    +0.000 C 
ENDBRANCH   1  28
TORSDOF 3
ENDMDL
MODEL 8
REMARK VINA RESULT:      -6.0      5.387      7.989
REMARK  Name = 
REMARK  3 active torsions:
REMARK  status: ('A' for Active; 'I' for Inactive)
REMARK    1  A    between atoms: C_2  and  C_3
REMARK    2  A    between atoms: C_4  and  N_5
REMARK    3  A    between atoms: C_18  and  C_19
REMARK                            x       y       z     vdW  Elec       q    Type
REMARK                         _______ _______ _______ _____ _____    ______ ____
ROOT
ATOM      1  C   UNL     1      -1.997  10.581  18.270  0.00  0.00    +0.000 C 
ATOM      2  C   UNL     1      -2.736  11.679  18.524  0.00  0.00    +0.000 C 
ATOM      3  N   UNL     1      -2.370  12.163  19.737  0.00  0.00    +0.000 N 
ATOM      4  C   UNL     1      -3.234  12.771  20.614  0.00  0.00    +0.000 A 
ATOM      5  O   UNL     1      -4.434  12.937  20.417  0.00  0.00    +0.000 OA
ATOM      6  C   UNL     1      -2.599  13.295  21.822  0.00  0.00    +0.000 A 
ATOM      7  C   UNL     1      -3.381  14.054  22.704  0.00  0.00    +0.000 A 
ATOM      8  C   UNL     1      -2.765  14.756  23.723  0.00  0.00    +0.000 A 
ATOM      9  C   UNL     1      -1.369  14.717  23.837  0.00  0.00    +0.000 A 
ATOM     10  C   UNL     1      -0.601  13.902  22.991  0.00  0.00    +0.000 A 
ATOM     11  C   UNL     1      -1.219  13.142  21.994  0.00  0.00    +0.000 A 
ATOM     12  C   UNL     1      -0.478  12.088  21.209  0.00  0.00    +0.000 A 
ATOM     13  O   UNL     1       0.637  11.722  21.557  0.00  0.00    +0.000 OA
ATOM     14  N   UNL     1      -1.181  11.536  20.166  0.00  0.00    +0.000 N 
ATOM     15  C   UNL     1      -1.151  10.233  19.444  0.00  0.00    +0.000 C 
ENDROOT
BRANCH  15  16
ATOM     16  C   UNL     1       0.094   9.437  19.149  0.00  0.00    +0.000 A 
ATOM     17  C   UNL     1       0.716   9.693  17.897  0.00  0.00    +0.000 A 
ATOM     18  C   UNL     1       1.924   9.098  17.533  0.00  0.00    +0.000 A 
ATOM     19  C   UNL     1       2.548   8.234  18.419  0.00  0.00    +0.000 A 
ATOM     20 CL   UNL     1       4.030   7.485  17.967  0.00  0.00    +0.000 Cl
ATOM     21  C   UNL     1       1.988   7.990  19.670  0.00  0.00    +0.000 A 
ATOM     22  C   UNL     1       0.770   8.592  20.037  0.00  0.00    +0.000 A 
ATOM     23 CL   UNL     1       0.192   8.315  21.637  0.00  0.00    +0.000 Cl
ENDBRANCH  15  16
BRANCH   2  24
ATOM     24  N   UNL     1      -3.764  12.219  17.786  0.00  0.00    +0.000 N 
ATOM     25  H   UNL     1      -4.591  11.641  17.659  0.00  0.00    +0.000 HD
ATOM     26  H   UNL     1      -4.004  13.158  18.119  0.00  0.00    +0.000 HD
ENDBRANCH   2  24
BRANCH   1  28
ATOM     27  N   UNL     1      -2.815   9.256  15.965  0.00  0.00    +0.000 NA
ATOM     28  C   UNL     1      -2.444   9.857  17.010  0.00  0.00    +0.000 C 
ENDBRANCH   1  28
TORSDOF 3
ENDMDL
MODEL 9
REMARK VINA RESULT:      -5.9      4.131      7.712
REMARK  Name = 
REMARK  3 active torsions:
REMARK  status: ('A' for Active; 'I' for Inactive)
REMARK    1  A    between atoms: C_2  and  C_3
REMARK    2  A    between atoms: C_4  and  N_5
REMARK    3  A    between atoms: C_18  and  C_19
REMARK                            x       y       z     vdW  Elec       q    Type
REMARK                         _______ _______ _______ _____ _____    ______ ____
ROOT
ATOM      1  C   UNL     1       0.503   9.645  21.203  0.00  0.00    +0.000 C 
ATOM      2  C   UNL     1       1.262   8.561  21.458  0.00  0.00    +0.000 C 
ATOM      3  N   UNL     1       1.812   8.145  20.290  0.00  0.00    +0.000 N 
ATOM      4  C   UNL     1       2.052   6.831  19.978  0.00  0.00    +0.000 A 
ATOM      5  O   UNL     1       1.787   5.877  20.705  0.00  0.00    +0.000 OA
ATOM      6  C   UNL     1       2.735   6.627  18.702  0.00  0.00    +0.000 A 
ATOM      7  C   UNL     1       3.144   5.328  18.371  0.00  0.00    +0.000 A 
ATOM      8  C   UNL     1       3.992   5.137  17.296  0.00  0.00    +0.000 A 
ATOM      9  C   UNL     1       4.446   6.249  16.575  0.00  0.00    +0.000 A 
ATOM     10  C   UNL     1       3.977   7.539  16.873  0.00  0.00    +0.000 A 
ATOM     11  C   UNL     1       3.075   7.735  17.920  0.00  0.00    +0.000 A 
ATOM     12  C   UNL     1       2.372   9.053  18.141  0.00  0.00    +0.000 A 
ATOM     13  O   UNL     1       2.415   9.931  17.290  0.00  0.00    +0.000 OA
ATOM     14  N   UNL     1       1.634   9.133  19.297  0.00  0.00    +0.000 N 
ATOM     15  C   UNL     1       0.446   9.915  19.740  0.00  0.00    +0.000 C 
ENDROOT
BRANCH  15  16
ATOM     16  C   UNL     1       0.150  11.338  19.341  0.00  0.00    +0.000 A 
ATOM     17  C   UNL     1       0.998  12.331  19.898  0.00  0.00    +0.000 A 
ATOM     18  C   UNL     1       0.899  13.677  19.544  0.00  0.00    +0.000 A 
ATOM     19  C   UNL     1      -0.052  14.063  18.613  0.00  0.00    +0.000 A 
ATOM     20 CL   UNL     1      -0.190  15.725  18.185  0.00  0.00    +0.000 Cl
ATOM     21  C   UNL     1      -0.875  13.111  18.016  0.00  0.00    +0.000 A 
ATOM     22  C   UNL     1      -0.772  11.755  18.374  0.00  0.00    +0.000 A 
ATOM     23 CL   UNL     1      -1.760  10.627  17.522  0.00  0.00    +0.000 Cl
ENDBRANCH  15  16
BRANCH   2  24
ATOM     24  N   UNL     1       1.423   7.878  22.641  0.00  0.00    +0.000 N 
ATOM     25  H   UNL     1       0.577   7.639  23.152  0.00  0.00    +0.000 HD
ATOM     26  H   UNL     1       2.034   7.064  22.518  0.00  0.00    +0.000 HD
ENDBRANCH   2  24
BRANCH   1  28
ATOM     27  N   UNL     1      -0.964  10.464  23.419  0.00  0.00    +0.000 NA
ATOM     28  C   UNL     1      -0.299  10.093  22.414  0.00  0.00    +0.000 C 
ENDBRANCH   1  28
TORSDOF 3
ENDMDL
