MODEL 1
REMARK VINA RESULT:      -7.7      0.000      0.000
REMARK  Name = 
REMARK  8 active torsions:
REMARK  status: ('A' for Active; 'I' for Inactive)
REMARK    1  A    between atoms: C_1  and  C_2
REMARK    2  A    between atoms: C_2  and  N_3
REMARK    3  A    between atoms: N_3  and  C_4
REMARK    4  A    between atoms: N_3  and  C_6
REMARK    5  A    between atoms: C_4  and  C_5
REMARK    6  A    between atoms: C_6  and  C_7
REMARK    7  A    between atoms: C_13  and  C_15
REMARK    8  A    between atoms: C_15  and  C_16
REMARK                            x       y       z     vdW  Elec       q    Type
REMARK                         _______ _______ _______ _____ _____    ______ ____
ROOT
ATOM      1  C   UNL     1       4.076   4.874  18.574  0.00  0.00    +0.000 C 
ATOM      2  C   UNL     1       3.992   3.590  17.706  0.00  0.00    +0.000 C 
ATOM      3  C   UNL     1       2.638   2.884  17.797  0.00  0.00    +0.000 C 
ATOM      4  C   UNL     1       1.532   3.860  17.445  0.00  0.00    +0.000 C 
ATOM      5  C   UNL     1       1.617   5.091  18.340  0.00  0.00    +0.000 C 
ATOM      6  N   UNL     1       2.923   5.763  18.232  0.00  0.00    +0.000 N 
ATOM      7  C   UNL     1       3.081   7.133  17.946  0.00  0.00    +0.000 C 
ATOM      8  O   UNL     1       4.150   7.686  17.776  0.00  0.00    +0.000 OA
ENDROOT
BRANCH   1   9
ATOM      9  C   UNL     1       5.561   5.418  18.539  0.00  0.00    +0.000 C 
BRANCH   9  10
ATOM     10  N   UNL     1       6.488   4.861  17.526  0.00  0.00    +0.000 NA
BRANCH  10  12
ATOM     11  C   UNL     1       6.782   4.700  15.033  0.00  0.00    +0.000 C 
ATOM     12  C   UNL     1       6.397   5.543  16.242  0.00  0.00    +0.000 C 
ENDBRANCH  10  12
BRANCH  10  13
ATOM     13  C   UNL     1       7.862   4.688  18.019  0.00  0.00    +0.000 C 
ATOM     14  C   UNL     1       8.164   5.528  19.254  0.00  0.00    +0.000 C 
ENDBRANCH  10  13
ENDBRANCH   9  10
ENDBRANCH   1   9
BRANCH   7  15
ATOM     15  C   UNL     1       1.826   8.001  17.829  0.00  0.00    +0.000 C 
BRANCH  15  16
ATOM     16  C   UNL     1       1.425   8.608  19.152  0.00  0.00    +0.000 A 
ATOM     17  C   UNL     1       1.749   7.980  20.363  0.00  0.00    +0.000 A 
ATOM     18  C   UNL     1       1.286   8.510  21.569  0.00  0.00    +0.000 A 
ATOM     19  C   UNL     1       0.473   9.651  21.572  0.00  0.00    +0.000 A 
ATOM     20  C   UNL     1       0.162  10.301  20.370  0.00  0.00    +0.000 A 
ATOM     21  C   UNL     1       0.658   9.781  19.172  0.00  0.00    +0.000 A 
ATOM     22  C   UNL     1      -0.784  11.470  20.316  0.00  0.00    +0.000 C 
ATOM     23  C   UNL     1      -0.884  12.186  21.655  0.00  0.00    +0.000 C 
ATOM     24  C   UNL     1      -1.186  11.194  22.765  0.00  0.00    +0.000 C 
ATOM     25  C   UNL     1      -0.105  10.138  22.852  0.00  0.00    +0.000 C 
ATOM     26  O   UNL     1       0.234   9.644  23.925  0.00  0.00    +0.000 OA
ENDBRANCH  15  16
ENDBRANCH   7  15
TORSDOF 6
ENDMDL
MODEL 2
REMARK VINA RESULT:      -7.6      1.751      3.645
REMARK  Name = 
REMARK  8 active torsions:
REMARK  status: ('A' for Active; 'I' for Inactive)
REMARK    1  A    between atoms: C_1  and  C_2
REMARK    2  A    between atoms: C_2  and  N_3
REMARK    3  A    between atoms: N_3  and  C_4
REMARK    4  A    between atoms: N_3  and  C_6
REMARK    5  A    between atoms: C_4  and  C_5
REMARK    6  A    between atoms: C_6  and  C_7
REMARK    7  A    between atoms: C_13  and  C_15
REMARK    8  A    between atoms: C_15  and  C_16
REMARK                            x       y       z     vdW  Elec       q    Type
REMARK                         _______ _______ _______ _____ _____    ______ ____
ROOT
ATOM      1  C   UNL     1       4.595   4.926  18.449  0.00  0.00    +0.000 C 
ATOM      2  C   UNL     1       6.087   4.982  18.877  0.00  0.00    +0.000 C 
ATOM      3  C   UNL     1       6.997   5.607  17.818  0.00  0.00    +0.000 C 
ATOM      4  C   UNL     1       6.477   6.981  17.447  0.00  0.00    +0.000 C 
ATOM      5  C   UNL     1       5.025   6.887  16.994  0.00  0.00    +0.000 C 
ATOM      6  N   UNL     1       4.161   6.294  18.029  0.00  0.00    +0.000 N 
ATOM      7  C   UNL     1       2.979   6.893  18.505  0.00  0.00    +0.000 C 
ATOM      8  O   UNL     1       2.299   6.457  19.413  0.00  0.00    +0.000 OA
ENDROOT
BRANCH   1   9
ATOM      9  C   UNL     1       3.783   4.112  19.536  0.00  0.00    +0.000 C 
BRANCH   9  10
ATOM     10  N   UNL     1       2.595   3.345  19.094  0.00  0.00    +0.000 NA
BRANCH  10  12
ATOM     11  C   UNL     1       3.755   1.257  18.304  0.00  0.00    +0.000 C 
ATOM     12  C   UNL     1       2.880   2.459  17.973  0.00  0.00    +0.000 C 
ENDBRANCH  10  12
BRANCH  10  13
ATOM     13  C   UNL     1       1.866   2.702  20.197  0.00  0.00    +0.000 C 
ATOM     14  C   UNL     1       1.976   3.467  21.511  0.00  0.00    +0.000 C 
ENDBRANCH  10  13
ENDBRANCH   9  10
ENDBRANCH   1   9
BRANCH   7  15
ATOM     15  C   UNL     1       2.509   8.194  17.850  0.00  0.00    +0.000 C 
BRANCH  15  16
ATOM     16  C   UNL     1       1.498   8.928  18.697  0.00  0.00    +0.000 A 
ATOM     17  C   UNL     1       0.635   9.877  18.132  0.00  0.00    +0.000 A 
ATOM     18  C   UNL     1      -0.226  10.612  18.950  0.00  0.00    +0.000 A 
ATOM     19  C   UNL     1      -0.209  10.425  20.338  0.00  0.00    +0.000 A 
ATOM     20  C   UNL     1       0.632   9.464  20.912  0.00  0.00    +0.000 A 
ATOM     21  C   UNL     1       1.466   8.711  20.081  0.00  0.00    +0.000 A 
ATOM     22  C   UNL     1       0.753   9.297  22.403  0.00  0.00    +0.000 C 
ATOM     23  C   UNL     1      -0.473   9.821  23.138  0.00  0.00    +0.000 C 
ATOM     24  C   UNL     1      -0.788  11.240  22.696  0.00  0.00    +0.000 C 
ATOM     25  C   UNL     1      -1.048  11.293  21.205  0.00  0.00    +0.000 C 
ATOM     26  O   UNL     1      -1.864  12.072  20.717  0.00  0.00    +0.000 OA
ENDBRANCH  15  16
ENDBRANCH   7  15
TORSDOF 6
ENDMDL
MODEL 3
REMARK VINA RESULT:      -7.5      2.180      4.000
REMARK  Name = 
REMARK  8 active torsions:
REMARK  status: ('A' for Active; 'I' for Inactive)
REMARK    1  A    between atoms: C_1  and  C_2
REMARK    2  A    between atoms: C_2  and  N_3
REMARK    3  A    between atoms: N_3  and  C_4
REMARK    4  A    between atoms: N_3  and  C_6
REMARK    5  A    between atoms: C_4  and  C_5
REMARK    6  A    between atoms: C_6  and  C_7
REMARK    7  A    between atoms: C_13  and  C_15
REMARK    8  A    between atoms: C_15  and  C_16
REMARK                            x       y       z     vdW  Elec       q    Type
REMARK                         _______ _______ _______ _____ _____    ______ ____
ROOT
ATOM      1  C   UNL     1       3.619   5.376  18.707  0.00  0.00    +0.000 C 
ATOM      2  C   UNL     1       5.121   5.136  19.019  0.00  0.00    +0.000 C 
ATOM      3  C   UNL     1       6.042   5.449  17.839  0.00  0.00    +0.000 C 
ATOM      4  C   UNL     1       5.798   6.868  17.366  0.00  0.00    +0.000 C 
ATOM      5  C   UNL     1       4.324   7.061  17.030  0.00  0.00    +0.000 C 
ATOM      6  N   UNL     1       3.452   6.766  18.180  0.00  0.00    +0.000 N 
ATOM      7  C   UNL     1       2.476   7.652  18.675  0.00  0.00    +0.000 C 
ATOM      8  O   UNL     1       1.805   7.457  19.670  0.00  0.00    +0.000 OA
ENDROOT
BRANCH   1   9
ATOM      9  C   UNL     1       2.755   4.860  19.928  0.00  0.00    +0.000 C 
BRANCH   9  10
ATOM     10  N   UNL     1       1.504   4.121  19.638  0.00  0.00    +0.000 NA
BRANCH  10  12
ATOM     11  C   UNL     1       2.138   2.298  18.023  0.00  0.00    +0.000 C 
ATOM     12  C   UNL     1       1.442   3.632  18.267  0.00  0.00    +0.000 C 
ENDBRANCH  10  12
BRANCH  10  13
ATOM     13  C   UNL     1       1.170   3.110  20.652  0.00  0.00    +0.000 C 
ATOM     14  C   UNL     1       2.267   2.924  21.694  0.00  0.00    +0.000 C 
ENDBRANCH  10  13
ENDBRANCH   9  10
ENDBRANCH   1   9
BRANCH   7  15
ATOM     15  C   UNL     1       2.237   8.964  17.924  0.00  0.00    +0.000 C 
BRANCH  15  16
ATOM     16  C   UNL     1       0.975   9.658  18.373  0.00  0.00    +0.000 A 
ATOM     17  C   UNL     1      -0.210   9.553  17.632  0.00  0.00    +0.000 A 
ATOM     18  C   UNL     1      -1.340  10.280  18.014  0.00  0.00    +0.000 A 
ATOM     19  C   UNL     1      -1.284  11.139  19.119  0.00  0.00    +0.000 A 
ATOM     20  C   UNL     1      -0.112  11.235  19.882  0.00  0.00    +0.000 A 
ATOM     21  C   UNL     1       1.001  10.478  19.510  0.00  0.00    +0.000 A 
ATOM     22  C   UNL     1       0.023  12.214  21.017  0.00  0.00    +0.000 C 
ATOM     23  C   UNL     1      -1.329  12.623  21.583  0.00  0.00    +0.000 C 
ATOM     24  C   UNL     1      -2.250  13.089  20.468  0.00  0.00    +0.000 C 
ATOM     25  C   UNL     1      -2.457  11.991  19.447  0.00  0.00    +0.000 C 
ATOM     26  O   UNL     1      -3.524  11.850  18.854  0.00  0.00    +0.000 OA
ENDBRANCH  15  16
ENDBRANCH   7  15
TORSDOF 6
ENDMDL
MODEL 4
REMARK VINA RESULT:      -7.4      3.263      8.295
REMARK  Name = 
REMARK  8 active torsions:
REMARK  status: ('A' for Active; 'I' for Inactive)
REMARK    1  A    between atoms: C_1  and  C_2
REMARK    2  A    between atoms: C_2  and  N_3
REMARK    3  A    between atoms: N_3  and  C_4
REMARK    4  A    between atoms: N_3  and  C_6
REMARK    5  A    between atoms: C_4  and  C_5
REMARK    6  A    between atoms: C_6  and  C_7
REMARK    7  A    between atoms: C_13  and  C_15
REMARK    8  A    between atoms: C_15  and  C_16
REMARK                            x       y       z     vdW  Elec       q    Type
REMARK                         _______ _______ _______ _____ _____    ______ ____
ROOT
ATOM      1  C   UNL     1      -1.009  10.197  18.959  0.00  0.00    +0.000 C 
ATOM      2  C   UNL     1      -1.269  11.640  19.468  0.00  0.00    +0.000 C 
ATOM      3  C   UNL     1      -0.998  11.813  20.964  0.00  0.00    +0.000 C 
ATOM      4  C   UNL     1       0.415  11.362  21.279  0.00  0.00    +0.000 C 
ATOM      5  C   UNL     1       0.627   9.930  20.803  0.00  0.00    +0.000 C 
ATOM      6  N   UNL     1       0.371   9.785  19.360  0.00  0.00    +0.000 N 
ATOM      7  C   UNL     1       1.285   9.213  18.453  0.00  0.00    +0.000 C 
ATOM      8  O   UNL     1       1.123   9.157  17.250  0.00  0.00    +0.000 OA
ENDROOT
BRANCH   1   9
ATOM      9  C   UNL     1      -1.484  10.094  17.453  0.00  0.00    +0.000 C 
BRANCH   9  10
ATOM     10  N   UNL     1      -2.733  10.790  17.063  0.00  0.00    +0.000 NA
BRANCH  10  12
ATOM     11  C   UNL     1      -3.461  10.012  14.784  0.00  0.00    +0.000 C 
ATOM     12  C   UNL     1      -2.794  11.084  15.637  0.00  0.00    +0.000 C 
ENDBRANCH  10  12
BRANCH  10  13
ATOM     13  C   UNL     1      -3.948  10.160  17.599  0.00  0.00    +0.000 C 
ATOM     14  C   UNL     1      -5.008  11.171  18.020  0.00  0.00    +0.000 C 
ENDBRANCH  10  13
ENDBRANCH   9  10
ENDBRANCH   1   9
BRANCH   7  15
ATOM     15  C   UNL     1       2.584   8.622  19.006  0.00  0.00    +0.000 C 
BRANCH  15  16
ATOM     16  C   UNL     1       2.627   7.119  18.882  0.00  0.00    +0.000 A 
ATOM     17  C   UNL     1       3.246   6.501  17.786  0.00  0.00    +0.000 A 
ATOM     18  C   UNL     1       3.190   5.113  17.645  0.00  0.00    +0.000 A 
ATOM     19  C   UNL     1       2.492   4.336  18.578  0.00  0.00    +0.000 A 
ATOM     20  C   UNL     1       1.888   4.940  19.690  0.00  0.00    +0.000 A 
ATOM     21  C   UNL     1       1.978   6.326  19.839  0.00  0.00    +0.000 A 
ATOM     22  C   UNL     1       1.048   4.159  20.664  0.00  0.00    +0.000 C 
ATOM     23  C   UNL     1       1.390   2.676  20.653  0.00  0.00    +0.000 C 
ATOM     24  C   UNL     1       1.358   2.136  19.233  0.00  0.00    +0.000 C 
ATOM     25  C   UNL     1       2.344   2.874  18.354  0.00  0.00    +0.000 C 
ATOM     26  O   UNL     1       2.948   2.313  17.443  0.00  0.00    +0.000 OA
ENDBRANCH  15  16
ENDBRANCH   7  15
TORSDOF 6
ENDMDL
MODEL 5
REMARK VINA RESULT:      -7.4      3.159      8.387
REMARK  Name = 
REMARK  8 active torsions:
REMARK  status: ('A' for Active; 'I' for Inactive)
REMARK    1  A    between atoms: C_1  and  C_2
REMARK    2  A    between atoms: C_2  and  N_3
REMARK    3  A    between atoms: N_3  and  C_4
REMARK    4  A    between atoms: N_3  and  C_6
REMARK    5  A    between atoms: C_4  and  C_5
REMARK    6  A    between atoms: C_6  and  C_7
REMARK    7  A    between atoms: C_13  and  C_15
REMARK    8  A    between atoms: C_15  and  C_16
REMARK                            x       y       z     vdW  Elec       q    Type
REMARK                         _______ _______ _______ _____ _____    ______ ____
ROOT
ATOM      1  C   UNL     1      -1.212  10.614  19.247  0.00  0.00    +0.000 C 
ATOM      2  C   UNL     1      -1.426  12.071  19.739  0.00  0.00    +0.000 C 
ATOM      3  C   UNL     1      -1.642  12.174  21.250  0.00  0.00    +0.000 C 
ATOM      4  C   UNL     1      -0.488  11.511  21.975  0.00  0.00    +0.000 C 
ATOM      5  C   UNL     1      -0.329  10.072  21.499  0.00  0.00    +0.000 C 
ATOM      6  N   UNL     1      -0.111   9.992  20.045  0.00  0.00    +0.000 N 
ATOM      7  C   UNL     1       0.964   9.305  19.447  0.00  0.00    +0.000 C 
ATOM      8  O   UNL     1       1.202   9.296  18.255  0.00  0.00    +0.000 OA
ENDROOT
BRANCH   1   9
ATOM      9  C   UNL     1      -1.173  10.611  17.665  0.00  0.00    +0.000 C 
BRANCH   9  10
ATOM     10  N   UNL     1      -2.349  10.082  16.936  0.00  0.00    +0.000 NA
BRANCH  10  12
ATOM     11  C   UNL     1      -4.600  10.774  17.820  0.00  0.00    +0.000 C 
ATOM     12  C   UNL     1      -3.463   9.761  17.819  0.00  0.00    +0.000 C 
ENDBRANCH  10  12
BRANCH  10  13
ATOM     13  C   UNL     1      -2.724  10.885  15.763  0.00  0.00    +0.000 C 
ATOM     14  C   UNL     1      -2.984  10.042  14.520  0.00  0.00    +0.000 C 
ENDBRANCH  10  13
ENDBRANCH   9  10
ENDBRANCH   1   9
BRANCH   7  15
ATOM     15  C   UNL     1       1.914   8.516  20.350  0.00  0.00    +0.000 C 
BRANCH  15  16
ATOM     16  C   UNL     1       1.978   7.056  19.975  0.00  0.00    +0.000 A 
ATOM     17  C   UNL     1       1.354   6.079  20.764  0.00  0.00    +0.000 A 
ATOM     18  C   UNL     1       1.506   4.727  20.450  0.00  0.00    +0.000 A 
ATOM     19  C   UNL     1       2.306   4.340  19.368  0.00  0.00    +0.000 A 
ATOM     20  C   UNL     1       2.917   5.307  18.558  0.00  0.00    +0.000 A 
ATOM     21  C   UNL     1       2.731   6.658  18.861  0.00  0.00    +0.000 A 
ATOM     22  C   UNL     1       3.861   4.937  17.446  0.00  0.00    +0.000 C 
ATOM     23  C   UNL     1       3.630   3.516  16.950  0.00  0.00    +0.000 C 
ATOM     24  C   UNL     1       3.633   2.542  18.116  0.00  0.00    +0.000 C 
ATOM     25  C   UNL     1       2.551   2.896  19.115  0.00  0.00    +0.000 C 
ATOM     26  O   UNL     1       1.948   2.033  19.749  0.00  0.00    +0.000 OA
ENDBRANCH  15  16
ENDBRANCH   7  15
TORSDOF 6
ENDMDL
MODEL 6
REMARK VINA RESULT:      -7.4      1.739      3.871
REMARK  Name = 
REMARK  8 active torsions:
REMARK  status: ('A' for Active; 'I' for Inactive)
REMARK    1  A    between atoms: C_1  and  C_2
REMARK    2  A    between atoms: C_2  and  N_3
REMARK    3  A    between atoms: N_3  and  C_4
REMARK    4  A    between atoms: N_3  and  C_6
REMARK    5  A    between atoms: C_4  and  C_5
REMARK    6  A    between atoms: C_6  and  C_7
REMARK    7  A    between atoms: C_13  and  C_15
REMARK    8  A    between atoms: C_15  and  C_16
REMARK                            x       y       z     vdW  Elec       q    Type
REMARK                         _______ _______ _______ _____ _____    ______ ____
ROOT
ATOM      1  C   UNL     1       4.773   4.613  18.263  0.00  0.00    +0.000 C 
ATOM      2  C   UNL     1       6.323   4.547  18.225  0.00  0.00    +0.000 C 
ATOM      3  C   UNL     1       6.911   4.885  16.853  0.00  0.00    +0.000 C 
ATOM      4  C   UNL     1       6.405   6.242  16.405  0.00  0.00    +0.000 C 
ATOM      5  C   UNL     1       4.881   6.263  16.415  0.00  0.00    +0.000 C 
ATOM      6  N   UNL     1       4.334   5.946  17.745  0.00  0.00    +0.000 N 
ATOM      7  C   UNL     1       3.401   6.754  18.425  0.00  0.00    +0.000 C 
ATOM      8  O   UNL     1       3.001   6.547  19.554  0.00  0.00    +0.000 OA
ENDROOT
BRANCH   1   9
ATOM      9  C   UNL     1       4.273   4.081  19.667  0.00  0.00    +0.000 C 
BRANCH   9  10
ATOM     10  N   UNL     1       3.091   3.189  19.697  0.00  0.00    +0.000 NA
BRANCH  10  12
ATOM     11  C   UNL     1       1.659   2.520  21.655  0.00  0.00    +0.000 C 
ATOM     12  C   UNL     1       2.096   3.604  20.677  0.00  0.00    +0.000 C 
ENDBRANCH  10  12
BRANCH  10  13
ATOM     13  C   UNL     1       2.539   2.898  18.366  0.00  0.00    +0.000 C 
ATOM     14  C   UNL     1       1.209   3.596  18.105  0.00  0.00    +0.000 C 
ENDBRANCH  10  13
ENDBRANCH   9  10
ENDBRANCH   1   9
BRANCH   7  15
ATOM     15  C   UNL     1       2.851   7.989  17.709  0.00  0.00    +0.000 C 
BRANCH  15  16
ATOM     16  C   UNL     1       1.801   8.702  18.524  0.00  0.00    +0.000 A 
ATOM     17  C   UNL     1       0.953   9.653  17.938  0.00  0.00    +0.000 A 
ATOM     18  C   UNL     1       0.053  10.368  18.731  0.00  0.00    +0.000 A 
ATOM     19  C   UNL     1       0.017  10.163  20.116  0.00  0.00    +0.000 A 
ATOM     20  C   UNL     1       0.843   9.200  20.711  0.00  0.00    +0.000 A 
ATOM     21  C   UNL     1       1.715   8.465  19.903  0.00  0.00    +0.000 A 
ATOM     22  C   UNL     1       0.906   9.013  22.203  0.00  0.00    +0.000 C 
ATOM     23  C   UNL     1      -0.353   9.516  22.895  0.00  0.00    +0.000 C 
ATOM     24  C   UNL     1      -0.663  10.939  22.460  0.00  0.00    +0.000 C 
ATOM     25  C   UNL     1      -0.864  11.011  20.962  0.00  0.00    +0.000 C 
ATOM     26  O   UNL     1      -1.666  11.790  20.452  0.00  0.00    +0.000 OA
ENDBRANCH  15  16
ENDBRANCH   7  15
TORSDOF 6
ENDMDL
MODEL 7
REMARK VINA RESULT:      -7.3      2.304      4.014
REMARK  Name = 
REMARK  8 active torsions:
REMARK  status: ('A' for Active; 'I' for Inactive)
REMARK    1  A    between atoms: C_1  and  C_2
REMARK    2  A    between atoms: C_2  and  N_3
REMARK    3  A    between atoms: N_3  and  C_4
REMARK    4  A    between atoms: N_3  and  C_6
REMARK    5  A    between atoms: C_4  and  C_5
REMARK    6  A    between atoms: C_6  and  C_7
REMARK    7  A    between atoms: C_13  and  C_15
REMARK    8  A    between atoms: C_15  and  C_16
REMARK                            x       y       z     vdW  Elec       q    Type
REMARK                         _______ _______ _______ _____ _____    ______ ____
ROOT
ATOM      1  C   UNL     1       3.692   5.344  18.868  0.00  0.00    +0.000 C 
ATOM      2  C   UNL     1       5.168   5.115  19.291  0.00  0.00    +0.000 C 
ATOM      3  C   UNL     1       6.160   5.272  18.137  0.00  0.00    +0.000 C 
ATOM      4  C   UNL     1       5.976   6.630  17.490  0.00  0.00    +0.000 C 
ATOM      5  C   UNL     1       4.528   6.809  17.050  0.00  0.00    +0.000 C 
ATOM      6  N   UNL     1       3.588   6.665  18.174  0.00  0.00    +0.000 N 
ATOM      7  C   UNL     1       2.608   7.621  18.507  0.00  0.00    +0.000 C 
ATOM      8  O   UNL     1       1.878   7.555  19.477  0.00  0.00    +0.000 OA
ENDROOT
BRANCH   1   9
ATOM      9  C   UNL     1       2.750   4.990  20.088  0.00  0.00    +0.000 C 
BRANCH   9  10
ATOM     10  N   UNL     1       1.490   4.259  19.812  0.00  0.00    +0.000 NA
BRANCH  10  12
ATOM     11  C   UNL     1       1.914   2.414  18.156  0.00  0.00    +0.000 C 
ATOM     12  C   UNL     1       1.386   3.817  18.428  0.00  0.00    +0.000 C 
ENDBRANCH  10  12
BRANCH  10  13
ATOM     13  C   UNL     1       1.188   3.215  20.802  0.00  0.00    +0.000 C 
ATOM     14  C   UNL     1       2.326   2.978  21.787  0.00  0.00    +0.000 C 
ENDBRANCH  10  13
ENDBRANCH   9  10
ENDBRANCH   1   9
BRANCH   7  15
ATOM     15  C   UNL     1       2.442   8.840  17.596  0.00  0.00    +0.000 C 
BRANCH  15  16
ATOM     16  C   UNL     1       1.401   9.802  18.113  0.00  0.00    +0.000 A 
ATOM     17  C   UNL     1       1.724  10.766  19.078  0.00  0.00    +0.000 A 
ATOM     18  C   UNL     1       0.724  11.583  19.610  0.00  0.00    +0.000 A 
ATOM     19  C   UNL     1      -0.607  11.422  19.205  0.00  0.00    +0.000 A 
ATOM     20  C   UNL     1      -0.939  10.477  18.225  0.00  0.00    +0.000 A 
ATOM     21  C   UNL     1       0.075   9.688  17.675  0.00  0.00    +0.000 A 
ATOM     22  C   UNL     1      -2.365  10.204  17.830  0.00  0.00    +0.000 C 
ATOM     23  C   UNL     1      -3.280  11.380  18.143  0.00  0.00    +0.000 C 
ATOM     24  C   UNL     1      -3.108  11.814  19.589  0.00  0.00    +0.000 C 
ATOM     25  C   UNL     1      -1.676  12.219  19.862  0.00  0.00    +0.000 C 
ATOM     26  O   UNL     1      -1.396  13.120  20.650  0.00  0.00    +0.000 OA
ENDBRANCH  15  16
ENDBRANCH   7  15
TORSDOF 6
ENDMDL
MODEL 8
REMARK VINA RESULT:      -7.3      2.777      4.574
REMARK  Name = 
REMARK  8 active torsions:
REMARK  status: ('A' for Active; 'I' for Inactive)
REMARK    1  A    between atoms: C_1  and  C_2
REMARK    2  A    between atoms: C_2  and  N_3
REMARK    3  A    between atoms: N_3  and  C_4
REMARK    4  A    between atoms: N_3  and  C_6
REMARK    5  A    between atoms: C_4  and  C_5
REMARK    6  A    between atoms: C_6  and  C_7
REMARK    7  A    between atoms: C_13  and  C_15
REMARK    8  A    between atoms: C_15  and  C_16
REMARK                            x       y       z     vdW  Elec       q    Type
REMARK                         _______ _______ _______ _____ _____    ______ ____
ROOT
ATOM      1  C   UNL     1       2.481   5.676  18.915  0.00  0.00    +0.000 C 
ATOM      2  C   UNL     1       3.888   5.020  18.922  0.00  0.00    +0.000 C 
ATOM      3  C   UNL     1       4.715   5.347  17.678  0.00  0.00    +0.000 C 
ATOM      4  C   UNL     1       4.809   6.850  17.511  0.00  0.00    +0.000 C 
ATOM      5  C   UNL     1       3.413   7.461  17.468  0.00  0.00    +0.000 C 
ATOM      6  N   UNL     1       2.635   7.145  18.677  0.00  0.00    +0.000 N 
ATOM      7  C   UNL     1       1.998   8.113  19.478  0.00  0.00    +0.000 C 
ATOM      8  O   UNL     1       1.420   7.877  20.521  0.00  0.00    +0.000 OA
ENDROOT
BRANCH   1   9
ATOM      9  C   UNL     1       1.658   5.134  20.153  0.00  0.00    +0.000 C 
BRANCH   9  10
ATOM     10  N   UNL     1       0.902   3.870  19.992  0.00  0.00    +0.000 NA
BRANCH  10  12
ATOM     11  C   UNL     1       1.718   2.047  18.462  0.00  0.00    +0.000 C 
ATOM     12  C   UNL     1       0.950   3.352  18.631  0.00  0.00    +0.000 C 
ENDBRANCH  10  12
BRANCH  10  13
ATOM     13  C   UNL     1       1.203   2.870  21.027  0.00  0.00    +0.000 C 
ATOM     14  C   UNL     1       2.305   3.312  21.983  0.00  0.00    +0.000 C 
ENDBRANCH  10  13
ENDBRANCH   9  10
ENDBRANCH   1   9
BRANCH   7  15
ATOM     15  C   UNL     1       2.037   9.573  19.022  0.00  0.00    +0.000 C 
BRANCH  15  16
ATOM     16  C   UNL     1       0.656  10.168  18.893  0.00  0.00    +0.000 A 
ATOM     17  C   UNL     1       0.143  11.024  19.877  0.00  0.00    +0.000 A 
ATOM     18  C   UNL     1      -1.172  11.487  19.783  0.00  0.00    +0.000 A 
ATOM     19  C   UNL     1      -1.990  11.074  18.724  0.00  0.00    +0.000 A 
ATOM     20  C   UNL     1      -1.482  10.237  17.722  0.00  0.00    +0.000 A 
ATOM     21  C   UNL     1      -0.155   9.807  17.808  0.00  0.00    +0.000 A 
ATOM     22  C   UNL     1      -2.351   9.692  16.621  0.00  0.00    +0.000 C 
ATOM     23  C   UNL     1      -3.584  10.552  16.387  0.00  0.00    +0.000 C 
ATOM     24  C   UNL     1      -4.318  10.791  17.696  0.00  0.00    +0.000 C 
ATOM     25  C   UNL     1      -3.419  11.482  18.698  0.00  0.00    +0.000 C 
ATOM     26  O   UNL     1      -3.858  12.294  19.511  0.00  0.00    +0.000 OA
ENDBRANCH  15  16
ENDBRANCH   7  15
TORSDOF 6
ENDMDL
MODEL 9
REMARK VINA RESULT:      -7.2      1.596      3.434
REMARK  Name = 
REMARK  8 active torsions:
REMARK  status: ('A' for Active; 'I' for Inactive)
REMARK    1  A    between atoms: C_1  and  C_2
REMARK    2  A    between atoms: C_2  and  N_3
REMARK    3  A    between atoms: N_3  and  C_4
REMARK    4  A    between atoms: N_3  and  C_6
REMARK    5  A    between atoms: C_4  and  C_5
REMARK    6  A    between atoms: C_6  and  C_7
REMARK    7  A    between atoms: C_13  and  C_15
REMARK    8  A    between atoms: C_15  and  C_16
REMARK                            x       y       z     vdW  Elec       q    Type
REMARK                         _______ _______ _______ _____ _____    ______ ____
ROOT
ATOM      1  C   UNL     1       4.824   4.692  18.534  0.00  0.00    +0.000 C 
ATOM      2  C   UNL     1       6.347   4.961  18.665  0.00  0.00    +0.000 C 
ATOM      3  C   UNL     1       6.954   5.622  17.426  0.00  0.00    +0.000 C 
ATOM      4  C   UNL     1       6.195   6.893  17.104  0.00  0.00    +0.000 C 
ATOM      5  C   UNL     1       4.710   6.590  16.943  0.00  0.00    +0.000 C 
ATOM      6  N   UNL     1       4.140   5.965  18.149  0.00  0.00    +0.000 N 
ATOM      7  C   UNL     1       2.997   6.444  18.818  0.00  0.00    +0.000 C 
ATOM      8  O   UNL     1       2.561   5.987  19.856  0.00  0.00    +0.000 OA
ENDROOT
BRANCH   1   9
ATOM      9  C   UNL     1       4.343   3.858  19.790  0.00  0.00    +0.000 C 
BRANCH   9  10
ATOM     10  N   UNL     1       3.518   2.650  19.555  0.00  0.00    +0.000 NA
BRANCH  10  12
ATOM     11  C   UNL     1       2.065   2.631  21.608  0.00  0.00    +0.000 C 
ATOM     12  C   UNL     1       2.171   2.772  20.095  0.00  0.00    +0.000 C 
ENDBRANCH  10  12
BRANCH  10  13
ATOM     13  C   UNL     1       3.568   2.165  18.168  0.00  0.00    +0.000 C 
ATOM     14  C   UNL     1       2.333   2.543  17.358  0.00  0.00    +0.000 C 
ENDBRANCH  10  13
ENDBRANCH   9  10
ENDBRANCH   1   9
BRANCH   7  15
ATOM     15  C   UNL     1       2.243   7.629  18.211  0.00  0.00    +0.000 C 
BRANCH  15  16
ATOM     16  C   UNL     1       1.637   8.522  19.266  0.00  0.00    +0.000 A 
ATOM     17  C   UNL     1       1.656   8.156  20.620  0.00  0.00    +0.000 A 
ATOM     18  C   UNL     1       1.007   8.952  21.566  0.00  0.00    +0.000 A 
ATOM     19  C   UNL     1       0.310  10.099  21.165  0.00  0.00    +0.000 A 
ATOM     20  C   UNL     1       0.303  10.487  19.818  0.00  0.00    +0.000 A 
ATOM     21  C   UNL     1       0.984   9.702  18.884  0.00  0.00    +0.000 A 
ATOM     22  C   UNL     1      -0.510  11.655  19.328  0.00  0.00    +0.000 C 
ATOM     23  C   UNL     1      -0.815  12.646  20.442  0.00  0.00    +0.000 C 
ATOM     24  C   UNL     1      -1.418  11.928  21.638  0.00  0.00    +0.000 C 
ATOM     25  C   UNL     1      -0.470  10.872  22.166  0.00  0.00    +0.000 C 
ATOM     26  O   UNL     1      -0.397  10.607  23.364  0.00  0.00    +0.000 OA
ENDBRANCH  15  16
ENDBRANCH   7  15
TORSDOF 6
ENDMDL
