MODEL 1
REMARK VINA RESULT:      -6.5      0.000      0.000
REMARK  Name = 
REMARK  5 active torsions:
REMARK  status: ('A' for Active; 'I' for Inactive)
REMARK    1  A    between atoms: C_1  and  C_2
REMARK    2  A    between atoms: C_12  and  O_13
REMARK    3  A    between atoms: O_13  and  S_14
REMARK    4  A    between atoms: S_14  and  N_15
REMARK    5  A    between atoms: C_20  and  C_21
REMARK                            x       y       z     vdW  Elec       q    Type
REMARK                         _______ _______ _______ _____ _____    ______ ____
ROOT
ATOM      1  C   UNL     1      -0.816  10.602  18.037  0.00  0.00    +0.000 C 
ATOM      2  C   UNL     1       0.022  11.577  18.897  0.00  0.00    +0.000 C 
ATOM      3  C   UNL     1       1.426  11.849  18.391  0.00  0.00    +0.000 C 
ATOM      4  C   UNL     1       2.143  10.528  18.100  0.00  0.00    +0.000 C 
ATOM      5  C   UNL     1       2.041   9.500  19.259  0.00  0.00    +0.000 C 
ATOM      6  C   UNL     1       0.823   9.695  20.276  0.00  0.00    +0.000 C 
ATOM      7  C   UNL     1       1.353   9.091  21.558  0.00  0.00    +0.000 C 
ATOM      8  O   UNL     1       1.436   9.660  22.622  0.00  0.00    +0.000 OA
ATOM      9  C   UNL     1       1.710   7.654  21.382  0.00  0.00    +0.000 C 
ATOM     10  C   UNL     1       1.890   7.113  20.142  0.00  0.00    +0.000 C 
ATOM     11  C   UNL     1       2.049   5.608  20.048  0.00  0.00    +0.000 C 
ATOM     12  C   UNL     1       3.178   5.088  19.138  0.00  0.00    +0.000 C 
ATOM     13  C   UNL     1       3.356   5.978  17.913  0.00  0.00    +0.000 C 
ATOM     14  C   UNL     1       3.463   7.471  18.312  0.00  0.00    +0.000 C 
ATOM     15  C   UNL     1       2.081   7.960  18.833  0.00  0.00    +0.000 C 
ATOM     16  C   UNL     1       1.150   7.676  17.598  0.00  0.00    +0.000 C 
ATOM     17  C   UNL     1       0.155  11.078  20.342  0.00  0.00    +0.000 C 
ATOM     18  C   UNL     1      -1.302  11.193  20.882  0.00  0.00    +0.000 C 
ATOM     19  C   UNL     1      -1.984  12.334  20.078  0.00  0.00    +0.000 C 
ATOM     20  C   UNL     1      -0.905  12.746  19.125  0.00  0.00    +0.000 C 
ATOM     21  O   UNL     1      -0.840  13.821  18.537  0.00  0.00    +0.000 OA
ENDROOT
BRANCH  12  22
ATOM     22  O   UNL     1       2.801   3.757  18.770  0.00  0.00    +0.000 OA
BRANCH  22  23
ATOM     23  S   UNL     1       3.617   2.488  19.374  0.00  0.00    +0.000 S 
ATOM     24  O   UNL     1       3.348   2.413  20.791  0.00  0.00    +0.000 OA
ATOM     25  O   UNL     1       3.445   1.375  18.480  0.00  0.00    +0.000 OA
BRANCH  23  26
ATOM     26  N   UNL     1       5.190   2.996  19.236  0.00  0.00    +0.000 NA
ATOM     27  H   UNL     1       5.824   2.385  19.776  0.00  0.00    +0.000 HD
ATOM     28  H   UNL     1       5.294   3.990  19.438  0.00  0.00    +0.000 HD
ENDBRANCH  23  26
ENDBRANCH  22  23
ENDBRANCH  12  22
TORSDOF 3
ENDMDL
MODEL 2
REMARK VINA RESULT:      -6.5      1.864      2.629
REMARK  Name = 
REMARK  5 active torsions:
REMARK  status: ('A' for Active; 'I' for Inactive)
REMARK    1  A    between atoms: C_1  and  C_2
REMARK    2  A    between atoms: C_12  and  O_13
REMARK    3  A    between atoms: O_13  and  S_14
REMARK    4  A    between atoms: S_14  and  N_15
REMARK    5  A    between atoms: C_20  and  C_21
REMARK                            x       y       z     vdW  Elec       q    Type
REMARK                         _______ _______ _______ _____ _____    ______ ____
ROOT
ATOM      1  C   UNL     1      -2.138  11.997  20.126  0.00  0.00    +0.000 C 
ATOM      2  C   UNL     1      -1.263  12.709  21.183  0.00  0.00    +0.000 C 
ATOM      3  C   UNL     1       0.013  13.338  20.655  0.00  0.00    +0.000 C 
ATOM      4  C   UNL     1       0.787  12.323  19.810  0.00  0.00    +0.000 C 
ATOM      5  C   UNL     1       0.963  10.946  20.504  0.00  0.00    +0.000 C 
ATOM      6  C   UNL     1      -0.088  10.592  21.656  0.00  0.00    +0.000 C 
ATOM      7  C   UNL     1       0.692   9.650  22.548  0.00  0.00    +0.000 C 
ATOM      8  O   UNL     1       0.893   9.808  23.730  0.00  0.00    +0.000 OA
ATOM      9  C   UNL     1       1.140   8.436  21.808  0.00  0.00    +0.000 C 
ATOM     10  C   UNL     1       1.165   8.405  20.444  0.00  0.00    +0.000 C 
ATOM     11  C   UNL     1       1.440   7.071  19.776  0.00  0.00    +0.000 C 
ATOM     12  C   UNL     1       2.450   7.074  18.613  0.00  0.00    +0.000 C 
ATOM     13  C   UNL     1       2.349   8.358  17.797  0.00  0.00    +0.000 C 
ATOM     14  C   UNL     1       2.388   9.610  18.710  0.00  0.00    +0.000 C 
ATOM     15  C   UNL     1       1.069   9.681  19.533  0.00  0.00    +0.000 C 
ATOM     16  C   UNL     1      -0.019   9.729  18.399  0.00  0.00    +0.000 C 
ATOM     17  C   UNL     1      -0.856  11.751  22.311  0.00  0.00    +0.000 C 
ATOM     18  C   UNL     1      -2.212  11.459  23.021  0.00  0.00    +0.000 C 
ATOM     19  C   UNL     1      -3.112  12.704  22.787  0.00  0.00    +0.000 C 
ATOM     20  C   UNL     1      -2.240  13.576  21.937  0.00  0.00    +0.000 C 
ATOM     21  O   UNL     1      -2.365  14.788  21.790  0.00  0.00    +0.000 OA
ENDROOT
BRANCH  12  22
ATOM     22  O   UNL     1       2.136   5.923  17.822  0.00  0.00    +0.000 OA
BRANCH  22  23
ATOM     23  S   UNL     1       3.090   4.610  17.892  0.00  0.00    +0.000 S 
ATOM     24  O   UNL     1       4.177   4.793  16.958  0.00  0.00    +0.000 OA
ATOM     25  O   UNL     1       3.290   4.271  19.275  0.00  0.00    +0.000 OA
BRANCH  23  26
ATOM     26  N   UNL     1       2.115   3.442  17.232  0.00  0.00    +0.000 NA
ATOM     27  H   UNL     1       2.070   2.610  17.842  0.00  0.00    +0.000 HD
ATOM     28  H   UNL     1       2.360   3.237  16.263  0.00  0.00    +0.000 HD
ENDBRANCH  23  26
ENDBRANCH  22  23
ENDBRANCH  12  22
TORSDOF 3
ENDMDL
MODEL 3
REMARK VINA RESULT:      -6.3      2.023      3.213
REMARK  Name = 
REMARK  5 active torsions:
REMARK  status: ('A' for Active; 'I' for Inactive)
REMARK    1  A    between atoms: C_1  and  C_2
REMARK    2  A    between atoms: C_12  and  O_13
REMARK    3  A    between atoms: O_13  and  S_14
REMARK    4  A    between atoms: S_14  and  N_15
REMARK    5  A    between atoms: C_20  and  C_21
REMARK                            x       y       z     vdW  Elec       q    Type
REMARK                         _______ _______ _______ _____ _____    ______ ____
ROOT
ATOM      1  C   UNL     1      -3.111  12.297  19.358  0.00  0.00    +0.000 C 
ATOM      2  C   UNL     1      -2.422  13.269  20.344  0.00  0.00    +0.000 C 
ATOM      3  C   UNL     1      -1.220  14.013  19.793  0.00  0.00    +0.000 C 
ATOM      4  C   UNL     1      -0.250  13.028  19.136  0.00  0.00    +0.000 C 
ATOM      5  C   UNL     1       0.080  11.798  20.024  0.00  0.00    +0.000 C 
ATOM      6  C   UNL     1      -0.983  11.440  21.164  0.00  0.00    +0.000 C 
ATOM      7  C   UNL     1      -0.134  10.757  22.214  0.00  0.00    +0.000 C 
ATOM      8  O   UNL     1      -0.038  11.097  23.370  0.00  0.00    +0.000 OA
ATOM      9  C   UNL     1       0.536   9.540  21.673  0.00  0.00    +0.000 C 
ATOM     10  C   UNL     1       0.657   9.334  20.329  0.00  0.00    +0.000 C 
ATOM     11  C   UNL     1       1.169   7.982  19.869  0.00  0.00    +0.000 C 
ATOM     12  C   UNL     1       2.243   7.988  18.765  0.00  0.00    +0.000 C 
ATOM     13  C   UNL     1       2.009   9.123  17.773  0.00  0.00    +0.000 C 
ATOM     14  C   UNL     1       1.802  10.475  18.502  0.00  0.00    +0.000 C 
ATOM     15  C   UNL     1       0.435  10.449  19.245  0.00  0.00    +0.000 C 
ATOM     16  C   UNL     1      -0.569  10.177  18.066  0.00  0.00    +0.000 C 
ATOM     17  C   UNL     1      -1.955  12.542  21.614  0.00  0.00    +0.000 C 
ATOM     18  C   UNL     1      -3.298  12.140  22.294  0.00  0.00    +0.000 C 
ATOM     19  C   UNL     1      -4.353  13.189  21.846  0.00  0.00    +0.000 C 
ATOM     20  C   UNL     1      -3.564  14.066  20.924  0.00  0.00    +0.000 C 
ATOM     21  O   UNL     1      -3.856  15.214  20.603  0.00  0.00    +0.000 OA
ENDROOT
BRANCH  12  22
ATOM     22  O   UNL     1       2.156   6.709  18.129  0.00  0.00    +0.000 OA
BRANCH  22  23
ATOM     23  S   UNL     1       3.461   5.742  18.075  0.00  0.00    +0.000 S 
ATOM     24  O   UNL     1       3.027   4.421  17.688  0.00  0.00    +0.000 OA
ATOM     25  O   UNL     1       4.519   6.451  17.406  0.00  0.00    +0.000 OA
BRANCH  23  26
ATOM     26  N   UNL     1       3.874   5.635  19.678  0.00  0.00    +0.000 NA
ATOM     27  H   UNL     1       4.265   4.704  19.897  0.00  0.00    +0.000 HD
ATOM     28  H   UNL     1       3.113   5.923  20.293  0.00  0.00    +0.000 HD
ENDBRANCH  23  26
ENDBRANCH  22  23
ENDBRANCH  12  22
TORSDOF 3
ENDMDL
MODEL 4
REMARK VINA RESULT:      -6.3      8.401      9.777
REMARK  Name = 
REMARK  5 active torsions:
REMARK  status: ('A' for Active; 'I' for Inactive)
REMARK    1  A    between atoms: C_1  and  C_2
REMARK    2  A    between atoms: C_12  and  O_13
REMARK    3  A    between atoms: O_13  and  S_14
REMARK    4  A    between atoms: S_14  and  N_15
REMARK    5  A    between atoms: C_20  and  C_21
REMARK                            x       y       z     vdW  Elec       q    Type
REMARK                         _______ _______ _______ _____ _____    ______ ____
ROOT
ATOM      1  C   UNL     1      12.157  14.910  18.263  0.00  0.00    +0.000 C 
ATOM      2  C   UNL     1      11.176  15.790  19.070  0.00  0.00    +0.000 C 
ATOM      3  C   UNL     1      10.898  15.324  20.487  0.00  0.00    +0.000 C 
ATOM      4  C   UNL     1      10.521  13.840  20.486  0.00  0.00    +0.000 C 
ATOM      5  C   UNL     1       9.431  13.479  19.441  0.00  0.00    +0.000 C 
ATOM      6  C   UNL     1       9.270  14.483  18.207  0.00  0.00    +0.000 C 
ATOM      7  C   UNL     1       7.818  14.308  17.817  0.00  0.00    +0.000 C 
ATOM      8  O   UNL     1       6.996  15.193  17.757  0.00  0.00    +0.000 OA
ATOM      9  C   UNL     1       7.517  12.899  17.434  0.00  0.00    +0.000 C 
ATOM     10  C   UNL     1       8.352  11.876  17.778  0.00  0.00    +0.000 C 
ATOM     11  C   UNL     1       8.075  10.511  17.178  0.00  0.00    +0.000 C 
ATOM     12  C   UNL     1       8.135   9.308  18.138  0.00  0.00    +0.000 C 
ATOM     13  C   UNL     1       9.216   9.499  19.197  0.00  0.00    +0.000 C 
ATOM     14  C   UNL     1       9.096  10.885  19.880  0.00  0.00    +0.000 C 
ATOM     15  C   UNL     1       9.487  11.992  18.859  0.00  0.00    +0.000 C 
ATOM     16  C   UNL     1      10.952  11.574  18.473  0.00  0.00    +0.000 C 
ATOM     17  C   UNL     1       9.818  15.910  18.363  0.00  0.00    +0.000 C 
ATOM     18  C   UNL     1      10.165  16.735  17.088  0.00  0.00    +0.000 C 
ATOM     19  C   UNL     1      11.398  17.610  17.448  0.00  0.00    +0.000 C 
ATOM     20  C   UNL     1      11.689  17.193  18.857  0.00  0.00    +0.000 C 
ATOM     21  O   UNL     1      12.333  17.839  19.676  0.00  0.00    +0.000 OA
ENDROOT
BRANCH  12  22
ATOM     22  O   UNL     1       8.402   8.166  17.316  0.00  0.00    +0.000 OA
BRANCH  22  23
ATOM     23  S   UNL     1       7.425   6.870  17.392  0.00  0.00    +0.000 S 
ATOM     24  O   UNL     1       7.438   6.220  16.103  0.00  0.00    +0.000 OA
ATOM     25  O   UNL     1       7.690   6.177  18.625  0.00  0.00    +0.000 OA
BRANCH  23  26
ATOM     26  N   UNL     1       5.931   7.574  17.532  0.00  0.00    +0.000 NA
ATOM     27  H   UNL     1       5.687   8.097  16.675  0.00  0.00    +0.000 HD
ATOM     28  H   UNL     1       5.837   8.114  18.392  0.00  0.00    +0.000 HD
ENDBRANCH  23  26
ENDBRANCH  22  23
ENDBRANCH  12  22
TORSDOF 3
ENDMDL
MODEL 5
REMARK VINA RESULT:      -6.2      1.632      2.340
REMARK  Name = 
REMARK  5 active torsions:
REMARK  status: ('A' for Active; 'I' for Inactive)
REMARK    1  A    between atoms: C_1  and  C_2
REMARK    2  A    between atoms: C_12  and  O_13
REMARK    3  A    between atoms: O_13  and  S_14
REMARK    4  A    between atoms: S_14  and  N_15
REMARK    5  A    between atoms: C_20  and  C_21
REMARK                            x       y       z     vdW  Elec       q    Type
REMARK                         _______ _______ _______ _____ _____    ______ ____
ROOT
ATOM      1  C   UNL     1      -2.112  11.994  19.523  0.00  0.00    +0.000 C 
ATOM      2  C   UNL     1      -1.291  12.779  20.571  0.00  0.00    +0.000 C 
ATOM      3  C   UNL     1       0.015  13.367  20.068  0.00  0.00    +0.000 C 
ATOM      4  C   UNL     1       0.828  12.292  19.342  0.00  0.00    +0.000 C 
ATOM      5  C   UNL     1       0.960  10.969  20.142  0.00  0.00    +0.000 C 
ATOM      6  C   UNL     1      -0.153  10.700  21.258  0.00  0.00    +0.000 C 
ATOM      7  C   UNL     1       0.573   9.824  22.256  0.00  0.00    +0.000 C 
ATOM      8  O   UNL     1       0.713  10.066  23.432  0.00  0.00    +0.000 OA
ATOM      9  C   UNL     1       1.054   8.560  21.630  0.00  0.00    +0.000 C 
ATOM     10  C   UNL     1       1.152   8.430  20.275  0.00  0.00    +0.000 C 
ATOM     11  C   UNL     1       1.454   7.051  19.721  0.00  0.00    +0.000 C 
ATOM     12  C   UNL     1       2.524   6.968  18.616  0.00  0.00    +0.000 C 
ATOM     13  C   UNL     1       2.474   8.190  17.705  0.00  0.00    +0.000 C 
ATOM     14  C   UNL     1       2.470   9.505  18.527  0.00  0.00    +0.000 C 
ATOM     15  C   UNL     1       1.110   9.637  19.270  0.00  0.00    +0.000 C 
ATOM     16  C   UNL     1       0.085   9.604  18.080  0.00  0.00    +0.000 C 
ATOM     17  C   UNL     1      -0.949  11.904  21.786  0.00  0.00    +0.000 C 
ATOM     18  C   UNL     1      -2.342  11.666  22.442  0.00  0.00    +0.000 C 
ATOM     19  C   UNL     1      -3.222  12.892  22.071  0.00  0.00    +0.000 C 
ATOM     20  C   UNL     1      -2.302  13.700  21.208  0.00  0.00    +0.000 C 
ATOM     21  O   UNL     1      -2.412  14.898  20.968  0.00  0.00    +0.000 OA
ENDROOT
BRANCH  12  22
ATOM     22  O   UNL     1       2.248   5.764  17.894  0.00  0.00    +0.000 OA
BRANCH  22  23
ATOM     23  S   UNL     1       3.411   4.643  17.716  0.00  0.00    +0.000 S 
ATOM     24  O   UNL     1       2.774   3.365  17.499  0.00  0.00    +0.000 OA
ATOM     25  O   UNL     1       4.421   5.177  16.842  0.00  0.00    +0.000 OA
BRANCH  23  26
ATOM     26  N   UNL     1       4.059   4.576  19.240  0.00  0.00    +0.000 NA
ATOM     27  H   UNL     1       4.716   5.358  19.397  0.00  0.00    +0.000 HD
ATOM     28  H   UNL     1       4.445   3.657  19.456  0.00  0.00    +0.000 HD
ENDBRANCH  23  26
ENDBRANCH  22  23
ENDBRANCH  12  22
TORSDOF 3
ENDMDL
MODEL 6
REMARK VINA RESULT:      -6.2      6.737      8.936
REMARK  Name = 
REMARK  5 active torsions:
REMARK  status: ('A' for Active; 'I' for Inactive)
REMARK    1  A    between atoms: C_1  and  C_2
REMARK    2  A    between atoms: C_12  and  O_13
REMARK    3  A    between atoms: O_13  and  S_14
REMARK    4  A    between atoms: S_14  and  N_15
REMARK    5  A    between atoms: C_20  and  C_21
REMARK                            x       y       z     vdW  Elec       q    Type
REMARK                         _______ _______ _______ _____ _____    ______ ____
ROOT
ATOM      1  C   UNL     1       0.952  15.359  19.864  0.00  0.00    +0.000 C 
ATOM      2  C   UNL     1       1.513  14.038  19.289  0.00  0.00    +0.000 C 
ATOM      3  C   UNL     1       0.697  13.417  18.171  0.00  0.00    +0.000 C 
ATOM      4  C   UNL     1      -0.774  13.321  18.585  0.00  0.00    +0.000 C 
ATOM      5  C   UNL     1      -0.982  12.692  19.988  0.00  0.00    +0.000 C 
ATOM      6  C   UNL     1       0.266  12.753  20.987  0.00  0.00    +0.000 C 
ATOM      7  C   UNL     1       0.046  11.550  21.877  0.00  0.00    +0.000 C 
ATOM      8  O   UNL     1       0.833  10.647  22.044  0.00  0.00    +0.000 OA
ATOM      9  C   UNL     1      -1.254  11.632  22.602  0.00  0.00    +0.000 C 
ATOM     10  C   UNL     1      -2.242  12.481  22.195  0.00  0.00    +0.000 C 
ATOM     11  C   UNL     1      -3.445  12.646  23.103  0.00  0.00    +0.000 C 
ATOM     12  C   UNL     1      -4.830  12.611  22.430  0.00  0.00    +0.000 C 
ATOM     13  C   UNL     1      -4.791  13.256  21.049  0.00  0.00    +0.000 C 
ATOM     14  C   UNL     1      -3.626  12.691  20.197  0.00  0.00    +0.000 C 
ATOM     15  C   UNL     1      -2.275  13.183  20.790  0.00  0.00    +0.000 C 
ATOM     16  C   UNL     1      -2.440  14.745  20.722  0.00  0.00    +0.000 C 
ATOM     17  C   UNL     1       1.662  12.970  20.382  0.00  0.00    +0.000 C 
ATOM     18  C   UNL     1       2.798  13.550  21.277  0.00  0.00    +0.000 C 
ATOM     19  C   UNL     1       3.679  14.437  20.356  0.00  0.00    +0.000 C 
ATOM     20  C   UNL     1       2.969  14.341  19.041  0.00  0.00    +0.000 C 
ATOM     21  O   UNL     1       3.463  14.576  17.942  0.00  0.00    +0.000 OA
ENDROOT
BRANCH  12  22
ATOM     22  O   UNL     1      -5.711  13.314  23.313  0.00  0.00    +0.000 OA
BRANCH  22  23
ATOM     23  S   UNL     1      -7.308  13.015  23.269  0.00  0.00    +0.000 S 
ATOM     24  O   UNL     1      -7.916  13.954  22.356  0.00  0.00    +0.000 OA
ATOM     25  O   UNL     1      -7.497  11.592  23.177  0.00  0.00    +0.000 OA
BRANCH  23  26
ATOM     26  N   UNL     1      -7.786  13.481  24.787  0.00  0.00    +0.000 NA
ATOM     27  H   UNL     1      -8.782  13.260  24.945  0.00  0.00    +0.000 HD
ATOM     28  H   UNL     1      -7.535  14.448  24.991  0.00  0.00    +0.000 HD
ENDBRANCH  23  26
ENDBRANCH  22  23
ENDBRANCH  12  22
TORSDOF 3
ENDMDL
MODEL 7
REMARK VINA RESULT:      -6.1      8.335     10.109
REMARK  Name = 
REMARK  5 active torsions:
REMARK  status: ('A' for Active; 'I' for Inactive)
REMARK    1  A    between atoms: C_1  and  C_2
REMARK    2  A    between atoms: C_12  and  O_13
REMARK    3  A    between atoms: O_13  and  S_14
REMARK    4  A    between atoms: S_14  and  N_15
REMARK    5  A    between atoms: C_20  and  C_21
REMARK                            x       y       z     vdW  Elec       q    Type
REMARK                         _______ _______ _______ _____ _____    ______ ____
ROOT
ATOM      1  C   UNL     1      10.216  13.350  20.685  0.00  0.00    +0.000 C 
ATOM      2  C   UNL     1       9.782  14.826  20.537  0.00  0.00    +0.000 C 
ATOM      3  C   UNL     1      10.108  15.723  21.716  0.00  0.00    +0.000 C 
ATOM      4  C   UNL     1       9.621  15.076  23.016  0.00  0.00    +0.000 C 
ATOM      5  C   UNL     1       8.154  14.575  22.947  0.00  0.00    +0.000 C 
ATOM      6  C   UNL     1       7.570  14.287  21.487  0.00  0.00    +0.000 C 
ATOM      7  C   UNL     1       6.085  14.516  21.666  0.00  0.00    +0.000 C 
ATOM      8  O   UNL     1       5.413  15.296  21.032  0.00  0.00    +0.000 OA
ATOM      9  C   UNL     1       5.507  13.600  22.690  0.00  0.00    +0.000 C 
ATOM     10  C   UNL     1       6.300  12.947  23.588  0.00  0.00    +0.000 C 
ATOM     11  C   UNL     1       5.652  11.885  24.457  0.00  0.00    +0.000 C 
ATOM     12  C   UNL     1       6.006  11.908  25.956  0.00  0.00    +0.000 C 
ATOM     13  C   UNL     1       7.455  12.331  26.176  0.00  0.00    +0.000 C 
ATOM     14  C   UNL     1       7.786  13.630  25.398  0.00  0.00    +0.000 C 
ATOM     15  C   UNL     1       7.799  13.321  23.873  0.00  0.00    +0.000 C 
ATOM     16  C   UNL     1       8.897  12.201  23.777  0.00  0.00    +0.000 C 
ATOM     17  C   UNL     1       8.272  14.944  20.288  0.00  0.00    +0.000 C 
ATOM     18  C   UNL     1       8.105  14.317  18.871  0.00  0.00    +0.000 C 
ATOM     19  C   UNL     1       9.452  14.536  18.129  0.00  0.00    +0.000 C 
ATOM     20  C   UNL     1      10.287  15.216  19.170  0.00  0.00    +0.000 C 
ATOM     21  O   UNL     1      11.287  15.893  18.955  0.00  0.00    +0.000 OA
ENDROOT
BRANCH  12  22
ATOM     22  O   UNL     1       5.769  10.579  26.432  0.00  0.00    +0.000 OA
BRANCH  22  23
ATOM     23  S   UNL     1       4.359  10.219  27.154  0.00  0.00    +0.000 S 
ATOM     24  O   UNL     1       3.413   9.842  26.131  0.00  0.00    +0.000 OA
ATOM     25  O   UNL     1       4.638   9.405  28.307  0.00  0.00    +0.000 OA
BRANCH  23  26
ATOM     26  N   UNL     1       3.866  11.703  27.705  0.00  0.00    +0.000 NA
ATOM     27  H   UNL     1       3.558  11.649  28.689  0.00  0.00    +0.000 HD
ATOM     28  H   UNL     1       3.191  12.143  27.080  0.00  0.00    +0.000 HD
ENDBRANCH  23  26
ENDBRANCH  22  23
ENDBRANCH  12  22
TORSDOF 3
ENDMDL
MODEL 8
REMARK VINA RESULT:      -6.0      8.714     10.488
REMARK  Name = 
REMARK  5 active torsions:
REMARK  status: ('A' for Active; 'I' for Inactive)
REMARK    1  A    between atoms: C_1  and  C_2
REMARK    2  A    between atoms: C_12  and  O_13
REMARK    3  A    between atoms: O_13  and  S_14
REMARK    4  A    between atoms: S_14  and  N_15
REMARK    5  A    between atoms: C_20  and  C_21
REMARK                            x       y       z     vdW  Elec       q    Type
REMARK                         _______ _______ _______ _____ _____    ______ ____
ROOT
ATOM      1  C   UNL     1      10.279  16.174  21.142  0.00  0.00    +0.000 C 
ATOM      2  C   UNL     1       9.953  15.601  19.743  0.00  0.00    +0.000 C 
ATOM      3  C   UNL     1       8.508  15.739  19.303  0.00  0.00    +0.000 C 
ATOM      4  C   UNL     1       7.575  15.223  20.401  0.00  0.00    +0.000 C 
ATOM      5  C   UNL     1       7.973  13.825  20.946  0.00  0.00    +0.000 C 
ATOM      6  C   UNL     1       9.498  13.390  20.737  0.00  0.00    +0.000 C 
ATOM      7  C   UNL     1       9.415  11.880  20.691  0.00  0.00    +0.000 C 
ATOM      8  O   UNL     1       9.809  11.182  19.785  0.00  0.00    +0.000 OA
ATOM      9  C   UNL     1       8.841  11.322  21.949  0.00  0.00    +0.000 C 
ATOM     10  C   UNL     1       8.144  12.106  22.821  0.00  0.00    +0.000 C 
ATOM     11  C   UNL     1       7.773  11.506  24.164  0.00  0.00    +0.000 C 
ATOM     12  C   UNL     1       6.331  11.738  24.650  0.00  0.00    +0.000 C 
ATOM     13  C   UNL     1       5.820  13.113  24.233  0.00  0.00    +0.000 C 
ATOM     14  C   UNL     1       6.058  13.367  22.723  0.00  0.00    +0.000 C 
ATOM     15  C   UNL     1       7.584  13.531  22.468  0.00  0.00    +0.000 C 
ATOM     16  C   UNL     1       7.941  14.744  23.403  0.00  0.00    +0.000 C 
ATOM     17  C   UNL     1      10.310  14.111  19.650  0.00  0.00    +0.000 C 
ATOM     18  C   UNL     1      11.865  14.122  19.743  0.00  0.00    +0.000 C 
ATOM     19  C   UNL     1      12.333  15.492  19.181  0.00  0.00    +0.000 C 
ATOM     20  C   UNL     1      11.036  16.169  18.859  0.00  0.00    +0.000 C 
ATOM     21  O   UNL     1      10.891  17.107  18.082  0.00  0.00    +0.000 OA
ENDROOT
BRANCH  12  22
ATOM     22  O   UNL     1       6.373  11.604  26.075  0.00  0.00    +0.000 OA
BRANCH  22  23
ATOM     23  S   UNL     1       5.110  10.954  26.864  0.00  0.00    +0.000 S 
ATOM     24  O   UNL     1       4.254  10.313  25.893  0.00  0.00    +0.000 OA
ATOM     25  O   UNL     1       5.606  10.286  28.037  0.00  0.00    +0.000 OA
BRANCH  23  26
ATOM     26  N   UNL     1       4.291  12.303  27.371  0.00  0.00    +0.000 NA
ATOM     27  H   UNL     1       3.880  12.156  28.308  0.00  0.00    +0.000 HD
ATOM     28  H   UNL     1       3.629  12.639  26.673  0.00  0.00    +0.000 HD
ENDBRANCH  23  26
ENDBRANCH  22  23
ENDBRANCH  12  22
TORSDOF 3
ENDMDL
MODEL 9
REMARK VINA RESULT:      -6.0      9.059     10.839
REMARK  Name = 
REMARK  5 active torsions:
REMARK  status: ('A' for Active; 'I' for Inactive)
REMARK    1  A    between atoms: C_1  and  C_2
REMARK    2  A    between atoms: C_12  and  O_13
REMARK    3  A    between atoms: O_13  and  S_14
REMARK    4  A    between atoms: S_14  and  N_15
REMARK    5  A    between atoms: C_20  and  C_21
REMARK                            x       y       z     vdW  Elec       q    Type
REMARK                         _______ _______ _______ _____ _____    ______ ____
ROOT
ATOM      1  C   UNL     1       8.302  14.116  19.506  0.00  0.00    +0.000 C 
ATOM      2  C   UNL     1       9.813  14.175  19.826  0.00  0.00    +0.000 C 
ATOM      3  C   UNL     1      10.431  12.871  20.295  0.00  0.00    +0.000 C 
ATOM      4  C   UNL     1       9.594  12.273  21.428  0.00  0.00    +0.000 C 
ATOM      5  C   UNL     1       9.255  13.289  22.552  0.00  0.00    +0.000 C 
ATOM      6  C   UNL     1       9.310  14.836  22.150  0.00  0.00    +0.000 C 
ATOM      7  C   UNL     1       9.638  15.515  23.462  0.00  0.00    +0.000 C 
ATOM      8  O   UNL     1      10.585  16.240  23.660  0.00  0.00    +0.000 OA
ATOM      9  C   UNL     1       8.599  15.242  24.496  0.00  0.00    +0.000 C 
ATOM     10  C   UNL     1       7.714  14.212  24.361  0.00  0.00    +0.000 C 
ATOM     11  C   UNL     1       6.570  14.133  25.354  0.00  0.00    +0.000 C 
ATOM     12  C   UNL     1       6.270  12.746  25.954  0.00  0.00    +0.000 C 
ATOM     13  C   UNL     1       6.506  11.639  24.932  0.00  0.00    +0.000 C 
ATOM     14  C   UNL     1       7.894  11.782  24.257  0.00  0.00    +0.000 C 
ATOM     15  C   UNL     1       7.885  13.035  23.335  0.00  0.00    +0.000 C 
ATOM     16  C   UNL     1       6.706  12.704  22.349  0.00  0.00    +0.000 C 
ATOM     17  C   UNL     1      10.117  15.227  20.902  0.00  0.00    +0.000 C 
ATOM     18  C   UNL     1       9.793  16.567  20.176  0.00  0.00    +0.000 C 
ATOM     19  C   UNL     1      10.025  16.317  18.660  0.00  0.00    +0.000 C 
ATOM     20  C   UNL     1      10.410  14.870  18.628  0.00  0.00    +0.000 C 
ATOM     21  O   UNL     1      11.020  14.311  17.721  0.00  0.00    +0.000 OA
ENDROOT
BRANCH  12  22
ATOM     22  O   UNL     1       4.903  12.791  26.374  0.00  0.00    +0.000 OA
BRANCH  22  23
ATOM     23  S   UNL     1       4.388  11.805  27.558  0.00  0.00    +0.000 S 
ATOM     24  O   UNL     1       3.672  10.708  26.951  0.00  0.00    +0.000 OA
ATOM     25  O   UNL     1       5.467  11.620  28.491  0.00  0.00    +0.000 OA
BRANCH  23  26
ATOM     26  N   UNL     1       3.241  12.738  28.308  0.00  0.00    +0.000 NA
ATOM     27  H   UNL     1       3.672  13.358  29.013  0.00  0.00    +0.000 HD
ATOM     28  H   UNL     1       2.461  12.184  28.660  0.00  0.00    +0.000 HD
ENDBRANCH  23  26
ENDBRANCH  22  23
ENDBRANCH  12  22
TORSDOF 3
ENDMDL
