MODEL 1
REMARK VINA RESULT:      -7.2      0.000      0.000
REMARK  Name = 
REMARK  11 active torsions:
REMARK  status: ('A' for Active; 'I' for Inactive)
REMARK    1  A    between atoms: C_1  and  C_2
REMARK    2  A    between atoms: C_2  and  C_3
REMARK    3  A    between atoms: C_3  and  C_4
REMARK    4  A    between atoms: C_4  and  C_6
REMARK    5  A    between atoms: C_10  and  O_11
REMARK    6  A    between atoms: O_11  and  C_12
REMARK    7  A    between atoms: C_17  and  N_18
REMARK    8  A    between atoms: N_18  and  C_19
REMARK    9  A    between atoms: C_21  and  C_22
REMARK   10  A    between atoms: C_22  and  O_23
REMARK   11  A    between atoms: C_26  and  C_27
REMARK                            x       y       z     vdW  Elec       q    Type
REMARK                         _______ _______ _______ _____ _____    ______ ____
ROOT
ATOM      1  C   UNL     1       2.277   5.024  20.155  0.00  0.00    +0.000 A 
ATOM      2  C   UNL     1       1.549   5.742  21.085  0.00  0.00    +0.000 A 
ATOM      3  N   UNL     1       1.267   7.057  20.975  0.00  0.00    +0.000 NA
ATOM      4  C   UNL     1       1.674   7.739  19.882  0.00  0.00    +0.000 A 
ATOM      5  C   UNL     1       1.392   9.122  19.759  0.00  0.00    +0.000 A 
ATOM      6  C   UNL     1       1.822   9.860  18.651  0.00  0.00    +0.000 A 
ATOM      7  C   UNL     1       2.434   9.216  17.594  0.00  0.00    +0.000 A 
ATOM      8  C   UNL     1       2.650   7.848  17.674  0.00  0.00    +0.000 A 
ATOM      9  C   UNL     1       2.385   7.091  18.844  0.00  0.00    +0.000 A 
ATOM     10  C   UNL     1       2.773   5.716  19.029  0.00  0.00    +0.000 A 
ENDROOT
BRANCH   1  11
ATOM     11  C   UNL     1       2.540   3.570  20.362  0.00  0.00    +0.000 C 
ATOM     12  O   UNL     1       3.690   3.198  20.615  0.00  0.00    +0.000 OA
BRANCH  11  13
ATOM     13  C   UNL     1       1.425   2.557  20.178  0.00  0.00    +0.000 C 
BRANCH  13  15
ATOM     14  C   UNL     1       2.163   1.972  17.845  0.00  0.00    +0.000 C 
ATOM     15  C   UNL     1       1.015   2.463  18.711  0.00  0.00    +0.000 C 
ENDBRANCH  13  15
ENDBRANCH  11  13
ENDBRANCH   1  11
BRANCH   5  16
ATOM     16  O   UNL     1       0.675   9.690  20.795  0.00  0.00    +0.000 OA
ATOM     17  C   UNL     1      -0.194  10.769  20.471  0.00  0.00    +0.000 C 
ENDBRANCH   5  16
BRANCH  10  18
ATOM     18  N   UNL     1       3.576   4.994  18.086  0.00  0.00    +0.000 N 
ATOM     19  H   UNL     1       3.106   4.141  17.750  0.00  0.00    +0.000 HD
BRANCH  18  20
ATOM     20  C   UNL     1       4.976   4.849  17.967  0.00  0.00    +0.000 A 
ATOM     21  C   UNL     1       5.844   5.195  19.012  0.00  0.00    +0.000 A 
ATOM     22  C   UNL     1       7.221   5.340  18.793  0.00  0.00    +0.000 A 
ATOM     23  C   UNL     1       7.735   5.008  17.535  0.00  0.00    +0.000 A 
ATOM     24  C   UNL     1       6.896   4.521  16.530  0.00  0.00    +0.000 A 
ATOM     25  C   UNL     1       5.512   4.435  16.735  0.00  0.00    +0.000 A 
ATOM     26  C   UNL     1       4.613   4.010  15.605  0.00  0.00    +0.000 C 
BRANCH  22  27
ATOM     27  C   UNL     1       8.071   6.018  19.839  0.00  0.00    +0.000 C 
BRANCH  27  28
ATOM     28  O   UNL     1       8.210   5.228  21.010  0.00  0.00    +0.000 OA
ATOM     29  H   UNL     1       7.328   4.858  21.197  0.00  0.00    +0.000 HD
ENDBRANCH  27  28
ENDBRANCH  22  27
ENDBRANCH  18  20
ENDBRANCH  10  18
TORSDOF 8
ENDMDL
MODEL 2
REMARK VINA RESULT:      -7.2      1.363      1.591
REMARK  Name = 
REMARK  11 active torsions:
REMARK  status: ('A' for Active; 'I' for Inactive)
REMARK    1  A    between atoms: C_1  and  C_2
REMARK    2  A    between atoms: C_2  and  C_3
REMARK    3  A    between atoms: C_3  and  C_4
REMARK    4  A    between atoms: C_4  and  C_6
REMARK    5  A    between atoms: C_10  and  O_11
REMARK    6  A    between atoms: O_11  and  C_12
REMARK    7  A    between atoms: C_17  and  N_18
REMARK    8  A    between atoms: N_18  and  C_19
REMARK    9  A    between atoms: C_21  and  C_22
REMARK   10  A    between atoms: C_22  and  O_23
REMARK   11  A    between atoms: C_26  and  C_27
REMARK                            x       y       z     vdW  Elec       q    Type
REMARK                         _______ _______ _______ _____ _____    ______ ____
ROOT
ATOM      1  C   UNL     1       2.380   5.676  19.756  0.00  0.00    +0.000 A 
ATOM      2  C   UNL     1       1.682   6.150  20.850  0.00  0.00    +0.000 A 
ATOM      3  N   UNL     1       1.246   7.420  20.980  0.00  0.00    +0.000 NA
ATOM      4  C   UNL     1       1.454   8.303  19.979  0.00  0.00    +0.000 A 
ATOM      5  C   UNL     1       1.009   9.642  20.106  0.00  0.00    +0.000 A 
ATOM      6  C   UNL     1       1.233  10.585  19.097  0.00  0.00    +0.000 A 
ATOM      7  C   UNL     1       1.795  10.189  17.901  0.00  0.00    +0.000 A 
ATOM      8  C   UNL     1       2.169   8.863  17.739  0.00  0.00    +0.000 A 
ATOM      9  C   UNL     1       2.117   7.912  18.790  0.00  0.00    +0.000 A 
ATOM     10  C   UNL     1       2.673   6.586  18.717  0.00  0.00    +0.000 A 
ENDROOT
BRANCH   1  11
ATOM     11  C   UNL     1       2.824   4.253  19.701  0.00  0.00    +0.000 C 
ATOM     12  O   UNL     1       4.000   3.979  19.963  0.00  0.00    +0.000 OA
BRANCH  11  13
ATOM     13  C   UNL     1       1.863   3.169  19.247  0.00  0.00    +0.000 C 
BRANCH  13  15
ATOM     14  C   UNL     1       1.535   2.564  21.667  0.00  0.00    +0.000 C 
ATOM     15  C   UNL     1       0.849   2.851  20.342  0.00  0.00    +0.000 C 
ENDBRANCH  13  15
ENDBRANCH  11  13
ENDBRANCH   1  11
BRANCH   5  16
ATOM     16  O   UNL     1       0.350   9.954  21.280  0.00  0.00    +0.000 OA
ATOM     17  C   UNL     1       0.041  11.324  21.509  0.00  0.00    +0.000 C 
ENDBRANCH   5  16
BRANCH  10  18
ATOM     18  N   UNL     1       3.444   6.120  17.601  0.00  0.00    +0.000 N 
ATOM     19  H   UNL     1       2.940   5.410  17.052  0.00  0.00    +0.000 HD
BRANCH  18  20
ATOM     20  C   UNL     1       4.837   5.960  17.430  0.00  0.00    +0.000 A 
ATOM     21  C   UNL     1       5.748   6.943  17.840  0.00  0.00    +0.000 A 
ATOM     22  C   UNL     1       7.080   6.927  17.403  0.00  0.00    +0.000 A 
ATOM     23  C   UNL     1       7.520   5.835  16.648  0.00  0.00    +0.000 A 
ATOM     24  C   UNL     1       6.655   4.777  16.357  0.00  0.00    +0.000 A 
ATOM     25  C   UNL     1       5.310   4.827  16.745  0.00  0.00    +0.000 A 
ATOM     26  C   UNL     1       4.369   3.728  16.329  0.00  0.00    +0.000 C 
BRANCH  22  27
ATOM     27  C   UNL     1       7.938   8.152  17.593  0.00  0.00    +0.000 C 
BRANCH  27  28
ATOM     28  O   UNL     1       8.633   8.133  18.831  0.00  0.00    +0.000 OA
ATOM     29  H   UNL     1       7.957   8.235  19.526  0.00  0.00    +0.000 HD
ENDBRANCH  27  28
ENDBRANCH  22  27
ENDBRANCH  18  20
ENDBRANCH  10  18
TORSDOF 8
ENDMDL
MODEL 3
REMARK VINA RESULT:      -7.0      1.432      1.531
REMARK  Name = 
REMARK  11 active torsions:
REMARK  status: ('A' for Active; 'I' for Inactive)
REMARK    1  A    between atoms: C_1  and  C_2
REMARK    2  A    between atoms: C_2  and  C_3
REMARK    3  A    between atoms: C_3  and  C_4
REMARK    4  A    between atoms: C_4  and  C_6
REMARK    5  A    between atoms: C_10  and  O_11
REMARK    6  A    between atoms: O_11  and  C_12
REMARK    7  A    between atoms: C_17  and  N_18
REMARK    8  A    between atoms: N_18  and  C_19
REMARK    9  A    between atoms: C_21  and  C_22
REMARK   10  A    between atoms: C_22  and  O_23
REMARK   11  A    between atoms: C_26  and  C_27
REMARK                            x       y       z     vdW  Elec       q    Type
REMARK                         _______ _______ _______ _____ _____    ______ ____
ROOT
ATOM      1  C   UNL     1       3.109   4.640  19.727  0.00  0.00    +0.000 A 
ATOM      2  C   UNL     1       2.447   4.964  20.895  0.00  0.00    +0.000 A 
ATOM      3  N   UNL     1       1.853   6.153  21.126  0.00  0.00    +0.000 NA
ATOM      4  C   UNL     1       1.854   7.098  20.160  0.00  0.00    +0.000 A 
ATOM      5  C   UNL     1       1.241   8.354  20.392  0.00  0.00    +0.000 A 
ATOM      6  C   UNL     1       1.247   9.361  19.421  0.00  0.00    +0.000 A 
ATOM      7  C   UNL     1       1.755   9.099  18.165  0.00  0.00    +0.000 A 
ATOM      8  C   UNL     1       2.292   7.847  17.904  0.00  0.00    +0.000 A 
ATOM      9  C   UNL     1       2.460   6.854  18.905  0.00  0.00    +0.000 A 
ATOM     10  C   UNL     1       3.185   5.624  18.717  0.00  0.00    +0.000 A 
ENDROOT
BRANCH   1  11
ATOM     11  C   UNL     1       3.738   3.297  19.562  0.00  0.00    +0.000 C 
ATOM     12  O   UNL     1       4.968   3.202  19.586  0.00  0.00    +0.000 OA
BRANCH  11  13
ATOM     13  C   UNL     1       2.876   2.078  19.283  0.00  0.00    +0.000 C 
BRANCH  13  15
ATOM     14  C   UNL     1       0.453   2.526  18.779  0.00  0.00    +0.000 C 
ATOM     15  C   UNL     1       1.848   2.378  18.197  0.00  0.00    +0.000 C 
ENDBRANCH  13  15
ENDBRANCH  11  13
ENDBRANCH   1  11
BRANCH   5  16
ATOM     16  O   UNL     1       0.647   8.521  21.629  0.00  0.00    +0.000 OA
ATOM     17  C   UNL     1      -0.252   9.614  21.778  0.00  0.00    +0.000 C 
ENDBRANCH   5  16
BRANCH  10  18
ATOM     18  N   UNL     1       3.916   5.318  17.522  0.00  0.00    +0.000 N 
ATOM     19  H   UNL     1       3.562   4.470  17.058  0.00  0.00    +0.000 HD
BRANCH  18  20
ATOM     20  C   UNL     1       5.269   5.527  17.175  0.00  0.00    +0.000 A 
ATOM     21  C   UNL     1       6.039   6.528  17.781  0.00  0.00    +0.000 A 
ATOM     22  C   UNL     1       7.266   6.932  17.234  0.00  0.00    +0.000 A 
ATOM     23  C   UNL     1       7.770   6.226  16.136  0.00  0.00    +0.000 A 
ATOM     24  C   UNL     1       7.076   5.131  15.615  0.00  0.00    +0.000 A 
ATOM     25  C   UNL     1       5.824   4.770  16.128  0.00  0.00    +0.000 A 
ATOM     26  C   UNL     1       5.044   3.655  15.483  0.00  0.00    +0.000 C 
BRANCH  22  27
ATOM     27  C   UNL     1       7.906   8.210  17.712  0.00  0.00    +0.000 C 
BRANCH  27  28
ATOM     28  O   UNL     1       8.670   8.017  18.893  0.00  0.00    +0.000 OA
ATOM     29  H   UNL     1       8.623   7.065  19.097  0.00  0.00    +0.000 HD
ENDBRANCH  27  28
ENDBRANCH  22  27
ENDBRANCH  18  20
ENDBRANCH  10  18
TORSDOF 8
ENDMDL
MODEL 4
REMARK VINA RESULT:      -6.7      1.572      1.830
REMARK  Name = 
REMARK  11 active torsions:
REMARK  status: ('A' for Active; 'I' for Inactive)
REMARK    1  A    between atoms: C_1  and  C_2
REMARK    2  A    between atoms: C_2  and  C_3
REMARK    3  A    between atoms: C_3  and  C_4
REMARK    4  A    between atoms: C_4  and  C_6
REMARK    5  A    between atoms: C_10  and  O_11
REMARK    6  A    between atoms: O_11  and  C_12
REMARK    7  A    between atoms: C_17  and  N_18
REMARK    8  A    between atoms: N_18  and  C_19
REMARK    9  A    between atoms: C_21  and  C_22
REMARK   10  A    between atoms: C_22  and  O_23
REMARK   11  A    between atoms: C_26  and  C_27
REMARK                            x       y       z     vdW  Elec       q    Type
REMARK                         _______ _______ _______ _____ _____    ______ ____
ROOT
ATOM      1  C   UNL     1       1.686   6.163  20.149  0.00  0.00    +0.000 A 
ATOM      2  C   UNL     1       1.151   6.879  21.202  0.00  0.00    +0.000 A 
ATOM      3  N   UNL     1       0.989   8.218  21.204  0.00  0.00    +0.000 NA
ATOM      4  C   UNL     1       1.327   8.934  20.109  0.00  0.00    +0.000 A 
ATOM      5  C   UNL     1       1.171  10.342  20.101  0.00  0.00    +0.000 A 
ATOM      6  C   UNL     1       1.536  11.111  18.991  0.00  0.00    +0.000 A 
ATOM      7  C   UNL     1       1.948  10.488  17.831  0.00  0.00    +0.000 A 
ATOM      8  C   UNL     1       2.036   9.104  17.804  0.00  0.00    +0.000 A 
ATOM      9  C   UNL     1       1.839   8.295  18.953  0.00  0.00    +0.000 A 
ATOM     10  C   UNL     1       2.109   6.882  19.010  0.00  0.00    +0.000 A 
ENDROOT
BRANCH   1  11
ATOM     11  C   UNL     1       1.827   4.680  20.237  0.00  0.00    +0.000 C 
ATOM     12  O   UNL     1       1.001   3.962  19.664  0.00  0.00    +0.000 OA
BRANCH  11  13
ATOM     13  C   UNL     1       2.921   4.065  21.090  0.00  0.00    +0.000 C 
BRANCH  13  15
ATOM     14  C   UNL     1       4.427   2.286  20.143  0.00  0.00    +0.000 C 
ATOM     15  C   UNL     1       3.080   2.580  20.780  0.00  0.00    +0.000 C 
ENDBRANCH  13  15
ENDBRANCH  11  13
ENDBRANCH   1  11
BRANCH   5  16
ATOM     16  O   UNL     1       0.645  10.901  21.250  0.00  0.00    +0.000 OA
ATOM     17  C   UNL     1      -0.679  11.415  21.177  0.00  0.00    +0.000 C 
ENDBRANCH   5  16
BRANCH  10  18
ATOM     18  N   UNL     1       2.716   6.156  17.933  0.00  0.00    +0.000 N 
ATOM     19  H   UNL     1       2.053   5.513  17.477  0.00  0.00    +0.000 HD
BRANCH  18  20
ATOM     20  C   UNL     1       4.038   5.696  17.744  0.00  0.00    +0.000 A 
ATOM     21  C   UNL     1       5.147   6.511  18.008  0.00  0.00    +0.000 A 
ATOM     22  C   UNL     1       6.425   6.173  17.540  0.00  0.00    +0.000 A 
ATOM     23  C   UNL     1       6.598   4.936  16.909  0.00  0.00    +0.000 A 
ATOM     24  C   UNL     1       5.525   4.052  16.771  0.00  0.00    +0.000 A 
ATOM     25  C   UNL     1       4.238   4.420  17.187  0.00  0.00    +0.000 A 
ATOM     26  C   UNL     1       3.077   3.498  16.933  0.00  0.00    +0.000 C 
BRANCH  22  27
ATOM     27  C   UNL     1       7.519   7.209  17.558  0.00  0.00    +0.000 C 
BRANCH  27  28
ATOM     28  O   UNL     1       8.284   7.161  18.753  0.00  0.00    +0.000 OA
ATOM     29  H   UNL     1       9.161   7.523  18.532  0.00  0.00    +0.000 HD
ENDBRANCH  27  28
ENDBRANCH  22  27
ENDBRANCH  18  20
ENDBRANCH  10  18
TORSDOF 8
ENDMDL
MODEL 5
REMARK VINA RESULT:      -6.5      1.803      2.568
REMARK  Name = 
REMARK  11 active torsions:
REMARK  status: ('A' for Active; 'I' for Inactive)
REMARK    1  A    between atoms: C_1  and  C_2
REMARK    2  A    between atoms: C_2  and  C_3
REMARK    3  A    between atoms: C_3  and  C_4
REMARK    4  A    between atoms: C_4  and  C_6
REMARK    5  A    between atoms: C_10  and  O_11
REMARK    6  A    between atoms: O_11  and  C_12
REMARK    7  A    between atoms: C_17  and  N_18
REMARK    8  A    between atoms: N_18  and  C_19
REMARK    9  A    between atoms: C_21  and  C_22
REMARK   10  A    between atoms: C_22  and  O_23
REMARK   11  A    between atoms: C_26  and  C_27
REMARK                            x       y       z     vdW  Elec       q    Type
REMARK                         _______ _______ _______ _____ _____    ______ ____
ROOT
ATOM      1  C   UNL     1       2.501   4.590  20.303  0.00  0.00    +0.000 A 
ATOM      2  C   UNL     1       1.634   5.394  21.018  0.00  0.00    +0.000 A 
ATOM      3  N   UNL     1       1.396   6.692  20.736  0.00  0.00    +0.000 NA
ATOM      4  C   UNL     1       1.998   7.265  19.670  0.00  0.00    +0.000 A 
ATOM      5  C   UNL     1       1.763   8.629  19.367  0.00  0.00    +0.000 A 
ATOM      6  C   UNL     1       2.391   9.256  18.286  0.00  0.00    +0.000 A 
ATOM      7  C   UNL     1       3.167   8.513  17.419  0.00  0.00    +0.000 A 
ATOM      8  C   UNL     1       3.344   7.160  17.665  0.00  0.00    +0.000 A 
ATOM      9  C   UNL     1       2.868   6.519  18.838  0.00  0.00    +0.000 A 
ATOM     10  C   UNL     1       3.196   5.170  19.220  0.00  0.00    +0.000 A 
ENDROOT
BRANCH   1  11
ATOM     11  C   UNL     1       2.701   3.163  20.691  0.00  0.00    +0.000 C 
ATOM     12  O   UNL     1       3.798   2.809  21.135  0.00  0.00    +0.000 OA
BRANCH  11  13
ATOM     13  C   UNL     1       1.598   2.146  20.461  0.00  0.00    +0.000 C 
BRANCH  13  15
ATOM     14  C   UNL     1       2.088   1.838  18.013  0.00  0.00    +0.000 C 
ATOM     15  C   UNL     1       1.050   2.253  19.042  0.00  0.00    +0.000 C 
ENDBRANCH  13  15
ENDBRANCH  11  13
ENDBRANCH   1  11
BRANCH   5  16
ATOM     16  O   UNL     1       0.887   9.294  20.204  0.00  0.00    +0.000 OA
ATOM     17  C   UNL     1       0.823  10.710  20.085  0.00  0.00    +0.000 C 
ENDBRANCH   5  16
BRANCH  10  18
ATOM     18  N   UNL     1       4.139   4.360  18.504  0.00  0.00    +0.000 N 
ATOM     19  H   UNL     1       4.496   3.584  19.078  0.00  0.00    +0.000 HD
BRANCH  18  20
ATOM     20  C   UNL     1       5.075   4.685  17.498  0.00  0.00    +0.000 A 
ATOM     21  C   UNL     1       4.818   4.435  16.143  0.00  0.00    +0.000 A 
ATOM     22  C   UNL     1       5.846   4.472  15.190  0.00  0.00    +0.000 A 
ATOM     23  C   UNL     1       7.118   4.888  15.598  0.00  0.00    +0.000 A 
ATOM     24  C   UNL     1       7.349   5.280  16.919  0.00  0.00    +0.000 A 
ATOM     25  C   UNL     1       6.333   5.185  17.879  0.00  0.00    +0.000 A 
ATOM     26  C   UNL     1       6.631   5.509  19.319  0.00  0.00    +0.000 C 
BRANCH  22  27
ATOM     27  C   UNL     1       5.607   3.892  13.819  0.00  0.00    +0.000 C 
BRANCH  27  28
ATOM     28  O   UNL     1       6.715   4.089  12.954  0.00  0.00    +0.000 OA
ATOM     29  H   UNL     1       6.371   4.008  12.045  0.00  0.00    +0.000 HD
ENDBRANCH  27  28
ENDBRANCH  22  27
ENDBRANCH  18  20
ENDBRANCH  10  18
TORSDOF 8
ENDMDL
MODEL 6
REMARK VINA RESULT:      -6.5      1.118      1.401
REMARK  Name = 
REMARK  11 active torsions:
REMARK  status: ('A' for Active; 'I' for Inactive)
REMARK    1  A    between atoms: C_1  and  C_2
REMARK    2  A    between atoms: C_2  and  C_3
REMARK    3  A    between atoms: C_3  and  C_4
REMARK    4  A    between atoms: C_4  and  C_6
REMARK    5  A    between atoms: C_10  and  O_11
REMARK    6  A    between atoms: O_11  and  C_12
REMARK    7  A    between atoms: C_17  and  N_18
REMARK    8  A    between atoms: N_18  and  C_19
REMARK    9  A    between atoms: C_21  and  C_22
REMARK   10  A    between atoms: C_22  and  O_23
REMARK   11  A    between atoms: C_26  and  C_27
REMARK                            x       y       z     vdW  Elec       q    Type
REMARK                         _______ _______ _______ _____ _____    ______ ____
ROOT
ATOM      1  C   UNL     1       2.344   5.288  19.605  0.00  0.00    +0.000 A 
ATOM      2  C   UNL     1       1.566   5.728  20.658  0.00  0.00    +0.000 A 
ATOM      3  N   UNL     1       1.166   7.006  20.823  0.00  0.00    +0.000 NA
ATOM      4  C   UNL     1       1.498   7.935  19.899  0.00  0.00    +0.000 A 
ATOM      5  C   UNL     1       1.092   9.282  20.064  0.00  0.00    +0.000 A 
ATOM      6  C   UNL     1       1.442  10.269  19.138  0.00  0.00    +0.000 A 
ATOM      7  C   UNL     1       2.097   9.918  17.975  0.00  0.00    +0.000 A 
ATOM      8  C   UNL     1       2.435   8.588  17.769  0.00  0.00    +0.000 A 
ATOM      9  C   UNL     1       2.252   7.583  18.753  0.00  0.00    +0.000 A 
ATOM     10  C   UNL     1       2.764   6.241  18.652  0.00  0.00    +0.000 A 
ENDROOT
BRANCH   1  11
ATOM     11  C   UNL     1       2.739   3.852  19.506  0.00  0.00    +0.000 C 
ATOM     12  O   UNL     1       2.258   3.157  18.606  0.00  0.00    +0.000 OA
BRANCH  11  13
ATOM     13  C   UNL     1       3.655   3.237  20.548  0.00  0.00    +0.000 C 
BRANCH  13  15
ATOM     14  C   UNL     1       5.197   1.308  21.026  0.00  0.00    +0.000 C 
ATOM     15  C   UNL     1       4.464   2.090  19.950  0.00  0.00    +0.000 C 
ENDBRANCH  13  15
ENDBRANCH  11  13
ENDBRANCH   1  11
BRANCH   5  16
ATOM     16  O   UNL     1       0.339   9.555  21.191  0.00  0.00    +0.000 OA
ATOM     17  C   UNL     1       0.028  10.918  21.450  0.00  0.00    +0.000 C 
ENDBRANCH   5  16
BRANCH  10  18
ATOM     18  N   UNL     1       3.617   5.806  17.584  0.00  0.00    +0.000 N 
ATOM     19  H   UNL     1       3.085   5.382  16.811  0.00  0.00    +0.000 HD
BRANCH  18  20
ATOM     20  C   UNL     1       4.938   5.307  17.588  0.00  0.00    +0.000 A 
ATOM     21  C   UNL     1       5.828   5.584  18.634  0.00  0.00    +0.000 A 
ATOM     22  C   UNL     1       7.205   5.353  18.498  0.00  0.00    +0.000 A 
ATOM     23  C   UNL     1       7.662   4.719  17.338  0.00  0.00    +0.000 A 
ATOM     24  C   UNL     1       6.763   4.306  16.351  0.00  0.00    +0.000 A 
ATOM     25  C   UNL     1       5.396   4.593  16.466  0.00  0.00    +0.000 A 
ATOM     26  C   UNL     1       4.459   4.236  15.343  0.00  0.00    +0.000 C 
BRANCH  22  27
ATOM     27  C   UNL     1       8.160   5.952  19.499  0.00  0.00    +0.000 C 
BRANCH  27  28
ATOM     28  O   UNL     1       8.161   5.244  20.728  0.00  0.00    +0.000 OA
ATOM     29  H   UNL     1       8.682   4.434  20.578  0.00  0.00    +0.000 HD
ENDBRANCH  27  28
ENDBRANCH  22  27
ENDBRANCH  18  20
ENDBRANCH  10  18
TORSDOF 8
ENDMDL
MODEL 7
REMARK VINA RESULT:      -6.5      2.132      3.067
REMARK  Name = 
REMARK  11 active torsions:
REMARK  status: ('A' for Active; 'I' for Inactive)
REMARK    1  A    between atoms: C_1  and  C_2
REMARK    2  A    between atoms: C_2  and  C_3
REMARK    3  A    between atoms: C_3  and  C_4
REMARK    4  A    between atoms: C_4  and  C_6
REMARK    5  A    between atoms: C_10  and  O_11
REMARK    6  A    between atoms: O_11  and  C_12
REMARK    7  A    between atoms: C_17  and  N_18
REMARK    8  A    between atoms: N_18  and  C_19
REMARK    9  A    between atoms: C_21  and  C_22
REMARK   10  A    between atoms: C_22  and  O_23
REMARK   11  A    between atoms: C_26  and  C_27
REMARK                            x       y       z     vdW  Elec       q    Type
REMARK                         _______ _______ _______ _____ _____    ______ ____
ROOT
ATOM      1  C   UNL     1       3.349   3.978  19.852  0.00  0.00    +0.000 A 
ATOM      2  C   UNL     1       2.404   4.596  20.648  0.00  0.00    +0.000 A 
ATOM      3  N   UNL     1       1.996   5.872  20.489  0.00  0.00    +0.000 NA
ATOM      4  C   UNL     1       2.494   6.612  19.475  0.00  0.00    +0.000 A 
ATOM      5  C   UNL     1       2.081   7.955  19.301  0.00  0.00    +0.000 A 
ATOM      6  C   UNL     1       2.599   8.753  18.275  0.00  0.00    +0.000 A 
ATOM      7  C   UNL     1       3.442   8.198  17.335  0.00  0.00    +0.000 A 
ATOM      8  C   UNL     1       3.796   6.862  17.454  0.00  0.00    +0.000 A 
ATOM      9  C   UNL     1       3.433   6.062  18.568  0.00  0.00    +0.000 A 
ATOM     10  C   UNL     1       3.939   4.737  18.819  0.00  0.00    +0.000 A 
ENDROOT
BRANCH   1  11
ATOM     11  C   UNL     1       3.739   2.560  20.104  0.00  0.00    +0.000 C 
ATOM     12  O   UNL     1       4.825   2.321  20.640  0.00  0.00    +0.000 OA
BRANCH  11  13
ATOM     13  C   UNL     1       2.847   1.426  19.631  0.00  0.00    +0.000 C 
BRANCH  13  15
ATOM     14  C   UNL     1       0.644   2.171  18.672  0.00  0.00    +0.000 C 
ATOM     15  C   UNL     1       2.091   1.823  18.367  0.00  0.00    +0.000 C 
ENDBRANCH  13  15
ENDBRANCH  11  13
ENDBRANCH   1  11
BRANCH   5  16
ATOM     16  O   UNL     1       1.146   8.424  20.206  0.00  0.00    +0.000 OA
ATOM     17  C   UNL     1       0.637   9.735  19.993  0.00  0.00    +0.000 C 
ENDBRANCH   5  16
BRANCH  10  18
ATOM     18  N   UNL     1       4.961   4.124  18.021  0.00  0.00    +0.000 N 
ATOM     19  H   UNL     1       5.636   3.598  18.594  0.00  0.00    +0.000 HD
BRANCH  18  20
ATOM     20  C   UNL     1       5.567   4.525  16.811  0.00  0.00    +0.000 A 
ATOM     21  C   UNL     1       5.042   4.155  15.565  0.00  0.00    +0.000 A 
ATOM     22  C   UNL     1       5.796   4.289  14.390  0.00  0.00    +0.000 A 
ATOM     23  C   UNL     1       7.042   4.919  14.467  0.00  0.00    +0.000 A 
ATOM     24  C   UNL     1       7.511   5.423  15.683  0.00  0.00    +0.000 A 
ATOM     25  C   UNL     1       6.781   5.234  16.863  0.00  0.00    +0.000 A 
ATOM     26  C   UNL     1       7.353   5.689  18.179  0.00  0.00    +0.000 C 
BRANCH  22  27
ATOM     27  C   UNL     1       5.339   3.595  13.132  0.00  0.00    +0.000 C 
BRANCH  27  28
ATOM     28  O   UNL     1       6.337   3.600  12.124  0.00  0.00    +0.000 OA
ATOM     29  H   UNL     1       5.867   3.673  11.273  0.00  0.00    +0.000 HD
ENDBRANCH  27  28
ENDBRANCH  22  27
ENDBRANCH  18  20
ENDBRANCH  10  18
TORSDOF 8
ENDMDL
MODEL 8
REMARK VINA RESULT:      -6.4      2.761      3.793
REMARK  Name = 
REMARK  11 active torsions:
REMARK  status: ('A' for Active; 'I' for Inactive)
REMARK    1  A    between atoms: C_1  and  C_2
REMARK    2  A    between atoms: C_2  and  C_3
REMARK    3  A    between atoms: C_3  and  C_4
REMARK    4  A    between atoms: C_4  and  C_6
REMARK    5  A    between atoms: C_10  and  O_11
REMARK    6  A    between atoms: O_11  and  C_12
REMARK    7  A    between atoms: C_17  and  N_18
REMARK    8  A    between atoms: N_18  and  C_19
REMARK    9  A    between atoms: C_21  and  C_22
REMARK   10  A    between atoms: C_22  and  O_23
REMARK   11  A    between atoms: C_26  and  C_27
REMARK                            x       y       z     vdW  Elec       q    Type
REMARK                         _______ _______ _______ _____ _____    ______ ____
ROOT
ATOM      1  C   UNL     1       3.809   3.211  19.841  0.00  0.00    +0.000 A 
ATOM      2  C   UNL     1       2.912   3.699  20.772  0.00  0.00    +0.000 A 
ATOM      3  N   UNL     1       2.391   4.943  20.743  0.00  0.00    +0.000 NA
ATOM      4  C   UNL     1       2.715   5.780  19.733  0.00  0.00    +0.000 A 
ATOM      5  C   UNL     1       2.181   7.092  19.695  0.00  0.00    +0.000 A 
ATOM      6  C   UNL     1       2.518   7.989  18.676  0.00  0.00    +0.000 A 
ATOM      7  C   UNL     1       3.293   7.563  17.617  0.00  0.00    +0.000 A 
ATOM      8  C   UNL     1       3.761   6.257  17.607  0.00  0.00    +0.000 A 
ATOM      9  C   UNL     1       3.587   5.366  18.697  0.00  0.00    +0.000 A 
ATOM     10  C   UNL     1       4.220   4.077  18.804  0.00  0.00    +0.000 A 
ENDROOT
BRANCH   1  11
ATOM     11  C   UNL     1       4.333   1.818  19.954  0.00  0.00    +0.000 C 
ATOM     12  O   UNL     1       4.077   1.005  19.062  0.00  0.00    +0.000 OA
BRANCH  11  13
ATOM     13  C   UNL     1       5.100   1.389  21.192  0.00  0.00    +0.000 C 
BRANCH  13  15
ATOM     14  C   UNL     1       6.452  -0.456  22.241  0.00  0.00    +0.000 C 
ATOM     15  C   UNL     1       5.723   0.011  20.992  0.00  0.00    +0.000 C 
ENDBRANCH  13  15
ENDBRANCH  11  13
ENDBRANCH   1  11
BRANCH   5  16
ATOM     16  O   UNL     1       1.319   7.426  20.723  0.00  0.00    +0.000 OA
ATOM     17  C   UNL     1       0.970   8.798  20.858  0.00  0.00    +0.000 C 
ENDBRANCH   5  16
BRANCH  10  18
ATOM     18  N   UNL     1       5.191   3.600  17.863  0.00  0.00    +0.000 N 
ATOM     19  H   UNL     1       5.913   3.019  18.313  0.00  0.00    +0.000 HD
BRANCH  18  20
ATOM     20  C   UNL     1       5.705   4.173  16.679  0.00  0.00    +0.000 A 
ATOM     21  C   UNL     1       5.124   3.924  15.428  0.00  0.00    +0.000 A 
ATOM     22  C   UNL     1       5.800   4.236  14.239  0.00  0.00    +0.000 A 
ATOM     23  C   UNL     1       7.017   4.920  14.324  0.00  0.00    +0.000 A 
ATOM     24  C   UNL     1       7.533   5.302  15.565  0.00  0.00    +0.000 A 
ATOM     25  C   UNL     1       6.884   4.935  16.751  0.00  0.00    +0.000 A 
ATOM     26  C   UNL     1       7.511   5.262  18.080  0.00  0.00    +0.000 C 
BRANCH  22  27
ATOM     27  C   UNL     1       5.301   3.671  12.933  0.00  0.00    +0.000 C 
BRANCH  27  28
ATOM     28  O   UNL     1       6.202   2.723  12.381  0.00  0.00    +0.000 OA
ATOM     29  H   UNL     1       6.376   2.069  13.083  0.00  0.00    +0.000 HD
ENDBRANCH  27  28
ENDBRANCH  22  27
ENDBRANCH  18  20
ENDBRANCH  10  18
TORSDOF 8
ENDMDL
MODEL 9
REMARK VINA RESULT:      -6.4      2.522      7.549
REMARK  Name = 
REMARK  11 active torsions:
REMARK  status: ('A' for Active; 'I' for Inactive)
REMARK    1  A    between atoms: C_1  and  C_2
REMARK    2  A    between atoms: C_2  and  C_3
REMARK    3  A    between atoms: C_3  and  C_4
REMARK    4  A    between atoms: C_4  and  C_6
REMARK    5  A    between atoms: C_10  and  O_11
REMARK    6  A    between atoms: O_11  and  C_12
REMARK    7  A    between atoms: C_17  and  N_18
REMARK    8  A    between atoms: N_18  and  C_19
REMARK    9  A    between atoms: C_21  and  C_22
REMARK   10  A    between atoms: C_22  and  O_23
REMARK   11  A    between atoms: C_26  and  C_27
REMARK                            x       y       z     vdW  Elec       q    Type
REMARK                         _______ _______ _______ _____ _____    ______ ____
ROOT
ATOM      1  C   UNL     1       1.213   7.478  20.591  0.00  0.00    +0.000 A 
ATOM      2  C   UNL     1       1.433   6.135  20.830  0.00  0.00    +0.000 A 
ATOM      3  N   UNL     1       2.216   5.347  20.064  0.00  0.00    +0.000 NA
ATOM      4  C   UNL     1       2.871   5.879  19.009  0.00  0.00    +0.000 A 
ATOM      5  C   UNL     1       3.689   5.061  18.192  0.00  0.00    +0.000 A 
ATOM      6  C   UNL     1       4.359   5.578  17.078  0.00  0.00    +0.000 A 
ATOM      7  C   UNL     1       4.325   6.934  16.826  0.00  0.00    +0.000 A 
ATOM      8  C   UNL     1       3.585   7.756  17.664  0.00  0.00    +0.000 A 
ATOM      9  C   UNL     1       2.756   7.256  18.701  0.00  0.00    +0.000 A 
ATOM     10  C   UNL     1       1.831   8.057  19.461  0.00  0.00    +0.000 A 
ENDROOT
BRANCH   1  11
ATOM     11  C   UNL     1       0.330   8.272  21.494  0.00  0.00    +0.000 C 
ATOM     12  O   UNL     1      -0.895   8.138  21.407  0.00  0.00    +0.000 OA
BRANCH  11  13
ATOM     13  C   UNL     1       0.928   9.291  22.447  0.00  0.00    +0.000 C 
BRANCH  13  15
ATOM     14  C   UNL     1      -0.892  10.934  23.011  0.00  0.00    +0.000 C 
ATOM     15  C   UNL     1      -0.100   9.728  23.487  0.00  0.00    +0.000 C 
ENDBRANCH  13  15
ENDBRANCH  11  13
ENDBRANCH   1  11
BRANCH   5  16
ATOM     16  O   UNL     1       3.777   3.731  18.559  0.00  0.00    +0.000 OA
ATOM     17  C   UNL     1       3.796   2.767  17.513  0.00  0.00    +0.000 C 
ENDBRANCH   5  16
BRANCH  10  18
ATOM     18  N   UNL     1       1.566   9.436  19.172  0.00  0.00    +0.000 N 
ATOM     19  H   UNL     1       2.200  10.067  19.682  0.00  0.00    +0.000 HD
BRANCH  18  20
ATOM     20  C   UNL     1       0.366  10.111  18.858  0.00  0.00    +0.000 A 
ATOM     21  C   UNL     1      -0.597   9.548  18.010  0.00  0.00    +0.000 A 
ATOM     22  C   UNL     1      -1.626  10.326  17.461  0.00  0.00    +0.000 A 
ATOM     23  C   UNL     1      -1.751  11.656  17.879  0.00  0.00    +0.000 A 
ATOM     24  C   UNL     1      -0.882  12.185  18.837  0.00  0.00    +0.000 A 
ATOM     25  C   UNL     1       0.180  11.421  19.336  0.00  0.00    +0.000 A 
ATOM     26  C   UNL     1       1.169  12.043  20.286  0.00  0.00    +0.000 C 
BRANCH  22  27
ATOM     27  C   UNL     1      -2.441   9.779  16.317  0.00  0.00    +0.000 C 
BRANCH  27  28
ATOM     28  O   UNL     1      -2.407  10.629  15.181  0.00  0.00    +0.000 OA
ATOM     29  H   UNL     1      -3.050  10.263  14.546  0.00  0.00    +0.000 HD
ENDBRANCH  27  28
ENDBRANCH  22  27
ENDBRANCH  18  20
ENDBRANCH  10  18
TORSDOF 8
ENDMDL
