MODEL 1
REMARK VINA RESULT:      -7.9      0.000      0.000
REMARK  Name = 
REMARK  2 active torsions:
REMARK  status: ('A' for Active; 'I' for Inactive)
REMARK    1  A    between atoms: C_6  and  C_8
REMARK    2  A    between atoms: N_16  and  C_17
REMARK                            x       y       z     vdW  Elec       q    Type
REMARK                         _______ _______ _______ _____ _____    ______ ____
ROOT
ATOM      1  N   UNL     1       3.368   2.354  19.467  0.00  0.00    +0.000 N 
ATOM      2  C   UNL     1       3.212   3.697  19.535  0.00  0.00    +0.000 A 
ATOM      3  N   UNL     1       2.377   4.347  20.314  0.00  0.00    +0.000 NA
ATOM      4  C   UNL     1       2.673   5.660  20.069  0.00  0.00    +0.000 A 
ATOM      5  N   UNL     1       1.879   6.653  20.588  0.00  0.00    +0.000 N 
ATOM      6  C   UNL     1       1.918   7.944  20.110  0.00  0.00    +0.000 C 
ATOM      7  O   UNL     1       2.592   8.345  19.164  0.00  0.00    +0.000 OA
ATOM      8  N   UNL     1       3.752   5.847  19.320  0.00  0.00    +0.000 NA
ATOM      9  N   UNL     1       3.992   4.619  18.833  0.00  0.00    +0.000 N 
ATOM     10  H   UNL     1       2.966   1.835  20.244  0.00  0.00    +0.000 HD
ATOM     11  H   UNL     1       4.271   1.981  19.187  0.00  0.00    +0.000 HD
ATOM     12  H   UNL     1       1.183   6.347  21.248  0.00  0.00    +0.000 HD
ENDROOT
BRANCH   6  13
ATOM     13  C   UNL     1       0.993   8.941  20.715  0.00  0.00    +0.000 A 
ATOM     14  C   UNL     1       0.919   8.928  22.123  0.00  0.00    +0.000 A 
ATOM     15  C   UNL     1       0.005   9.730  22.805  0.00  0.00    +0.000 A 
ATOM     16  C   UNL     1      -0.851  10.556  22.088  0.00  0.00    +0.000 A 
ATOM     17  C   UNL     1      -0.781  10.589  20.693  0.00  0.00    +0.000 A 
ATOM     18  C   UNL     1       0.139   9.786  20.000  0.00  0.00    +0.000 A 
ATOM     19 CL   UNL     1       0.103   9.870  18.276  0.00  0.00    +0.000 Cl
ENDBRANCH   6  13
BRANCH   9  20
ATOM     20  C   UNL     1       4.887   4.452  17.749  0.00  0.00    +0.000 A 
ATOM     21  C   UNL     1       6.261   4.619  17.980  0.00  0.00    +0.000 A 
ATOM     22  C   UNL     1       7.168   4.523  16.925  0.00  0.00    +0.000 A 
ATOM     23  C   UNL     1       6.702   4.302  15.630  0.00  0.00    +0.000 A 
ATOM     24  C   UNL     1       5.335   4.158  15.392  0.00  0.00    +0.000 A 
ATOM     25  C   UNL     1       4.422   4.214  16.451  0.00  0.00    +0.000 A 
ENDBRANCH   9  20
TORSDOF 2
ENDMDL
MODEL 2
REMARK VINA RESULT:      -7.8      2.827      7.920
REMARK  Name = 
REMARK  2 active torsions:
REMARK  status: ('A' for Active; 'I' for Inactive)
REMARK    1  A    between atoms: C_6  and  C_8
REMARK    2  A    between atoms: N_16  and  C_17
REMARK                            x       y       z     vdW  Elec       q    Type
REMARK                         _______ _______ _______ _____ _____    ______ ____
ROOT
ATOM      1  N   UNL     1       0.939  11.360  18.119  0.00  0.00    +0.000 N 
ATOM      2  C   UNL     1       1.242  10.131  18.598  0.00  0.00    +0.000 A 
ATOM      3  N   UNL     1       1.820   9.155  17.934  0.00  0.00    +0.000 NA
ATOM      4  C   UNL     1       1.979   8.180  18.880  0.00  0.00    +0.000 A 
ATOM      5  N   UNL     1       2.407   6.928  18.513  0.00  0.00    +0.000 N 
ATOM      6  C   UNL     1       2.263   5.836  19.338  0.00  0.00    +0.000 C 
ATOM      7  O   UNL     1       1.706   5.825  20.434  0.00  0.00    +0.000 OA
ATOM      8  N   UNL     1       1.692   8.565  20.117  0.00  0.00    +0.000 NA
ATOM      9  N   UNL     1       1.058   9.733  19.925  0.00  0.00    +0.000 N 
ATOM     10  H   UNL     1       1.405  11.609  17.251  0.00  0.00    +0.000 HD
ATOM     11  H   UNL     1       0.902  12.141  18.769  0.00  0.00    +0.000 HD
ATOM     12  H   UNL     1       2.715   6.841  17.558  0.00  0.00    +0.000 HD
ENDROOT
BRANCH   6  13
ATOM     13  C   UNL     1       2.726   4.514  18.835  0.00  0.00    +0.000 A 
ATOM     14  C   UNL     1       1.708   3.614  18.458  0.00  0.00    +0.000 A 
ATOM     15  C   UNL     1       2.004   2.304  18.082  0.00  0.00    +0.000 A 
ATOM     16  C   UNL     1       3.324   1.874  18.080  0.00  0.00    +0.000 A 
ATOM     17  C   UNL     1       4.346   2.757  18.437  0.00  0.00    +0.000 A 
ATOM     18  C   UNL     1       4.054   4.078  18.814  0.00  0.00    +0.000 A 
ATOM     19 CL   UNL     1       5.389   5.066  19.286  0.00  0.00    +0.000 Cl
ENDBRANCH   6  13
BRANCH   9  20
ATOM     20  C   UNL     1       0.325  10.321  20.984  0.00  0.00    +0.000 A 
ATOM     21  C   UNL     1       0.000   9.529  22.096  0.00  0.00    +0.000 A 
ATOM     22  C   UNL     1      -0.773  10.055  23.131  0.00  0.00    +0.000 A 
ATOM     23  C   UNL     1      -1.259  11.357  23.039  0.00  0.00    +0.000 A 
ATOM     24  C   UNL     1      -0.957  12.142  21.925  0.00  0.00    +0.000 A 
ATOM     25  C   UNL     1      -0.149  11.634  20.901  0.00  0.00    +0.000 A 
ENDBRANCH   9  20
TORSDOF 2
ENDMDL
MODEL 3
REMARK VINA RESULT:      -7.7      2.789      7.950
REMARK  Name = 
REMARK  2 active torsions:
REMARK  status: ('A' for Active; 'I' for Inactive)
REMARK    1  A    between atoms: C_6  and  C_8
REMARK    2  A    between atoms: N_16  and  C_17
REMARK                            x       y       z     vdW  Elec       q    Type
REMARK                         _______ _______ _______ _____ _____    ______ ____
ROOT
ATOM      1  N   UNL     1       0.958  11.260  18.187  0.00  0.00    +0.000 N 
ATOM      2  C   UNL     1       1.243  10.020  18.650  0.00  0.00    +0.000 A 
ATOM      3  N   UNL     1       1.874   9.069  17.997  0.00  0.00    +0.000 NA
ATOM      4  C   UNL     1       1.982   8.068  18.922  0.00  0.00    +0.000 A 
ATOM      5  N   UNL     1       2.448   6.832  18.548  0.00  0.00    +0.000 N 
ATOM      6  C   UNL     1       2.263   5.714  19.330  0.00  0.00    +0.000 C 
ATOM      7  O   UNL     1       1.636   5.666  20.386  0.00  0.00    +0.000 OA
ATOM      8  N   UNL     1       1.611   8.414  20.149  0.00  0.00    +0.000 NA
ATOM      9  N   UNL     1       0.977   9.581  19.949  0.00  0.00    +0.000 N 
ATOM     10  H   UNL     1       1.476  11.539  17.359  0.00  0.00    +0.000 HD
ATOM     11  H   UNL     1       0.869  12.021  18.855  0.00  0.00    +0.000 HD
ATOM     12  H   UNL     1       2.818   6.776  17.613  0.00  0.00    +0.000 HD
ENDROOT
BRANCH   6  13
ATOM     13  C   UNL     1       2.773   4.413  18.820  0.00  0.00    +0.000 A 
ATOM     14  C   UNL     1       1.788   3.480  18.435  0.00  0.00    +0.000 A 
ATOM     15  C   UNL     1       2.130   2.184  18.053  0.00  0.00    +0.000 A 
ATOM     16  C   UNL     1       3.465   1.799  18.051  0.00  0.00    +0.000 A 
ATOM     17  C   UNL     1       4.454   2.716  18.417  0.00  0.00    +0.000 A 
ATOM     18  C   UNL     1       4.116   4.023  18.801  0.00  0.00    +0.000 A 
ATOM     19 CL   UNL     1       5.414   5.054  19.283  0.00  0.00    +0.000 Cl
ENDBRANCH   6  13
BRANCH   9  20
ATOM     20  C   UNL     1       0.170  10.130  20.974  0.00  0.00    +0.000 A 
ATOM     21  C   UNL     1      -0.324  11.434  20.814  0.00  0.00    +0.000 A 
ATOM     22  C   UNL     1      -1.071  12.031  21.828  0.00  0.00    +0.000 A 
ATOM     23  C   UNL     1      -1.293  11.345  23.021  0.00  0.00    +0.000 A 
ATOM     24  C   UNL     1      -0.786  10.056  23.193  0.00  0.00    +0.000 A 
ATOM     25  C   UNL     1      -0.068   9.435  22.165  0.00  0.00    +0.000 A 
ENDBRANCH   9  20
TORSDOF 2
ENDMDL
MODEL 4
REMARK VINA RESULT:      -7.7      0.566      1.178
REMARK  Name = 
REMARK  2 active torsions:
REMARK  status: ('A' for Active; 'I' for Inactive)
REMARK    1  A    between atoms: C_6  and  C_8
REMARK    2  A    between atoms: N_16  and  C_17
REMARK                            x       y       z     vdW  Elec       q    Type
REMARK                         _______ _______ _______ _____ _____    ______ ____
ROOT
ATOM      1  N   UNL     1       4.014   2.422  18.987  0.00  0.00    +0.000 N 
ATOM      2  C   UNL     1       3.747   3.746  19.078  0.00  0.00    +0.000 A 
ATOM      3  N   UNL     1       2.924   4.320  19.927  0.00  0.00    +0.000 NA
ATOM      4  C   UNL     1       3.083   5.653  19.669  0.00  0.00    +0.000 A 
ATOM      5  N   UNL     1       2.250   6.573  20.258  0.00  0.00    +0.000 N 
ATOM      6  C   UNL     1       2.137   7.862  19.788  0.00  0.00    +0.000 C 
ATOM      7  O   UNL     1       2.694   8.321  18.794  0.00  0.00    +0.000 OA
ATOM      8  N   UNL     1       4.077   5.935  18.836  0.00  0.00    +0.000 NA
ATOM      9  N   UNL     1       4.384   4.733  18.322  0.00  0.00    +0.000 N 
ATOM     10  H   UNL     1       3.724   1.869  19.789  0.00  0.00    +0.000 HD
ATOM     11  H   UNL     1       4.921   2.131  18.632  0.00  0.00    +0.000 HD
ATOM     12  H   UNL     1       1.639   6.206  20.970  0.00  0.00    +0.000 HD
ENDROOT
BRANCH   6  13
ATOM     13  C   UNL     1       1.180   8.773  20.473  0.00  0.00    +0.000 A 
ATOM     14  C   UNL     1       1.135   8.665  21.879  0.00  0.00    +0.000 A 
ATOM     15  C   UNL     1       0.200   9.378  22.628  0.00  0.00    +0.000 A 
ATOM     16  C   UNL     1      -0.708  10.208  21.982  0.00  0.00    +0.000 A 
ATOM     17  C   UNL     1      -0.667  10.335  20.592  0.00  0.00    +0.000 A 
ATOM     18  C   UNL     1       0.273   9.622  19.831  0.00  0.00    +0.000 A 
ATOM     19 CL   UNL     1       0.198   9.816  18.118  0.00  0.00    +0.000 Cl
ENDBRANCH   6  13
BRANCH   9  20
ATOM     20  C   UNL     1       5.199   4.647  17.168  0.00  0.00    +0.000 A 
ATOM     21  C   UNL     1       4.592   4.341  15.939  0.00  0.00    +0.000 A 
ATOM     22  C   UNL     1       5.370   4.187  14.792  0.00  0.00    +0.000 A 
ATOM     23  C   UNL     1       6.757   4.296  14.875  0.00  0.00    +0.000 A 
ATOM     24  C   UNL     1       7.366   4.578  16.098  0.00  0.00    +0.000 A 
ATOM     25  C   UNL     1       6.590   4.773  17.247  0.00  0.00    +0.000 A 
ENDBRANCH   9  20
TORSDOF 2
ENDMDL
MODEL 5
REMARK VINA RESULT:      -7.6      2.711      7.911
REMARK  Name = 
REMARK  2 active torsions:
REMARK  status: ('A' for Active; 'I' for Inactive)
REMARK    1  A    between atoms: C_6  and  C_8
REMARK    2  A    between atoms: N_16  and  C_17
REMARK                            x       y       z     vdW  Elec       q    Type
REMARK                         _______ _______ _______ _____ _____    ______ ____
ROOT
ATOM      1  N   UNL     1       1.120  11.137  18.153  0.00  0.00    +0.000 N 
ATOM      2  C   UNL     1       1.357   9.912  18.679  0.00  0.00    +0.000 A 
ATOM      3  N   UNL     1       1.957   8.908  18.079  0.00  0.00    +0.000 NA
ATOM      4  C   UNL     1       2.023   7.951  19.054  0.00  0.00    +0.000 A 
ATOM      5  N   UNL     1       2.446   6.682  18.745  0.00  0.00    +0.000 N 
ATOM      6  C   UNL     1       2.215   5.612  19.579  0.00  0.00    +0.000 C 
ATOM      7  O   UNL     1       1.579   5.639  20.631  0.00  0.00    +0.000 OA
ATOM      8  N   UNL     1       1.656   8.371  20.258  0.00  0.00    +0.000 NA
ATOM      9  N   UNL     1       1.066   9.548  19.996  0.00  0.00    +0.000 N 
ATOM     10  H   UNL     1       1.654  11.356  17.317  0.00  0.00    +0.000 HD
ATOM     11  H   UNL     1       1.055  11.933  18.782  0.00  0.00    +0.000 HD
ATOM     12  H   UNL     1       2.820   6.567  17.817  0.00  0.00    +0.000 HD
ENDROOT
BRANCH   6  13
ATOM     13  C   UNL     1       2.681   4.269  19.139  0.00  0.00    +0.000 A 
ATOM     14  C   UNL     1       3.534   4.258  18.016  0.00  0.00    +0.000 A 
ATOM     15  C   UNL     1       3.945   3.060  17.433  0.00  0.00    +0.000 A 
ATOM     16  C   UNL     1       3.507   1.853  17.964  0.00  0.00    +0.000 A 
ATOM     17  C   UNL     1       2.673   1.847  19.085  0.00  0.00    +0.000 A 
ATOM     18  C   UNL     1       2.257   3.050  19.678  0.00  0.00    +0.000 A 
ATOM     19 CL   UNL     1       1.186   2.925  21.026  0.00  0.00    +0.000 Cl
ENDBRANCH   6  13
BRANCH   9  20
ATOM     20  C   UNL     1       0.273  10.176  20.985  0.00  0.00    +0.000 A 
ATOM     21  C   UNL     1       0.127   9.543  22.230  0.00  0.00    +0.000 A 
ATOM     22  C   UNL     1      -0.696  10.101  23.208  0.00  0.00    +0.000 A 
ATOM     23  C   UNL     1      -1.408  11.266  22.933  0.00  0.00    +0.000 A 
ATOM     24  C   UNL     1      -1.284  11.886  21.689  0.00  0.00    +0.000 A 
ATOM     25  C   UNL     1      -0.430  11.355  20.716  0.00  0.00    +0.000 A 
ENDBRANCH   9  20
TORSDOF 2
ENDMDL
MODEL 6
REMARK VINA RESULT:      -7.6      1.238      1.718
REMARK  Name = 
REMARK  2 active torsions:
REMARK  status: ('A' for Active; 'I' for Inactive)
REMARK    1  A    between atoms: C_6  and  C_8
REMARK    2  A    between atoms: N_16  and  C_17
REMARK                            x       y       z     vdW  Elec       q    Type
REMARK                         _______ _______ _______ _____ _____    ______ ____
ROOT
ATOM      1  N   UNL     1       3.654   2.811  19.634  0.00  0.00    +0.000 N 
ATOM      2  C   UNL     1       3.422   4.133  19.452  0.00  0.00    +0.000 A 
ATOM      3  N   UNL     1       2.520   4.859  20.074  0.00  0.00    +0.000 NA
ATOM      4  C   UNL     1       2.753   6.122  19.603  0.00  0.00    +0.000 A 
ATOM      5  N   UNL     1       1.885   7.142  19.909  0.00  0.00    +0.000 N 
ATOM      6  C   UNL     1       1.872   8.325  19.206  0.00  0.00    +0.000 C 
ATOM      7  O   UNL     1       2.561   8.591  18.223  0.00  0.00    +0.000 OA
ATOM      8  N   UNL     1       3.850   6.238  18.866  0.00  0.00    +0.000 NA
ATOM      9  N   UNL     1       4.178   4.960  18.618  0.00  0.00    +0.000 N 
ATOM     10  H   UNL     1       3.251   2.417  20.479  0.00  0.00    +0.000 HD
ATOM     11  H   UNL     1       4.588   2.451  19.453  0.00  0.00    +0.000 HD
ATOM     12  H   UNL     1       1.181   6.917  20.593  0.00  0.00    +0.000 HD
ENDROOT
BRANCH   6  13
ATOM     13  C   UNL     1       0.869   9.355  19.591  0.00  0.00    +0.000 A 
ATOM     14  C   UNL     1       0.192   9.976  18.521  0.00  0.00    +0.000 A 
ATOM     15  C   UNL     1      -0.685  11.037  18.740  0.00  0.00    +0.000 A 
ATOM     16  C   UNL     1      -0.896  11.497  20.034  0.00  0.00    +0.000 A 
ATOM     17  C   UNL     1      -0.242  10.883  21.106  0.00  0.00    +0.000 A 
ATOM     18  C   UNL     1       0.640   9.812  20.892  0.00  0.00    +0.000 A 
ATOM     19 CL   UNL     1       1.431   9.165  22.284  0.00  0.00    +0.000 Cl
ENDBRANCH   6  13
BRANCH   9  20
ATOM     20  C   UNL     1       5.124   4.657  17.609  0.00  0.00    +0.000 A 
ATOM     21  C   UNL     1       6.489   4.800  17.904  0.00  0.00    +0.000 A 
ATOM     22  C   UNL     1       7.448   4.570  16.918  0.00  0.00    +0.000 A 
ATOM     23  C   UNL     1       7.047   4.238  15.626  0.00  0.00    +0.000 A 
ATOM     24  C   UNL     1       5.690   4.115  15.322  0.00  0.00    +0.000 A 
ATOM     25  C   UNL     1       4.723   4.306  16.315  0.00  0.00    +0.000 A 
ENDBRANCH   9  20
TORSDOF 2
ENDMDL
MODEL 7
REMARK VINA RESULT:      -7.5      1.589      2.346
REMARK  Name = 
REMARK  2 active torsions:
REMARK  status: ('A' for Active; 'I' for Inactive)
REMARK    1  A    between atoms: C_6  and  C_8
REMARK    2  A    between atoms: N_16  and  C_17
REMARK                            x       y       z     vdW  Elec       q    Type
REMARK                         _______ _______ _______ _____ _____    ______ ____
ROOT
ATOM      1  N   UNL     1       4.954   3.389  19.098  0.00  0.00    +0.000 N 
ATOM      2  C   UNL     1       4.407   4.602  18.846  0.00  0.00    +0.000 A 
ATOM      3  N   UNL     1       3.538   5.238  19.601  0.00  0.00    +0.000 NA
ATOM      4  C   UNL     1       3.378   6.434  18.959  0.00  0.00    +0.000 A 
ATOM      5  N   UNL     1       2.406   7.312  19.371  0.00  0.00    +0.000 N 
ATOM      6  C   UNL     1       1.976   8.351  18.577  0.00  0.00    +0.000 C 
ATOM      7  O   UNL     1       2.345   8.584  17.428  0.00  0.00    +0.000 OA
ATOM      8  N   UNL     1       4.224   6.635  17.956  0.00  0.00    +0.000 NA
ATOM      9  N   UNL     1       4.752   5.415  17.765  0.00  0.00    +0.000 N 
ATOM     10  H   UNL     1       4.851   3.062  20.054  0.00  0.00    +0.000 HD
ATOM     11  H   UNL     1       5.875   3.183  18.721  0.00  0.00    +0.000 HD
ATOM     12  H   UNL     1       1.944   7.070  20.232  0.00  0.00    +0.000 HD
ENDROOT
BRANCH   6  13
ATOM     13  C   UNL     1       0.891   9.226  19.098  0.00  0.00    +0.000 A 
ATOM     14  C   UNL     1       0.141   9.914  18.122  0.00  0.00    +0.000 A 
ATOM     15  C   UNL     1      -0.824  10.854  18.483  0.00  0.00    +0.000 A 
ATOM     16  C   UNL     1      -1.052  11.122  19.827  0.00  0.00    +0.000 A 
ATOM     17  C   UNL     1      -0.325  10.439  20.806  0.00  0.00    +0.000 A 
ATOM     18  C   UNL     1       0.646   9.490  20.449  0.00  0.00    +0.000 A 
ATOM     19 CL   UNL     1       1.518   8.746  21.740  0.00  0.00    +0.000 Cl
ENDBRANCH   6  13
BRANCH   9  20
ATOM     20  C   UNL     1       5.482   5.139  16.584  0.00  0.00    +0.000 A 
ATOM     21  C   UNL     1       4.849   4.425  15.554  0.00  0.00    +0.000 A 
ATOM     22  C   UNL     1       5.554   4.082  14.402  0.00  0.00    +0.000 A 
ATOM     23  C   UNL     1       6.903   4.413  14.290  0.00  0.00    +0.000 A 
ATOM     24  C   UNL     1       7.543   5.104  15.320  0.00  0.00    +0.000 A 
ATOM     25  C   UNL     1       6.832   5.486  16.463  0.00  0.00    +0.000 A 
ENDBRANCH   9  20
TORSDOF 2
ENDMDL
MODEL 8
REMARK VINA RESULT:      -7.5      2.631      8.000
REMARK  Name = 
REMARK  2 active torsions:
REMARK  status: ('A' for Active; 'I' for Inactive)
REMARK    1  A    between atoms: C_6  and  C_8
REMARK    2  A    between atoms: N_16  and  C_17
REMARK                            x       y       z     vdW  Elec       q    Type
REMARK                         _______ _______ _______ _____ _____    ______ ____
ROOT
ATOM      1  N   UNL     1      -0.745  11.025  17.951  0.00  0.00    +0.000 N 
ATOM      2  C   UNL     1       0.195  10.100  18.256  0.00  0.00    +0.000 A 
ATOM      3  N   UNL     1       0.961   9.455  17.403  0.00  0.00    +0.000 NA
ATOM      4  C   UNL     1       1.783   8.720  18.211  0.00  0.00    +0.000 A 
ATOM      5  N   UNL     1       2.623   7.780  17.666  0.00  0.00    +0.000 N 
ATOM      6  C   UNL     1       3.209   6.794  18.427  0.00  0.00    +0.000 C 
ATOM      7  O   UNL     1       3.022   6.599  19.626  0.00  0.00    +0.000 OA
ATOM      8  N   UNL     1       1.682   9.007  19.503  0.00  0.00    +0.000 NA
ATOM      9  N   UNL     1       0.561   9.744  19.556  0.00  0.00    +0.000 N 
ATOM     10  H   UNL     1      -0.685  11.405  17.011  0.00  0.00    +0.000 HD
ATOM     11  H   UNL     1      -0.965  11.742  18.638  0.00  0.00    +0.000 HD
ATOM     12  H   UNL     1       2.679   7.784  16.660  0.00  0.00    +0.000 HD
ENDROOT
BRANCH   6  13
ATOM     13  C   UNL     1       4.075   5.800  17.737  0.00  0.00    +0.000 A 
ATOM     14  C   UNL     1       5.374   6.245  17.414  0.00  0.00    +0.000 A 
ATOM     15  C   UNL     1       6.242   5.452  16.663  0.00  0.00    +0.000 A 
ATOM     16  C   UNL     1       5.823   4.203  16.224  0.00  0.00    +0.000 A 
ATOM     17  C   UNL     1       4.544   3.744  16.547  0.00  0.00    +0.000 A 
ATOM     18  C   UNL     1       3.666   4.535  17.304  0.00  0.00    +0.000 A 
ATOM     19 CL   UNL     1       2.093   3.889  17.601  0.00  0.00    +0.000 Cl
ENDBRANCH   6  13
BRANCH   9  20
ATOM     20  C   UNL     1      -0.058   9.997  20.804  0.00  0.00    +0.000 A 
ATOM     21  C   UNL     1      -0.630  11.260  21.026  0.00  0.00    +0.000 A 
ATOM     22  C   UNL     1      -1.194  11.567  22.263  0.00  0.00    +0.000 A 
ATOM     23  C   UNL     1      -1.153  10.632  23.295  0.00  0.00    +0.000 A 
ATOM     24  C   UNL     1      -0.566   9.383  23.086  0.00  0.00    +0.000 A 
ATOM     25  C   UNL     1      -0.032   9.053  21.835  0.00  0.00    +0.000 A 
ENDBRANCH   9  20
TORSDOF 2
ENDMDL
MODEL 9
REMARK VINA RESULT:      -7.5      2.726      7.942
REMARK  Name = 
REMARK  2 active torsions:
REMARK  status: ('A' for Active; 'I' for Inactive)
REMARK    1  A    between atoms: C_6  and  C_8
REMARK    2  A    between atoms: N_16  and  C_17
REMARK                            x       y       z     vdW  Elec       q    Type
REMARK                         _______ _______ _______ _____ _____    ______ ____
ROOT
ATOM      1  N   UNL     1       1.121  11.123  18.177  0.00  0.00    +0.000 N 
ATOM      2  C   UNL     1       1.353   9.896  18.701  0.00  0.00    +0.000 A 
ATOM      3  N   UNL     1       1.961   8.895  18.104  0.00  0.00    +0.000 NA
ATOM      4  C   UNL     1       2.017   7.935  19.076  0.00  0.00    +0.000 A 
ATOM      5  N   UNL     1       2.445   6.667  18.768  0.00  0.00    +0.000 N 
ATOM      6  C   UNL     1       2.206   5.593  19.596  0.00  0.00    +0.000 C 
ATOM      7  O   UNL     1       1.560   5.616  20.642  0.00  0.00    +0.000 OA
ATOM      8  N   UNL     1       1.638   8.350  20.278  0.00  0.00    +0.000 NA
ATOM      9  N   UNL     1       1.050   9.528  20.014  0.00  0.00    +0.000 N 
ATOM     10  H   UNL     1       1.663  11.344  17.347  0.00  0.00    +0.000 HD
ATOM     11  H   UNL     1       1.049  11.916  18.808  0.00  0.00    +0.000 HD
ATOM     12  H   UNL     1       2.828   6.554  17.843  0.00  0.00    +0.000 HD
ENDROOT
BRANCH   6  13
ATOM     13  C   UNL     1       2.677   4.252  19.156  0.00  0.00    +0.000 A 
ATOM     14  C   UNL     1       3.516   4.243  18.023  0.00  0.00    +0.000 A 
ATOM     15  C   UNL     1       3.930   3.046  17.440  0.00  0.00    +0.000 A 
ATOM     16  C   UNL     1       3.509   1.838  17.982  0.00  0.00    +0.000 A 
ATOM     17  C   UNL     1       2.688   1.831  19.113  0.00  0.00    +0.000 A 
ATOM     18  C   UNL     1       2.270   3.033  19.705  0.00  0.00    +0.000 A 
ATOM     19 CL   UNL     1       1.216   2.905  21.067  0.00  0.00    +0.000 Cl
ENDBRANCH   6  13
BRANCH   9  20
ATOM     20  C   UNL     1       0.246  10.152  20.998  0.00  0.00    +0.000 A 
ATOM     21  C   UNL     1      -0.096  11.502  20.828  0.00  0.00    +0.000 A 
ATOM     22  C   UNL     1      -0.835  12.168  21.805  0.00  0.00    +0.000 A 
ATOM     23  C   UNL     1      -1.199  11.500  22.973  0.00  0.00    +0.000 A 
ATOM     24  C   UNL     1      -0.842  10.163  23.156  0.00  0.00    +0.000 A 
ATOM     25  C   UNL     1      -0.134   9.477  22.163  0.00  0.00    +0.000 A 
ENDBRANCH   9  20
TORSDOF 2
ENDMDL
