MODEL 1
REMARK VINA RESULT:      -7.6      0.000      0.000
REMARK  Name = 
REMARK  9 active torsions:
REMARK  status: ('A' for Active; 'I' for Inactive)
REMARK    1  A    between atoms: C_2  and  C_3
REMARK    2  A    between atoms: C_3  and  N_4
REMARK    3  A    between atoms: N_10  and  C_11
REMARK    4  A    between atoms: N_10  and  C_13
REMARK    5  A    between atoms: C_11  and  C_12
REMARK    6  A    between atoms: C_13  and  C_14
REMARK    7  A    between atoms: N_17  and  C_18
REMARK    8  A    between atoms: C_18  and  C_19
REMARK    9  A    between atoms: N_21  and  C_22
REMARK                            x       y       z     vdW  Elec       q    Type
REMARK                         _______ _______ _______ _____ _____    ______ ____
ROOT
ATOM      1  N   UNL     1       4.091   3.749  19.492  0.00  0.00    +0.000 N 
ATOM      2  C   UNL     1       2.856   4.274  19.885  0.00  0.00    +0.000 A 
ATOM      3  O   UNL     1       2.002   3.612  20.474  0.00  0.00    +0.000 OA
ATOM      4  C   UNL     1       2.698   5.654  19.553  0.00  0.00    +0.000 A 
ATOM      5  S   UNL     1       1.404   6.635  20.017  0.00  0.00    +0.000 S 
ATOM      6  C   UNL     1       2.117   7.970  19.151  0.00  0.00    +0.000 A 
ATOM      7  N   UNL     1       1.507   9.193  19.077  0.00  0.00    +0.000 N 
ATOM      8  N   UNL     1       3.256   7.663  18.550  0.00  0.00    +0.000 NA
ATOM      9  C   UNL     1       3.613   6.364  18.836  0.00  0.00    +0.000 A 
ATOM     10  N   UNL     1       4.827   5.793  18.491  0.00  0.00    +0.000 N 
ATOM     11  C   UNL     1       5.143   4.512  18.963  0.00  0.00    +0.000 A 
ATOM     12  O   UNL     1       6.305   4.099  18.931  0.00  0.00    +0.000 OA
ENDROOT
BRANCH   7  13
ATOM     13  C   UNL     1       0.857   9.800  20.239  0.00  0.00    +0.000 C 
ATOM     14  C   UNL     1      -0.612  10.102  19.976  0.00  0.00    +0.000 C 
ENDBRANCH   7  13
BRANCH   7  15
ATOM     15  C   UNL     1       1.739  10.030  17.903  0.00  0.00    +0.000 C 
ATOM     16  C   UNL     1       2.241  11.421  18.259  0.00  0.00    +0.000 C 
ENDBRANCH   7  15
BRANCH   1  17
ATOM     17  C   UNL     1       4.347   2.345  19.778  0.00  0.00    +0.000 C 
BRANCH  17  19
ATOM     18  C   UNL     1       3.054   1.913  17.653  0.00  0.00    +0.000 C 
ATOM     19  C   UNL     1       3.876   1.492  18.625  0.00  0.00    +0.000 C 
ENDBRANCH  17  19
ENDBRANCH   1  17
BRANCH  10  20
ATOM     20  C   UNL     1       5.852   6.497  17.722  0.00  0.00    +0.000 C 
BRANCH  20  21
ATOM     21  C   UNL     1       5.679   6.201  16.218  0.00  0.00    +0.000 C 
ATOM     22  O   UNL     1       4.881   6.833  15.527  0.00  0.00    +0.000 OA
ATOM     23  N   UNL     1       6.511   5.185  15.746  0.00  0.00    +0.000 N 
ATOM     24  H   UNL     1       7.003   4.626  16.432  0.00  0.00    +0.000 HD
BRANCH  23  25
ATOM     25  C   UNL     1       6.668   4.797  14.388  0.00  0.00    +0.000 A 
ATOM     26  C   UNL     1       7.645   5.334  13.545  0.00  0.00    +0.000 A 
ATOM     27  C   UNL     1       7.780   4.905  12.218  0.00  0.00    +0.000 A 
ATOM     28  C   UNL     1       6.930   3.925  11.717  0.00  0.00    +0.000 A 
ATOM     29  C   UNL     1       5.959   3.387  12.551  0.00  0.00    +0.000 A 
ATOM     30  F   UNL     1       5.136   2.444  12.070  0.00  0.00    +0.000 F 
ATOM     31  C   UNL     1       5.817   3.806  13.875  0.00  0.00    +0.000 A 
ENDBRANCH  23  25
ENDBRANCH  20  21
ENDBRANCH  10  20
TORSDOF 7
ENDMDL
MODEL 2
REMARK VINA RESULT:      -7.2      1.183      1.573
REMARK  Name = 
REMARK  9 active torsions:
REMARK  status: ('A' for Active; 'I' for Inactive)
REMARK    1  A    between atoms: C_2  and  C_3
REMARK    2  A    between atoms: C_3  and  N_4
REMARK    3  A    between atoms: N_10  and  C_11
REMARK    4  A    between atoms: N_10  and  C_13
REMARK    5  A    between atoms: C_11  and  C_12
REMARK    6  A    between atoms: C_13  and  C_14
REMARK    7  A    between atoms: N_17  and  C_18
REMARK    8  A    between atoms: C_18  and  C_19
REMARK    9  A    between atoms: N_21  and  C_22
REMARK                            x       y       z     vdW  Elec       q    Type
REMARK                         _______ _______ _______ _____ _____    ______ ____
ROOT
ATOM      1  N   UNL     1       3.904   3.475  19.692  0.00  0.00    +0.000 N 
ATOM      2  C   UNL     1       2.676   3.917  20.195  0.00  0.00    +0.000 A 
ATOM      3  O   UNL     1       1.867   3.171  20.744  0.00  0.00    +0.000 OA
ATOM      4  C   UNL     1       2.469   5.320  20.022  0.00  0.00    +0.000 A 
ATOM      5  S   UNL     1       1.175   6.207  20.648  0.00  0.00    +0.000 S 
ATOM      6  C   UNL     1       1.814   7.648  19.903  0.00  0.00    +0.000 A 
ATOM      7  N   UNL     1       1.172   8.854  19.991  0.00  0.00    +0.000 N 
ATOM      8  N   UNL     1       2.931   7.441  19.222  0.00  0.00    +0.000 NA
ATOM      9  C   UNL     1       3.332   6.130  19.348  0.00  0.00    +0.000 A 
ATOM     10  N   UNL     1       4.542   5.636  18.889  0.00  0.00    +0.000 N 
ATOM     11  C   UNL     1       4.910   4.321  19.204  0.00  0.00    +0.000 A 
ATOM     12  O   UNL     1       6.080   3.948  19.075  0.00  0.00    +0.000 OA
ENDROOT
BRANCH   7  13
ATOM     13  C   UNL     1       0.563   9.311  21.240  0.00  0.00    +0.000 C 
ATOM     14  C   UNL     1       1.545   9.263  22.403  0.00  0.00    +0.000 C 
ENDBRANCH   7  13
BRANCH   7  15
ATOM     15  C   UNL     1       1.328   9.819  18.906  0.00  0.00    +0.000 C 
ATOM     16  C   UNL     1       0.031  10.076  18.154  0.00  0.00    +0.000 C 
ENDBRANCH   7  15
BRANCH   1  17
ATOM     17  C   UNL     1       4.207   2.055  19.811  0.00  0.00    +0.000 C 
BRANCH  17  19
ATOM     18  C   UNL     1       2.894   1.744  17.676  0.00  0.00    +0.000 C 
ATOM     19  C   UNL     1       3.851   1.346  18.527  0.00  0.00    +0.000 C 
ENDBRANCH  17  19
ENDBRANCH   1  17
BRANCH  10  20
ATOM     20  C   UNL     1       5.512   6.449  18.158  0.00  0.00    +0.000 C 
BRANCH  20  21
ATOM     21  C   UNL     1       5.402   6.168  16.645  0.00  0.00    +0.000 C 
ATOM     22  O   UNL     1       4.633   6.807  15.928  0.00  0.00    +0.000 OA
ATOM     23  N   UNL     1       6.252   5.155  16.198  0.00  0.00    +0.000 N 
ATOM     24  H   UNL     1       6.714   4.590  16.898  0.00  0.00    +0.000 HD
BRANCH  23  25
ATOM     25  C   UNL     1       6.464   4.781  14.844  0.00  0.00    +0.000 A 
ATOM     26  C   UNL     1       5.759   3.752  14.213  0.00  0.00    +0.000 A 
ATOM     27  C   UNL     1       5.983   3.433  12.867  0.00  0.00    +0.000 A 
ATOM     28  C   UNL     1       6.924   4.146  12.133  0.00  0.00    +0.000 A 
ATOM     29  C   UNL     1       7.626   5.170  12.755  0.00  0.00    +0.000 A 
ATOM     30  F   UNL     1       8.536   5.859  12.051  0.00  0.00    +0.000 F 
ATOM     31  C   UNL     1       7.409   5.499  14.094  0.00  0.00    +0.000 A 
ENDBRANCH  23  25
ENDBRANCH  20  21
ENDBRANCH  10  20
TORSDOF 7
ENDMDL
MODEL 3
REMARK VINA RESULT:      -6.6      0.838      1.241
REMARK  Name = 
REMARK  9 active torsions:
REMARK  status: ('A' for Active; 'I' for Inactive)
REMARK    1  A    between atoms: C_2  and  C_3
REMARK    2  A    between atoms: C_3  and  N_4
REMARK    3  A    between atoms: N_10  and  C_11
REMARK    4  A    between atoms: N_10  and  C_13
REMARK    5  A    between atoms: C_11  and  C_12
REMARK    6  A    between atoms: C_13  and  C_14
REMARK    7  A    between atoms: N_17  and  C_18
REMARK    8  A    between atoms: C_18  and  C_19
REMARK    9  A    between atoms: N_21  and  C_22
REMARK                            x       y       z     vdW  Elec       q    Type
REMARK                         _______ _______ _______ _____ _____    ______ ____
ROOT
ATOM      1  N   UNL     1       4.249   3.380  19.404  0.00  0.00    +0.000 N 
ATOM      2  C   UNL     1       2.997   3.787  19.876  0.00  0.00    +0.000 A 
ATOM      3  O   UNL     1       2.199   3.017  20.411  0.00  0.00    +0.000 OA
ATOM      4  C   UNL     1       2.750   5.181  19.690  0.00  0.00    +0.000 A 
ATOM      5  S   UNL     1       1.414   6.029  20.281  0.00  0.00    +0.000 S 
ATOM      6  C   UNL     1       2.024   7.486  19.543  0.00  0.00    +0.000 A 
ATOM      7  N   UNL     1       1.342   8.671  19.608  0.00  0.00    +0.000 N 
ATOM      8  N   UNL     1       3.163   7.312  18.889  0.00  0.00    +0.000 NA
ATOM      9  C   UNL     1       3.602   6.015  19.031  0.00  0.00    +0.000 A 
ATOM     10  N   UNL     1       4.837   5.557  18.604  0.00  0.00    +0.000 N 
ATOM     11  C   UNL     1       5.240   4.256  18.935  0.00  0.00    +0.000 A 
ATOM     12  O   UNL     1       6.423   3.920  18.835  0.00  0.00    +0.000 OA
ENDROOT
BRANCH   7  13
ATOM     13  C   UNL     1       0.690   9.116  20.840  0.00  0.00    +0.000 C 
ATOM     14  C   UNL     1       1.610   8.991  22.048  0.00  0.00    +0.000 C 
ENDBRANCH   7  13
BRANCH   7  15
ATOM     15  C   UNL     1       1.492   9.636  18.522  0.00  0.00    +0.000 C 
ATOM     16  C   UNL     1       1.160  11.058  18.946  0.00  0.00    +0.000 C 
ENDBRANCH   7  15
BRANCH   1  17
ATOM     17  C   UNL     1       4.595   1.972  19.538  0.00  0.00    +0.000 C 
BRANCH  17  19
ATOM     18  C   UNL     1       5.466   0.503  21.397  0.00  0.00    +0.000 C 
ATOM     19  C   UNL     1       5.191   1.718  20.901  0.00  0.00    +0.000 C 
ENDBRANCH  17  19
ENDBRANCH   1  17
BRANCH  10  20
ATOM     20  C   UNL     1       5.798   6.397  17.890  0.00  0.00    +0.000 C 
BRANCH  20  21
ATOM     21  C   UNL     1       5.673   6.166  16.370  0.00  0.00    +0.000 C 
ATOM     22  O   UNL     1       4.903   6.834  15.681  0.00  0.00    +0.000 OA
ATOM     23  N   UNL     1       6.512   5.162  15.883  0.00  0.00    +0.000 N 
ATOM     24  H   UNL     1       6.976   4.571  16.561  0.00  0.00    +0.000 HD
BRANCH  23  25
ATOM     25  C   UNL     1       6.710   4.831  14.516  0.00  0.00    +0.000 A 
ATOM     26  C   UNL     1       7.702   5.415  13.721  0.00  0.00    +0.000 A 
ATOM     27  C   UNL     1       7.878   5.040  12.383  0.00  0.00    +0.000 A 
ATOM     28  C   UNL     1       7.057   4.069  11.821  0.00  0.00    +0.000 A 
ATOM     29  C   UNL     1       6.072   3.485  12.606  0.00  0.00    +0.000 A 
ATOM     30  F   UNL     1       5.277   2.550  12.067  0.00  0.00    +0.000 F 
ATOM     31  C   UNL     1       5.889   3.849  13.942  0.00  0.00    +0.000 A 
ENDBRANCH  23  25
ENDBRANCH  20  21
ENDBRANCH  10  20
TORSDOF 7
ENDMDL
MODEL 4
REMARK VINA RESULT:      -6.3      9.169     11.109
REMARK  Name = 
REMARK  9 active torsions:
REMARK  status: ('A' for Active; 'I' for Inactive)
REMARK    1  A    between atoms: C_2  and  C_3
REMARK    2  A    between atoms: C_3  and  N_4
REMARK    3  A    between atoms: N_10  and  C_11
REMARK    4  A    between atoms: N_10  and  C_13
REMARK    5  A    between atoms: C_11  and  C_12
REMARK    6  A    between atoms: C_13  and  C_14
REMARK    7  A    between atoms: N_17  and  C_18
REMARK    8  A    between atoms: C_18  and  C_19
REMARK    9  A    between atoms: N_21  and  C_22
REMARK                            x       y       z     vdW  Elec       q    Type
REMARK                         _______ _______ _______ _____ _____    ______ ____
ROOT
ATOM      1  N   UNL     1      -2.755  10.715  18.024  0.00  0.00    +0.000 N 
ATOM      2  C   UNL     1      -3.943  11.307  18.467  0.00  0.00    +0.000 A 
ATOM      3  O   UNL     1      -5.047  11.025  18.002  0.00  0.00    +0.000 OA
ATOM      4  C   UNL     1      -3.743  12.251  19.519  0.00  0.00    +0.000 A 
ATOM      5  S   UNL     1      -4.966  13.027  20.388  0.00  0.00    +0.000 S 
ATOM      6  C   UNL     1      -3.758  13.886  21.305  0.00  0.00    +0.000 A 
ATOM      7  N   UNL     1      -4.094  14.807  22.260  0.00  0.00    +0.000 N 
ATOM      8  N   UNL     1      -2.516  13.593  20.950  0.00  0.00    +0.000 NA
ATOM      9  C   UNL     1      -2.514  12.616  19.980  0.00  0.00    +0.000 A 
ATOM     10  N   UNL     1      -1.376  11.979  19.514  0.00  0.00    +0.000 N 
ATOM     11  C   UNL     1      -1.506  10.896  18.635  0.00  0.00    +0.000 A 
ATOM     12  O   UNL     1      -0.558  10.130  18.437  0.00  0.00    +0.000 OA
ENDROOT
BRANCH   7  13
ATOM     13  C   UNL     1      -5.189  14.573  23.203  0.00  0.00    +0.000 C 
ATOM     14  C   UNL     1      -5.456  15.791  24.077  0.00  0.00    +0.000 C 
ENDBRANCH   7  13
BRANCH   7  15
ATOM     15  C   UNL     1      -3.182  15.916  22.526  0.00  0.00    +0.000 C 
ATOM     16  C   UNL     1      -3.207  16.976  21.435  0.00  0.00    +0.000 C 
ENDBRANCH   7  15
BRANCH   1  17
ATOM     17  C   UNL     1      -2.850   9.742  16.945  0.00  0.00    +0.000 C 
BRANCH  17  19
ATOM     18  C   UNL     1      -3.192  10.039  14.461  0.00  0.00    +0.000 C 
ATOM     19  C   UNL     1      -2.634  10.427  15.617  0.00  0.00    +0.000 C 
ENDBRANCH  17  19
ENDBRANCH   1  17
BRANCH  10  20
ATOM     20  C   UNL     1      -0.028  12.322  19.964  0.00  0.00    +0.000 C 
BRANCH  20  21
ATOM     21  C   UNL     1       0.576  13.404  19.045  0.00  0.00    +0.000 C 
ATOM     22  O   UNL     1       1.244  13.106  18.056  0.00  0.00    +0.000 OA
ATOM     23  N   UNL     1       0.276  14.709  19.441  0.00  0.00    +0.000 N 
ATOM     24  H   UNL     1      -0.137  14.837  20.356  0.00  0.00    +0.000 HD
BRANCH  23  25
ATOM     25  C   UNL     1       0.578  15.891  18.714  0.00  0.00    +0.000 A 
ATOM     26  C   UNL     1       1.880  16.273  18.376  0.00  0.00    +0.000 A 
ATOM     27  C   UNL     1       2.130  17.436  17.636  0.00  0.00    +0.000 A 
ATOM     28  C   UNL     1       1.071  18.236  17.222  0.00  0.00    +0.000 A 
ATOM     29  C   UNL     1      -0.224  17.861  17.553  0.00  0.00    +0.000 A 
ATOM     30  F   UNL     1      -1.248  18.630  17.157  0.00  0.00    +0.000 F 
ATOM     31  C   UNL     1      -0.486  16.703  18.288  0.00  0.00    +0.000 A 
ENDBRANCH  23  25
ENDBRANCH  20  21
ENDBRANCH  10  20
TORSDOF 7
ENDMDL
MODEL 5
REMARK VINA RESULT:      -6.1      5.179      8.572
REMARK  Name = 
REMARK  9 active torsions:
REMARK  status: ('A' for Active; 'I' for Inactive)
REMARK    1  A    between atoms: C_2  and  C_3
REMARK    2  A    between atoms: C_3  and  N_4
REMARK    3  A    between atoms: N_10  and  C_11
REMARK    4  A    between atoms: N_10  and  C_13
REMARK    5  A    between atoms: C_11  and  C_12
REMARK    6  A    between atoms: C_13  and  C_14
REMARK    7  A    between atoms: N_17  and  C_18
REMARK    8  A    between atoms: C_18  and  C_19
REMARK    9  A    between atoms: N_21  and  C_22
REMARK                            x       y       z     vdW  Elec       q    Type
REMARK                         _______ _______ _______ _____ _____    ______ ____
ROOT
ATOM      1  N   UNL     1      -3.011  10.563  17.387  0.00  0.00    +0.000 N 
ATOM      2  C   UNL     1      -4.007  11.238  18.101  0.00  0.00    +0.000 A 
ATOM      3  O   UNL     1      -5.202  11.170  17.814  0.00  0.00    +0.000 OA
ATOM      4  C   UNL     1      -3.497  11.993  19.200  0.00  0.00    +0.000 A 
ATOM      5  S   UNL     1      -4.430  12.796  20.358  0.00  0.00    +0.000 S 
ATOM      6  C   UNL     1      -2.972  13.354  21.134  0.00  0.00    +0.000 A 
ATOM      7  N   UNL     1      -3.004  14.169  22.233  0.00  0.00    +0.000 N 
ATOM      8  N   UNL     1      -1.864  12.952  20.530  0.00  0.00    +0.000 NA
ATOM      9  C   UNL     1      -2.169  12.127  19.471  0.00  0.00    +0.000 A 
ATOM     10  N   UNL     1      -1.232  11.417  18.738  0.00  0.00    +0.000 N 
ATOM     11  C   UNL     1      -1.667  10.492  17.779  0.00  0.00    +0.000 A 
ATOM     12  O   UNL     1      -0.892   9.643  17.328  0.00  0.00    +0.000 OA
ENDROOT
BRANCH   7  13
ATOM     13  C   UNL     1      -3.954  13.952  23.324  0.00  0.00    +0.000 C 
ATOM     14  C   UNL     1      -3.728  12.616  24.019  0.00  0.00    +0.000 C 
ENDBRANCH   7  13
BRANCH   7  15
ATOM     15  C   UNL     1      -1.902  15.102  22.454  0.00  0.00    +0.000 C 
ATOM     16  C   UNL     1      -2.116  16.442  21.767  0.00  0.00    +0.000 C 
ENDBRANCH   7  15
BRANCH   1  17
ATOM     17  C   UNL     1      -3.427   9.770  16.239  0.00  0.00    +0.000 C 
BRANCH  17  19
ATOM     18  C   UNL     1      -3.081   9.990  13.747  0.00  0.00    +0.000 C 
ATOM     19  C   UNL     1      -3.180  10.542  14.965  0.00  0.00    +0.000 C 
ENDBRANCH  17  19
ENDBRANCH   1  17
BRANCH  10  20
ATOM     20  C   UNL     1       0.208  11.515  18.974  0.00  0.00    +0.000 C 
BRANCH  20  21
ATOM     21  C   UNL     1       0.755  10.159  19.466  0.00  0.00    +0.000 C 
ATOM     22  O   UNL     1       0.406   9.680  20.544  0.00  0.00    +0.000 OA
ATOM     23  N   UNL     1       1.645   9.556  18.577  0.00  0.00    +0.000 N 
ATOM     24  H   UNL     1       1.985  10.115  17.804  0.00  0.00    +0.000 HD
BRANCH  23  25
ATOM     25  C   UNL     1       2.194   8.252  18.701  0.00  0.00    +0.000 A 
ATOM     26  C   UNL     1       3.082   7.701  17.772  0.00  0.00    +0.000 A 
ATOM     27  C   UNL     1       3.618   6.418  17.947  0.00  0.00    +0.000 A 
ATOM     28  C   UNL     1       3.268   5.667  19.063  0.00  0.00    +0.000 A 
ATOM     29  C   UNL     1       2.389   6.210  19.990  0.00  0.00    +0.000 A 
ATOM     30  F   UNL     1       2.047   5.488  21.067  0.00  0.00    +0.000 F 
ATOM     31  C   UNL     1       1.850   7.488  19.827  0.00  0.00    +0.000 A 
ENDBRANCH  23  25
ENDBRANCH  20  21
ENDBRANCH  10  20
TORSDOF 7
ENDMDL
MODEL 6
REMARK VINA RESULT:      -6.1      3.243      7.891
REMARK  Name = 
REMARK  9 active torsions:
REMARK  status: ('A' for Active; 'I' for Inactive)
REMARK    1  A    between atoms: C_2  and  C_3
REMARK    2  A    between atoms: C_3  and  N_4
REMARK    3  A    between atoms: N_10  and  C_11
REMARK    4  A    between atoms: N_10  and  C_13
REMARK    5  A    between atoms: C_11  and  C_12
REMARK    6  A    between atoms: C_13  and  C_14
REMARK    7  A    between atoms: N_17  and  C_18
REMARK    8  A    between atoms: C_18  and  C_19
REMARK    9  A    between atoms: N_21  and  C_22
REMARK                            x       y       z     vdW  Elec       q    Type
REMARK                         _______ _______ _______ _____ _____    ______ ____
ROOT
ATOM      1  N   UNL     1       6.914   5.564  17.260  0.00  0.00    +0.000 N 
ATOM      2  C   UNL     1       7.412   5.653  15.956  0.00  0.00    +0.000 A 
ATOM      3  O   UNL     1       8.407   6.315  15.661  0.00  0.00    +0.000 OA
ATOM      4  C   UNL     1       6.664   4.885  15.014  0.00  0.00    +0.000 A 
ATOM      5  S   UNL     1       7.078   4.641  13.394  0.00  0.00    +0.000 S 
ATOM      6  C   UNL     1       5.634   3.689  13.177  0.00  0.00    +0.000 A 
ATOM      7  N   UNL     1       5.296   3.154  11.963  0.00  0.00    +0.000 N 
ATOM      8  N   UNL     1       4.898   3.586  14.273  0.00  0.00    +0.000 NA
ATOM      9  C   UNL     1       5.521   4.212  15.328  0.00  0.00    +0.000 A 
ATOM     10  N   UNL     1       5.089   4.147  16.642  0.00  0.00    +0.000 N 
ATOM     11  C   UNL     1       5.884   4.698  17.656  0.00  0.00    +0.000 A 
ATOM     12  O   UNL     1       5.688   4.405  18.839  0.00  0.00    +0.000 OA
ENDROOT
BRANCH   7  13
ATOM     13  C   UNL     1       6.293   2.533  11.092  0.00  0.00    +0.000 C 
ATOM     14  C   UNL     1       6.245   1.013  11.165  0.00  0.00    +0.000 C 
ENDBRANCH   7  13
BRANCH   7  15
ATOM     15  C   UNL     1       3.884   2.953  11.647  0.00  0.00    +0.000 C 
ATOM     16  C   UNL     1       3.461   3.654  10.364  0.00  0.00    +0.000 C 
ENDBRANCH   7  15
BRANCH   1  17
ATOM     17  C   UNL     1       7.603   6.320  18.297  0.00  0.00    +0.000 C 
BRANCH  17  19
ATOM     18  C   UNL     1       8.450   8.699  18.296  0.00  0.00    +0.000 C 
ATOM     19  C   UNL     1       7.499   7.798  18.008  0.00  0.00    +0.000 C 
ENDBRANCH  17  19
ENDBRANCH   1  17
BRANCH  10  20
ATOM     20  C   UNL     1       3.873   3.445  17.049  0.00  0.00    +0.000 C 
BRANCH  20  21
ATOM     21  C   UNL     1       2.813   4.460  17.525  0.00  0.00    +0.000 C 
ATOM     22  O   UNL     1       1.612   4.190  17.506  0.00  0.00    +0.000 OA
ATOM     23  N   UNL     1       3.352   5.665  17.977  0.00  0.00    +0.000 N 
ATOM     24  H   UNL     1       4.332   5.838  17.793  0.00  0.00    +0.000 HD
BRANCH  23  25
ATOM     25  C   UNL     1       2.631   6.720  18.598  0.00  0.00    +0.000 A 
ATOM     26  C   UNL     1       2.230   6.691  19.937  0.00  0.00    +0.000 A 
ATOM     27  C   UNL     1       1.542   7.766  20.516  0.00  0.00    +0.000 A 
ATOM     28  C   UNL     1       1.246   8.890  19.755  0.00  0.00    +0.000 A 
ATOM     29  C   UNL     1       1.644   8.926  18.425  0.00  0.00    +0.000 A 
ATOM     30  F   UNL     1       1.358  10.008  17.686  0.00  0.00    +0.000 F 
ATOM     31  C   UNL     1       2.332   7.862  17.838  0.00  0.00    +0.000 A 
ENDBRANCH  23  25
ENDBRANCH  20  21
ENDBRANCH  10  20
TORSDOF 7
ENDMDL
MODEL 7
REMARK VINA RESULT:      -6.1      5.014      8.582
REMARK  Name = 
REMARK  9 active torsions:
REMARK  status: ('A' for Active; 'I' for Inactive)
REMARK    1  A    between atoms: C_2  and  C_3
REMARK    2  A    between atoms: C_3  and  N_4
REMARK    3  A    between atoms: N_10  and  C_11
REMARK    4  A    between atoms: N_10  and  C_13
REMARK    5  A    between atoms: C_11  and  C_12
REMARK    6  A    between atoms: C_13  and  C_14
REMARK    7  A    between atoms: N_17  and  C_18
REMARK    8  A    between atoms: C_18  and  C_19
REMARK    9  A    between atoms: N_21  and  C_22
REMARK                            x       y       z     vdW  Elec       q    Type
REMARK                         _______ _______ _______ _____ _____    ______ ____
ROOT
ATOM      1  N   UNL     1      -3.118  10.872  17.687  0.00  0.00    +0.000 N 
ATOM      2  C   UNL     1      -3.981  11.598  18.515  0.00  0.00    +0.000 A 
ATOM      3  O   UNL     1      -5.193  11.676  18.318  0.00  0.00    +0.000 OA
ATOM      4  C   UNL     1      -3.316  12.217  19.617  0.00  0.00    +0.000 A 
ATOM      5  S   UNL     1      -4.072  13.031  20.890  0.00  0.00    +0.000 S 
ATOM      6  C   UNL     1      -2.511  13.377  21.585  0.00  0.00    +0.000 A 
ATOM      7  N   UNL     1      -2.376  14.113  22.730  0.00  0.00    +0.000 N 
ATOM      8  N   UNL     1      -1.499  12.904  20.874  0.00  0.00    +0.000 NA
ATOM      9  C   UNL     1      -1.965  12.191  19.792  0.00  0.00    +0.000 A 
ATOM     10  N   UNL     1      -1.166  11.439  18.948  0.00  0.00    +0.000 N 
ATOM     11  C   UNL     1      -1.765  10.634  17.970  0.00  0.00    +0.000 A 
ATOM     12  O   UNL     1      -1.122   9.741  17.410  0.00  0.00    +0.000 OA
ENDROOT
BRANCH   7  13
ATOM     13  C   UNL     1      -3.266  13.922  23.876  0.00  0.00    +0.000 C 
ATOM     14  C   UNL     1      -4.031  15.194  24.220  0.00  0.00    +0.000 C 
ENDBRANCH   7  13
BRANCH   7  15
ATOM     15  C   UNL     1      -1.166  14.907  22.924  0.00  0.00    +0.000 C 
ATOM     16  C   UNL     1      -1.185  16.213  22.144  0.00  0.00    +0.000 C 
ENDBRANCH   7  15
BRANCH   1  17
ATOM     17  C   UNL     1      -3.698  10.209  16.528  0.00  0.00    +0.000 C 
BRANCH  17  19
ATOM     18  C   UNL     1      -3.095  10.137  14.077  0.00  0.00    +0.000 C 
ATOM     19  C   UNL     1      -3.089  10.764  15.262  0.00  0.00    +0.000 C 
ENDBRANCH  17  19
ENDBRANCH   1  17
BRANCH  10  20
ATOM     20  C   UNL     1       0.289  11.368  19.078  0.00  0.00    +0.000 C 
BRANCH  20  21
ATOM     21  C   UNL     1       0.701   9.995  19.647  0.00  0.00    +0.000 C 
ATOM     22  O   UNL     1       0.252   9.582  20.716  0.00  0.00    +0.000 OA
ATOM     23  N   UNL     1       1.597   9.296  18.836  0.00  0.00    +0.000 N 
ATOM     24  H   UNL     1       2.024   9.800  18.069  0.00  0.00    +0.000 HD
BRANCH  23  25
ATOM     25  C   UNL     1       2.037   7.961  19.037  0.00  0.00    +0.000 A 
ATOM     26  C   UNL     1       1.857   7.266  20.237  0.00  0.00    +0.000 A 
ATOM     27  C   UNL     1       2.285   5.940  20.384  0.00  0.00    +0.000 A 
ATOM     28  C   UNL     1       2.904   5.290  19.322  0.00  0.00    +0.000 A 
ATOM     29  C   UNL     1       3.083   5.974  18.127  0.00  0.00    +0.000 A 
ATOM     30  F   UNL     1       3.681   5.351  17.101  0.00  0.00    +0.000 F 
ATOM     31  C   UNL     1       2.658   7.295  17.969  0.00  0.00    +0.000 A 
ENDBRANCH  23  25
ENDBRANCH  20  21
ENDBRANCH  10  20
TORSDOF 7
ENDMDL
MODEL 8
REMARK VINA RESULT:      -6.0      5.003      9.408
REMARK  Name = 
REMARK  9 active torsions:
REMARK  status: ('A' for Active; 'I' for Inactive)
REMARK    1  A    between atoms: C_2  and  C_3
REMARK    2  A    between atoms: C_3  and  N_4
REMARK    3  A    between atoms: N_10  and  C_11
REMARK    4  A    between atoms: N_10  and  C_13
REMARK    5  A    between atoms: C_11  and  C_12
REMARK    6  A    between atoms: C_13  and  C_14
REMARK    7  A    between atoms: N_17  and  C_18
REMARK    8  A    between atoms: C_18  and  C_19
REMARK    9  A    between atoms: N_21  and  C_22
REMARK                            x       y       z     vdW  Elec       q    Type
REMARK                         _______ _______ _______ _____ _____    ______ ____
ROOT
ATOM      1  N   UNL     1      -0.911  11.058  22.102  0.00  0.00    +0.000 N 
ATOM      2  C   UNL     1      -0.091   9.976  22.438  0.00  0.00    +0.000 A 
ATOM      3  O   UNL     1       0.050   9.573  23.592  0.00  0.00    +0.000 OA
ATOM      4  C   UNL     1       0.545   9.379  21.307  0.00  0.00    +0.000 A 
ATOM      5  S   UNL     1       1.470   7.965  21.333  0.00  0.00    +0.000 S 
ATOM      6  C   UNL     1       1.758   8.133  19.622  0.00  0.00    +0.000 A 
ATOM      7  N   UNL     1       2.545   7.252  18.930  0.00  0.00    +0.000 N 
ATOM      8  N   UNL     1       1.187   9.204  19.091  0.00  0.00    +0.000 NA
ATOM      9  C   UNL     1       0.447   9.871  20.041  0.00  0.00    +0.000 A 
ATOM     10  N   UNL     1      -0.396  10.935  19.769  0.00  0.00    +0.000 N 
ATOM     11  C   UNL     1      -1.215  11.442  20.787  0.00  0.00    +0.000 A 
ATOM     12  O   UNL     1      -2.173  12.172  20.519  0.00  0.00    +0.000 OA
ENDROOT
BRANCH   7  13
ATOM     13  C   UNL     1       2.470   5.809  19.162  0.00  0.00    +0.000 C 
ATOM     14  C   UNL     1       1.712   5.093  18.052  0.00  0.00    +0.000 C 
ENDBRANCH   7  13
BRANCH   7  15
ATOM     15  C   UNL     1       3.273   7.724  17.756  0.00  0.00    +0.000 C 
ATOM     16  C   UNL     1       4.543   6.930  17.491  0.00  0.00    +0.000 C 
ENDBRANCH   7  15
BRANCH   1  17
ATOM     17  C   UNL     1      -1.599  11.743  23.187  0.00  0.00    +0.000 C 
BRANCH  17  19
ATOM     18  C   UNL     1      -1.854  14.189  23.758  0.00  0.00    +0.000 C 
ATOM     19  C   UNL     1      -1.125  13.174  23.272  0.00  0.00    +0.000 C 
ENDBRANCH  17  19
ENDBRANCH   1  17
BRANCH  10  20
ATOM     20  C   UNL     1      -0.548  11.514  18.435  0.00  0.00    +0.000 C 
BRANCH  20  21
ATOM     21  C   UNL     1       0.155  12.885  18.371  0.00  0.00    +0.000 C 
ATOM     22  O   UNL     1      -0.465  13.913  18.101  0.00  0.00    +0.000 OA
ATOM     23  N   UNL     1       1.520  12.831  18.659  0.00  0.00    +0.000 N 
ATOM     24  H   UNL     1       1.953  11.917  18.702  0.00  0.00    +0.000 HD
BRANCH  23  25
ATOM     25  C   UNL     1       2.386  13.947  18.810  0.00  0.00    +0.000 A 
ATOM     26  C   UNL     1       2.142  14.991  19.708  0.00  0.00    +0.000 A 
ATOM     27  C   UNL     1       3.036  16.061  19.843  0.00  0.00    +0.000 A 
ATOM     28  C   UNL     1       4.194  16.098  19.074  0.00  0.00    +0.000 A 
ATOM     29  C   UNL     1       4.442  15.063  18.183  0.00  0.00    +0.000 A 
ATOM     30  F   UNL     1       5.557  15.096  17.438  0.00  0.00    +0.000 F 
ATOM     31  C   UNL     1       3.559  13.990  18.041  0.00  0.00    +0.000 A 
ENDBRANCH  23  25
ENDBRANCH  20  21
ENDBRANCH  10  20
TORSDOF 7
ENDMDL
MODEL 9
REMARK VINA RESULT:      -5.9      5.235      9.505
REMARK  Name = 
REMARK  9 active torsions:
REMARK  status: ('A' for Active; 'I' for Inactive)
REMARK    1  A    between atoms: C_2  and  C_3
REMARK    2  A    between atoms: C_3  and  N_4
REMARK    3  A    between atoms: N_10  and  C_11
REMARK    4  A    between atoms: N_10  and  C_13
REMARK    5  A    between atoms: C_11  and  C_12
REMARK    6  A    between atoms: C_13  and  C_14
REMARK    7  A    between atoms: N_17  and  C_18
REMARK    8  A    between atoms: C_18  and  C_19
REMARK    9  A    between atoms: N_21  and  C_22
REMARK                            x       y       z     vdW  Elec       q    Type
REMARK                         _______ _______ _______ _____ _____    ______ ____
ROOT
ATOM      1  N   UNL     1      -0.871  11.130  22.079  0.00  0.00    +0.000 N 
ATOM      2  C   UNL     1      -0.092  10.018  22.415  0.00  0.00    +0.000 A 
ATOM      3  O   UNL     1       0.013   9.596  23.566  0.00  0.00    +0.000 OA
ATOM      4  C   UNL     1       0.547   9.417  21.289  0.00  0.00    +0.000 A 
ATOM      5  S   UNL     1       1.427   7.975  21.312  0.00  0.00    +0.000 S 
ATOM      6  C   UNL     1       1.754   8.157  19.610  0.00  0.00    +0.000 A 
ATOM      7  N   UNL     1       2.527   7.261  18.921  0.00  0.00    +0.000 N 
ATOM      8  N   UNL     1       1.228   9.252  19.084  0.00  0.00    +0.000 NA
ATOM      9  C   UNL     1       0.490   9.929  20.028  0.00  0.00    +0.000 A 
ATOM     10  N   UNL     1      -0.314  11.023  19.755  0.00  0.00    +0.000 N 
ATOM     11  C   UNL     1      -1.137  11.541  20.764  0.00  0.00    +0.000 A 
ATOM     12  O   UNL     1      -2.067  12.304  20.488  0.00  0.00    +0.000 OA
ENDROOT
BRANCH   7  13
ATOM     13  C   UNL     1       2.403   5.818  19.131  0.00  0.00    +0.000 C 
ATOM     14  C   UNL     1       1.675   5.137  17.980  0.00  0.00    +0.000 C 
ENDBRANCH   7  13
BRANCH   7  15
ATOM     15  C   UNL     1       3.293   7.726  17.768  0.00  0.00    +0.000 C 
ATOM     16  C   UNL     1       4.552   6.907  17.527  0.00  0.00    +0.000 C 
ENDBRANCH   7  15
BRANCH   1  17
ATOM     17  C   UNL     1      -1.559  11.822  23.160  0.00  0.00    +0.000 C 
BRANCH  17  19
ATOM     18  C   UNL     1      -1.689  14.217  23.949  0.00  0.00    +0.000 C 
ATOM     19  C   UNL     1      -1.088  13.254  23.234  0.00  0.00    +0.000 C 
ENDBRANCH  17  19
ENDBRANCH   1  17
BRANCH  10  20
ATOM     20  C   UNL     1      -0.421  11.624  18.426  0.00  0.00    +0.000 C 
BRANCH  20  21
ATOM     21  C   UNL     1       0.312  12.981  18.401  0.00  0.00    +0.000 C 
ATOM     22  O   UNL     1      -0.302  14.040  18.279  0.00  0.00    +0.000 OA
ATOM     23  N   UNL     1       1.697  12.875  18.541  0.00  0.00    +0.000 N 
ATOM     24  H   UNL     1       2.105  11.951  18.466  0.00  0.00    +0.000 HD
BRANCH  23  25
ATOM     25  C   UNL     1       2.606  13.955  18.691  0.00  0.00    +0.000 A 
ATOM     26  C   UNL     1       2.958  14.814  17.644  0.00  0.00    +0.000 A 
ATOM     27  C   UNL     1       3.840  15.883  17.844  0.00  0.00    +0.000 A 
ATOM     28  C   UNL     1       4.385  16.107  19.103  0.00  0.00    +0.000 A 
ATOM     29  C   UNL     1       4.039  15.259  20.146  0.00  0.00    +0.000 A 
ATOM     30  F   UNL     1       4.564  15.470  21.361  0.00  0.00    +0.000 F 
ATOM     31  C   UNL     1       3.158  14.191  19.960  0.00  0.00    +0.000 A 
ENDBRANCH  23  25
ENDBRANCH  20  21
ENDBRANCH  10  20
TORSDOF 7
ENDMDL
