MODEL 1
REMARK VINA RESULT:      -7.7      0.000      0.000
REMARK  Name = 
REMARK  8 active torsions:
REMARK  status: ('A' for Active; 'I' for Inactive)
REMARK    1  A    between atoms: C_1  and  C_2
REMARK    2  A    between atoms: C_2  and  C_3
REMARK    3  A    between atoms: C_3  and  C_4
REMARK    4  A    between atoms: C_4  and  O_5
REMARK    5  A    between atoms: O_5  and  C_6
REMARK    6  A    between atoms: C_9  and  C_10
REMARK    7  A    between atoms: C_16  and  C_17
REMARK    8  A    between atoms: C_17  and  C_18
REMARK                            x       y       z     vdW  Elec       q    Type
REMARK                         _______ _______ _______ _____ _____    ______ ____
ROOT
ATOM      1  C   UNL     1       4.613   5.187  19.236  0.00  0.00    +0.000 C 
ATOM      2  C   UNL     1       3.751   4.236  19.625  0.00  0.00    +0.000 C 
ATOM      3  C   UNL     1       3.593   2.889  19.020  0.00  0.00    +0.000 C 
ATOM      4  O   UNL     1       4.050   2.484  17.970  0.00  0.00    +0.000 OA
ATOM      5  O   UNL     1       2.817   2.156  19.865  0.00  0.00    +0.000 OA
ATOM      6  C   UNL     1       2.612   2.867  21.087  0.00  0.00    +0.000 C 
ATOM      7  C   UNL     1       2.783   4.339  20.767  0.00  0.00    +0.000 C 
ENDROOT
BRANCH   1  11
ATOM      8  C   UNL     1       6.888   5.252  15.619  0.00  0.00    +0.000 A 
ATOM      9  C   UNL     1       5.596   5.773  15.695  0.00  0.00    +0.000 A 
ATOM     10  C   UNL     1       4.875   5.732  16.880  0.00  0.00    +0.000 A 
ATOM     11  C   UNL     1       5.426   5.154  18.022  0.00  0.00    +0.000 A 
ATOM     12  C   UNL     1       6.708   4.596  17.955  0.00  0.00    +0.000 A 
ATOM     13  C   UNL     1       7.439   4.647  16.754  0.00  0.00    +0.000 A 
BRANCH   8  14
ATOM     14  O   UNL     1       7.662   5.306  14.482  0.00  0.00    +0.000 OA
BRANCH  14  15
ATOM     15  C   UNL     1       6.950   4.966  13.283  0.00  0.00    +0.000 C 
BRANCH  15  16
ATOM     16  C   UNL     1       6.170   3.675  13.457  0.00  0.00    +0.000 C 
BRANCH  16  18
ATOM     17  C   UNL     1       4.472   3.316  11.646  0.00  0.00    +0.000 C 
ATOM     18  C   UNL     1       5.896   3.027  12.098  0.00  0.00    +0.000 C 
ENDBRANCH  16  18
ENDBRANCH  15  16
ENDBRANCH  14  15
ENDBRANCH   8  14
ENDBRANCH   1  11
BRANCH   7  19
ATOM     19  C   UNL     1       1.447   4.995  20.350  0.00  0.00    +0.000 C 
BRANCH  19  20
ATOM     20  C   UNL     1       1.579   6.420  19.849  0.00  0.00    +0.000 A 
ATOM     21  C   UNL     1       1.464   7.519  20.712  0.00  0.00    +0.000 A 
ATOM     22  C   UNL     1       1.616   8.823  20.229  0.00  0.00    +0.000 A 
ATOM     23  C   UNL     1       1.908   9.044  18.884  0.00  0.00    +0.000 A 
ATOM     24  C   UNL     1       2.016   7.963  18.014  0.00  0.00    +0.000 A 
ATOM     25  C   UNL     1       1.839   6.661  18.490  0.00  0.00    +0.000 A 
ENDBRANCH  19  20
ENDBRANCH   7  19
TORSDOF 7
ENDMDL
MODEL 2
REMARK VINA RESULT:      -7.5      0.498      1.082
REMARK  Name = 
REMARK  8 active torsions:
REMARK  status: ('A' for Active; 'I' for Inactive)
REMARK    1  A    between atoms: C_1  and  C_2
REMARK    2  A    between atoms: C_2  and  C_3
REMARK    3  A    between atoms: C_3  and  C_4
REMARK    4  A    between atoms: C_4  and  O_5
REMARK    5  A    between atoms: O_5  and  C_6
REMARK    6  A    between atoms: C_9  and  C_10
REMARK    7  A    between atoms: C_16  and  C_17
REMARK    8  A    between atoms: C_17  and  C_18
REMARK                            x       y       z     vdW  Elec       q    Type
REMARK                         _______ _______ _______ _____ _____    ______ ____
ROOT
ATOM      1  C   UNL     1       4.528   5.351  19.332  0.00  0.00    +0.000 C 
ATOM      2  C   UNL     1       3.646   4.451  19.789  0.00  0.00    +0.000 C 
ATOM      3  C   UNL     1       3.479   3.057  19.305  0.00  0.00    +0.000 C 
ATOM      4  O   UNL     1       3.947   2.553  18.304  0.00  0.00    +0.000 OA
ATOM      5  O   UNL     1       2.676   2.414  20.197  0.00  0.00    +0.000 OA
ATOM      6  C   UNL     1       2.461   3.235  21.347  0.00  0.00    +0.000 C 
ATOM      7  C   UNL     1       2.660   4.669  20.899  0.00  0.00    +0.000 C 
ENDROOT
BRANCH   1  11
ATOM      8  C   UNL     1       6.864   5.056  15.765  0.00  0.00    +0.000 A 
ATOM      9  C   UNL     1       5.569   5.576  15.766  0.00  0.00    +0.000 A 
ATOM     10  C   UNL     1       4.829   5.654  16.937  0.00  0.00    +0.000 A 
ATOM     11  C   UNL     1       5.362   5.197  18.141  0.00  0.00    +0.000 A 
ATOM     12  C   UNL     1       6.647   4.642  18.153  0.00  0.00    +0.000 A 
ATOM     13  C   UNL     1       7.398   4.573  16.965  0.00  0.00    +0.000 A 
BRANCH   8  14
ATOM     14  O   UNL     1       7.657   4.996  14.641  0.00  0.00    +0.000 OA
BRANCH  14  15
ATOM     15  C   UNL     1       6.926   5.121  13.413  0.00  0.00    +0.000 C 
BRANCH  15  16
ATOM     16  C   UNL     1       6.561   3.758  12.853  0.00  0.00    +0.000 C 
BRANCH  16  18
ATOM     17  C   UNL     1       4.588   3.125  11.439  0.00  0.00    +0.000 C 
ATOM     18  C   UNL     1       5.041   3.582  12.818  0.00  0.00    +0.000 C 
ENDBRANCH  16  18
ENDBRANCH  15  16
ENDBRANCH  14  15
ENDBRANCH   8  14
ENDBRANCH   1  11
BRANCH   7  19
ATOM     19  C   UNL     1       1.342   5.303  20.399  0.00  0.00    +0.000 C 
BRANCH  19  20
ATOM     20  C   UNL     1       1.440   6.781  20.074  0.00  0.00    +0.000 A 
ATOM     21  C   UNL     1       1.857   7.232  18.813  0.00  0.00    +0.000 A 
ATOM     22  C   UNL     1       1.914   8.601  18.531  0.00  0.00    +0.000 A 
ATOM     23  C   UNL     1       1.533   9.533  19.493  0.00  0.00    +0.000 A 
ATOM     24  C   UNL     1       1.125   9.100  20.751  0.00  0.00    +0.000 A 
ATOM     25  C   UNL     1       1.093   7.735  21.044  0.00  0.00    +0.000 A 
ENDBRANCH  19  20
ENDBRANCH   7  19
TORSDOF 7
ENDMDL
MODEL 3
REMARK VINA RESULT:      -7.4      0.345      1.020
REMARK  Name = 
REMARK  8 active torsions:
REMARK  status: ('A' for Active; 'I' for Inactive)
REMARK    1  A    between atoms: C_1  and  C_2
REMARK    2  A    between atoms: C_2  and  C_3
REMARK    3  A    between atoms: C_3  and  C_4
REMARK    4  A    between atoms: C_4  and  O_5
REMARK    5  A    between atoms: O_5  and  C_6
REMARK    6  A    between atoms: C_9  and  C_10
REMARK    7  A    between atoms: C_16  and  C_17
REMARK    8  A    between atoms: C_17  and  C_18
REMARK                            x       y       z     vdW  Elec       q    Type
REMARK                         _______ _______ _______ _____ _____    ______ ____
ROOT
ATOM      1  C   UNL     1       4.538   5.227  19.425  0.00  0.00    +0.000 C 
ATOM      2  C   UNL     1       3.671   4.257  19.747  0.00  0.00    +0.000 C 
ATOM      3  C   UNL     1       3.500   2.958  19.045  0.00  0.00    +0.000 C 
ATOM      4  O   UNL     1       3.949   2.628  17.967  0.00  0.00    +0.000 OA
ATOM      5  O   UNL     1       2.721   2.171  19.838  0.00  0.00    +0.000 OA
ATOM      6  C   UNL     1       2.527   2.792  21.110  0.00  0.00    +0.000 C 
ATOM      7  C   UNL     1       2.708   4.282  20.898  0.00  0.00    +0.000 C 
ENDROOT
BRANCH   1  11
ATOM      8  C   UNL     1       7.001   5.209  15.933  0.00  0.00    +0.000 A 
ATOM      9  C   UNL     1       7.429   4.672  17.148  0.00  0.00    +0.000 A 
ATOM     10  C   UNL     1       6.612   4.698  18.269  0.00  0.00    +0.000 A 
ATOM     11  C   UNL     1       5.346   5.277  18.207  0.00  0.00    +0.000 A 
ATOM     12  C   UNL     1       4.914   5.849  17.006  0.00  0.00    +0.000 A 
ATOM     13  C   UNL     1       5.741   5.814  15.868  0.00  0.00    +0.000 A 
BRANCH   8  14
ATOM     14  O   UNL     1       7.753   5.171  14.780  0.00  0.00    +0.000 OA
BRANCH  14  15
ATOM     15  C   UNL     1       6.968   5.103  13.581  0.00  0.00    +0.000 C 
BRANCH  15  16
ATOM     16  C   UNL     1       6.348   3.727  13.410  0.00  0.00    +0.000 C 
BRANCH  16  18
ATOM     17  C   UNL     1       5.274   2.426  11.554  0.00  0.00    +0.000 C 
ATOM     18  C   UNL     1       6.485   3.253  11.961  0.00  0.00    +0.000 C 
ENDBRANCH  16  18
ENDBRANCH  15  16
ENDBRANCH  14  15
ENDBRANCH   8  14
ENDBRANCH   1  11
BRANCH   7  19
ATOM     19  C   UNL     1       1.376   4.977  20.536  0.00  0.00    +0.000 C 
BRANCH  19  20
ATOM     20  C   UNL     1       1.529   6.389  20.002  0.00  0.00    +0.000 A 
ATOM     21  C   UNL     1       1.399   7.509  20.835  0.00  0.00    +0.000 A 
ATOM     22  C   UNL     1       1.572   8.799  20.322  0.00  0.00    +0.000 A 
ATOM     23  C   UNL     1       1.900   8.984  18.981  0.00  0.00    +0.000 A 
ATOM     24  C   UNL     1       2.023   7.881  18.141  0.00  0.00    +0.000 A 
ATOM     25  C   UNL     1       1.825   6.593  18.645  0.00  0.00    +0.000 A 
ENDBRANCH  19  20
ENDBRANCH   7  19
TORSDOF 7
ENDMDL
MODEL 4
REMARK VINA RESULT:      -7.4      3.815      8.883
REMARK  Name = 
REMARK  8 active torsions:
REMARK  status: ('A' for Active; 'I' for Inactive)
REMARK    1  A    between atoms: C_1  and  C_2
REMARK    2  A    between atoms: C_2  and  C_3
REMARK    3  A    between atoms: C_3  and  C_4
REMARK    4  A    between atoms: C_4  and  O_5
REMARK    5  A    between atoms: O_5  and  C_6
REMARK    6  A    between atoms: C_9  and  C_10
REMARK    7  A    between atoms: C_16  and  C_17
REMARK    8  A    between atoms: C_17  and  C_18
REMARK                            x       y       z     vdW  Elec       q    Type
REMARK                         _______ _______ _______ _____ _____    ______ ____
ROOT
ATOM      1  C   UNL     1       1.627   8.934  17.734  0.00  0.00    +0.000 C 
ATOM      2  C   UNL     1       2.197   7.868  18.313  0.00  0.00    +0.000 C 
ATOM      3  C   UNL     1       2.110   7.494  19.749  0.00  0.00    +0.000 C 
ATOM      4  O   UNL     1       1.698   8.167  20.672  0.00  0.00    +0.000 OA
ATOM      5  O   UNL     1       2.594   6.226  19.865  0.00  0.00    +0.000 OA
ATOM      6  C   UNL     1       2.813   5.662  18.570  0.00  0.00    +0.000 C 
ATOM      7  C   UNL     1       3.023   6.825  17.620  0.00  0.00    +0.000 C 
ENDROOT
BRANCH   1  11
ATOM      8  C   UNL     1      -0.425  12.032  19.844  0.00  0.00    +0.000 A 
ATOM      9  C   UNL     1      -1.087  10.916  19.331  0.00  0.00    +0.000 A 
ATOM     10  C   UNL     1      -0.399   9.928  18.643  0.00  0.00    +0.000 A 
ATOM     11  C   UNL     1       0.975  10.038  18.436  0.00  0.00    +0.000 A 
ATOM     12  C   UNL     1       1.650  11.167  18.915  0.00  0.00    +0.000 A 
ATOM     13  C   UNL     1       0.950  12.163  19.620  0.00  0.00    +0.000 A 
BRANCH   8  14
ATOM     14  O   UNL     1      -1.052  13.018  20.572  0.00  0.00    +0.000 OA
BRANCH  14  15
ATOM     15  C   UNL     1      -0.485  13.225  21.873  0.00  0.00    +0.000 C 
BRANCH  15  16
ATOM     16  C   UNL     1      -1.545  13.121  22.955  0.00  0.00    +0.000 C 
BRANCH  16  18
ATOM     17  C   UNL     1      -0.926  10.696  23.125  0.00  0.00    +0.000 C 
ATOM     18  C   UNL     1      -2.077  11.689  23.050  0.00  0.00    +0.000 C 
ENDBRANCH  16  18
ENDBRANCH  15  16
ENDBRANCH  14  15
ENDBRANCH   8  14
ENDBRANCH   1  11
BRANCH   7  19
ATOM     19  C   UNL     1       4.512   7.223  17.520  0.00  0.00    +0.000 C 
BRANCH  19  20
ATOM     20  C   UNL     1       5.390   6.202  16.823  0.00  0.00    +0.000 A 
ATOM     21  C   UNL     1       6.392   5.500  17.508  0.00  0.00    +0.000 A 
ATOM     22  C   UNL     1       7.170   4.544  16.847  0.00  0.00    +0.000 A 
ATOM     23  C   UNL     1       6.940   4.260  15.503  0.00  0.00    +0.000 A 
ATOM     24  C   UNL     1       5.954   4.954  14.808  0.00  0.00    +0.000 A 
ATOM     25  C   UNL     1       5.194   5.928  15.459  0.00  0.00    +0.000 A 
ENDBRANCH  19  20
ENDBRANCH   7  19
TORSDOF 7
ENDMDL
MODEL 5
REMARK VINA RESULT:      -7.3      3.788      5.686
REMARK  Name = 
REMARK  8 active torsions:
REMARK  status: ('A' for Active; 'I' for Inactive)
REMARK    1  A    between atoms: C_1  and  C_2
REMARK    2  A    between atoms: C_2  and  C_3
REMARK    3  A    between atoms: C_3  and  C_4
REMARK    4  A    between atoms: C_4  and  O_5
REMARK    5  A    between atoms: O_5  and  C_6
REMARK    6  A    between atoms: C_9  and  C_10
REMARK    7  A    between atoms: C_16  and  C_17
REMARK    8  A    between atoms: C_17  and  C_18
REMARK                            x       y       z     vdW  Elec       q    Type
REMARK                         _______ _______ _______ _____ _____    ______ ____
ROOT
ATOM      1  C   UNL     1       1.384   8.891  17.888  0.00  0.00    +0.000 C 
ATOM      2  C   UNL     1       0.897   9.441  19.009  0.00  0.00    +0.000 C 
ATOM      3  C   UNL     1       1.288   9.097  20.401  0.00  0.00    +0.000 C 
ATOM      4  O   UNL     1       1.942   8.146  20.779  0.00  0.00    +0.000 OA
ATOM      5  O   UNL     1       0.765  10.055  21.215  0.00  0.00    +0.000 OA
ATOM      6  C   UNL     1       0.219  11.121  20.434  0.00  0.00    +0.000 C 
ATOM      7  C   UNL     1      -0.130  10.533  19.081  0.00  0.00    +0.000 C 
ENDROOT
BRANCH   1  11
ATOM      8  C   UNL     1       4.067   5.568  17.743  0.00  0.00    +0.000 A 
ATOM      9  C   UNL     1       4.488   6.876  17.500  0.00  0.00    +0.000 A 
ATOM     10  C   UNL     1       3.595   7.936  17.546  0.00  0.00    +0.000 A 
ATOM     11  C   UNL     1       2.248   7.713  17.823  0.00  0.00    +0.000 A 
ATOM     12  C   UNL     1       1.802   6.404  18.036  0.00  0.00    +0.000 A 
ATOM     13  C   UNL     1       2.712   5.332  17.998  0.00  0.00    +0.000 A 
BRANCH   8  14
ATOM     14  O   UNL     1       4.919   4.486  17.754  0.00  0.00    +0.000 OA
BRANCH  14  15
ATOM     15  C   UNL     1       6.304   4.842  17.645  0.00  0.00    +0.000 C 
BRANCH  15  16
ATOM     16  C   UNL     1       6.933   4.222  16.410  0.00  0.00    +0.000 C 
BRANCH  16  18
ATOM     17  C   UNL     1       5.920   4.141  14.116  0.00  0.00    +0.000 C 
ATOM     18  C   UNL     1       6.576   5.032  15.161  0.00  0.00    +0.000 C 
ENDBRANCH  16  18
ENDBRANCH  15  16
ENDBRANCH  14  15
ENDBRANCH   8  14
ENDBRANCH   1  11
BRANCH   7  19
ATOM     19  C   UNL     1      -1.575   9.985  19.048  0.00  0.00    +0.000 C 
BRANCH  19  20
ATOM     20  C   UNL     1      -2.349  10.335  17.792  0.00  0.00    +0.000 A 
ATOM     21  C   UNL     1      -2.004   9.804  16.542  0.00  0.00    +0.000 A 
ATOM     22  C   UNL     1      -2.752  10.122  15.403  0.00  0.00    +0.000 A 
ATOM     23  C   UNL     1      -3.866  10.953  15.504  0.00  0.00    +0.000 A 
ATOM     24  C   UNL     1      -4.215  11.494  16.738  0.00  0.00    +0.000 A 
ATOM     25  C   UNL     1      -3.454  11.199  17.871  0.00  0.00    +0.000 A 
ENDBRANCH  19  20
ENDBRANCH   7  19
TORSDOF 7
ENDMDL
MODEL 6
REMARK VINA RESULT:      -7.3      3.904      6.138
REMARK  Name = 
REMARK  8 active torsions:
REMARK  status: ('A' for Active; 'I' for Inactive)
REMARK    1  A    between atoms: C_1  and  C_2
REMARK    2  A    between atoms: C_2  and  C_3
REMARK    3  A    between atoms: C_3  and  C_4
REMARK    4  A    between atoms: C_4  and  O_5
REMARK    5  A    between atoms: O_5  and  C_6
REMARK    6  A    between atoms: C_9  and  C_10
REMARK    7  A    between atoms: C_16  and  C_17
REMARK    8  A    between atoms: C_17  and  C_18
REMARK                            x       y       z     vdW  Elec       q    Type
REMARK                         _______ _______ _______ _____ _____    ______ ____
ROOT
ATOM      1  C   UNL     1       1.313   9.101  17.924  0.00  0.00    +0.000 C 
ATOM      2  C   UNL     1       0.805   9.622  19.050  0.00  0.00    +0.000 C 
ATOM      3  C   UNL     1       1.215   9.286  20.439  0.00  0.00    +0.000 C 
ATOM      4  O   UNL     1       1.912   8.363  20.809  0.00  0.00    +0.000 OA
ATOM      5  O   UNL     1       0.652  10.214  21.260  0.00  0.00    +0.000 OA
ATOM      6  C   UNL     1       0.057  11.260  20.488  0.00  0.00    +0.000 C 
ATOM      7  C   UNL     1      -0.270  10.665  19.132  0.00  0.00    +0.000 C 
ENDROOT
BRANCH   1  11
ATOM      8  C   UNL     1       3.830   5.657  17.668  0.00  0.00    +0.000 A 
ATOM      9  C   UNL     1       2.488   5.572  18.042  0.00  0.00    +0.000 A 
ATOM     10  C   UNL     1       1.694   6.707  18.125  0.00  0.00    +0.000 A 
ATOM     11  C   UNL     1       2.229   7.964  17.848  0.00  0.00    +0.000 A 
ATOM     12  C   UNL     1       3.581   8.071  17.504  0.00  0.00    +0.000 A 
ATOM     13  C   UNL     1       4.381   6.918  17.413  0.00  0.00    +0.000 A 
BRANCH   8  14
ATOM     14  O   UNL     1       4.649   4.560  17.528  0.00  0.00    +0.000 OA
BRANCH  14  15
ATOM     15  C   UNL     1       5.637   4.441  18.562  0.00  0.00    +0.000 C 
BRANCH  15  16
ATOM     16  C   UNL     1       7.024   4.761  18.034  0.00  0.00    +0.000 C 
BRANCH  16  18
ATOM     17  C   UNL     1       7.869   7.121  18.117  0.00  0.00    +0.000 C 
ATOM     18  C   UNL     1       7.696   5.828  18.901  0.00  0.00    +0.000 C 
ENDBRANCH  16  18
ENDBRANCH  15  16
ENDBRANCH  14  15
ENDBRANCH   8  14
ENDBRANCH   1  11
BRANCH   7  19
ATOM     19  C   UNL     1      -1.688  10.053  19.099  0.00  0.00    +0.000 C 
BRANCH  19  20
ATOM     20  C   UNL     1      -2.472  10.353  17.836  0.00  0.00    +0.000 A 
ATOM     21  C   UNL     1      -3.592  11.195  17.846  0.00  0.00    +0.000 A 
ATOM     22  C   UNL     1      -4.281  11.476  16.661  0.00  0.00    +0.000 A 
ATOM     23  C   UNL     1      -3.845  10.940  15.451  0.00  0.00    +0.000 A 
ATOM     24  C   UNL     1      -2.739  10.096  15.428  0.00  0.00    +0.000 A 
ATOM     25  C   UNL     1      -2.066   9.793  16.614  0.00  0.00    +0.000 A 
ENDBRANCH  19  20
ENDBRANCH   7  19
TORSDOF 7
ENDMDL
MODEL 7
REMARK VINA RESULT:      -7.3      3.688      8.582
REMARK  Name = 
REMARK  8 active torsions:
REMARK  status: ('A' for Active; 'I' for Inactive)
REMARK    1  A    between atoms: C_1  and  C_2
REMARK    2  A    between atoms: C_2  and  C_3
REMARK    3  A    between atoms: C_3  and  C_4
REMARK    4  A    between atoms: C_4  and  O_5
REMARK    5  A    between atoms: O_5  and  C_6
REMARK    6  A    between atoms: C_9  and  C_10
REMARK    7  A    between atoms: C_16  and  C_17
REMARK    8  A    between atoms: C_17  and  C_18
REMARK                            x       y       z     vdW  Elec       q    Type
REMARK                         _______ _______ _______ _____ _____    ______ ____
ROOT
ATOM      1  C   UNL     1       1.815   8.576  17.667  0.00  0.00    +0.000 C 
ATOM      2  C   UNL     1       2.219   7.583  18.473  0.00  0.00    +0.000 C 
ATOM      3  C   UNL     1       1.911   7.442  19.920  0.00  0.00    +0.000 C 
ATOM      4  O   UNL     1       1.431   8.271  20.665  0.00  0.00    +0.000 OA
ATOM      5  O   UNL     1       2.279   6.184  20.289  0.00  0.00    +0.000 OA
ATOM      6  C   UNL     1       2.628   5.414  19.136  0.00  0.00    +0.000 C 
ATOM      7  C   UNL     1       3.051   6.402  18.066  0.00  0.00    +0.000 C 
ENDROOT
BRANCH   1  11
ATOM      8  C   UNL     1      -0.270  12.071  18.970  0.00  0.00    +0.000 A 
ATOM      9  C   UNL     1      -0.935  10.955  18.461  0.00  0.00    +0.000 A 
ATOM     10  C   UNL     1      -0.233   9.835  18.038  0.00  0.00    +0.000 A 
ATOM     11  C   UNL     1       1.158   9.809  18.099  0.00  0.00    +0.000 A 
ATOM     12  C   UNL     1       1.843  10.933  18.575  0.00  0.00    +0.000 A 
ATOM     13  C   UNL     1       1.128  12.063  19.011  0.00  0.00    +0.000 A 
BRANCH   8  14
ATOM     14  O   UNL     1      -0.919  13.189  19.443  0.00  0.00    +0.000 OA
BRANCH  14  15
ATOM     15  C   UNL     1      -0.873  13.322  20.871  0.00  0.00    +0.000 C 
BRANCH  15  16
ATOM     16  C   UNL     1      -1.713  12.253  21.547  0.00  0.00    +0.000 C 
BRANCH  16  18
ATOM     17  C   UNL     1      -0.706  10.340  22.820  0.00  0.00    +0.000 C 
ATOM     18  C   UNL     1      -1.069  11.817  22.866  0.00  0.00    +0.000 C 
ENDBRANCH  16  18
ENDBRANCH  15  16
ENDBRANCH  14  15
ENDBRANCH   8  14
ENDBRANCH   1  11
BRANCH   7  19
ATOM     19  C   UNL     1       4.566   6.700  18.126  0.00  0.00    +0.000 C 
BRANCH  19  20
ATOM     20  C   UNL     1       5.398   5.920  17.127  0.00  0.00    +0.000 A 
ATOM     21  C   UNL     1       5.093   5.914  15.759  0.00  0.00    +0.000 A 
ATOM     22  C   UNL     1       5.893   5.206  14.855  0.00  0.00    +0.000 A 
ATOM     23  C   UNL     1       7.019   4.519  15.303  0.00  0.00    +0.000 A 
ATOM     24  C   UNL     1       7.329   4.509  16.660  0.00  0.00    +0.000 A 
ATOM     25  C   UNL     1       6.517   5.193  17.567  0.00  0.00    +0.000 A 
ENDBRANCH  19  20
ENDBRANCH   7  19
TORSDOF 7
ENDMDL
MODEL 8
REMARK VINA RESULT:      -7.2      0.588      1.515
REMARK  Name = 
REMARK  8 active torsions:
REMARK  status: ('A' for Active; 'I' for Inactive)
REMARK    1  A    between atoms: C_1  and  C_2
REMARK    2  A    between atoms: C_2  and  C_3
REMARK    3  A    between atoms: C_3  and  C_4
REMARK    4  A    between atoms: C_4  and  O_5
REMARK    5  A    between atoms: O_5  and  C_6
REMARK    6  A    between atoms: C_9  and  C_10
REMARK    7  A    between atoms: C_16  and  C_17
REMARK    8  A    between atoms: C_17  and  C_18
REMARK                            x       y       z     vdW  Elec       q    Type
REMARK                         _______ _______ _______ _____ _____    ______ ____
ROOT
ATOM      1  C   UNL     1       4.482   5.346  19.186  0.00  0.00    +0.000 C 
ATOM      2  C   UNL     1       3.656   4.378  19.610  0.00  0.00    +0.000 C 
ATOM      3  C   UNL     1       3.434   3.061  18.959  0.00  0.00    +0.000 C 
ATOM      4  O   UNL     1       3.786   2.707  17.852  0.00  0.00    +0.000 OA
ATOM      5  O   UNL     1       2.738   2.289  19.838  0.00  0.00    +0.000 OA
ATOM      6  C   UNL     1       2.655   2.942  21.107  0.00  0.00    +0.000 C 
ATOM      7  C   UNL     1       2.802   4.427  20.843  0.00  0.00    +0.000 C 
ENDROOT
BRANCH   1  11
ATOM      8  C   UNL     1       6.611   5.251  15.482  0.00  0.00    +0.000 A 
ATOM      9  C   UNL     1       7.135   4.707  16.655  0.00  0.00    +0.000 A 
ATOM     10  C   UNL     1       6.426   4.758  17.847  0.00  0.00    +0.000 A 
ATOM     11  C   UNL     1       5.176   5.370  17.899  0.00  0.00    +0.000 A 
ATOM     12  C   UNL     1       4.650   5.950  16.739  0.00  0.00    +0.000 A 
ATOM     13  C   UNL     1       5.367   5.889  15.530  0.00  0.00    +0.000 A 
BRANCH   8  14
ATOM     14  O   UNL     1       7.252   5.189  14.265  0.00  0.00    +0.000 OA
BRANCH  14  15
ATOM     15  C   UNL     1       7.114   3.923  13.603  0.00  0.00    +0.000 C 
BRANCH  15  16
ATOM     16  C   UNL     1       6.592   4.099  12.189  0.00  0.00    +0.000 C 
BRANCH  16  18
ATOM     17  C   UNL     1       5.762   1.866  11.403  0.00  0.00    +0.000 C 
ATOM     18  C   UNL     1       5.358   3.224  11.958  0.00  0.00    +0.000 C 
ENDBRANCH  16  18
ENDBRANCH  15  16
ENDBRANCH  14  15
ENDBRANCH   8  14
ENDBRANCH   1  11
BRANCH   7  19
ATOM     19  C   UNL     1       1.437   5.103  20.587  0.00  0.00    +0.000 C 
BRANCH  19  20
ATOM     20  C   UNL     1       1.522   6.577  20.238  0.00  0.00    +0.000 A 
ATOM     21  C   UNL     1       1.895   7.011  18.959  0.00  0.00    +0.000 A 
ATOM     22  C   UNL     1       1.940   8.376  18.656  0.00  0.00    +0.000 A 
ATOM     23  C   UNL     1       1.591   9.321  19.618  0.00  0.00    +0.000 A 
ATOM     24  C   UNL     1       1.227   8.904  20.896  0.00  0.00    +0.000 A 
ATOM     25  C   UNL     1       1.207   7.543  21.208  0.00  0.00    +0.000 A 
ENDBRANCH  19  20
ENDBRANCH   7  19
TORSDOF 7
ENDMDL
MODEL 9
REMARK VINA RESULT:      -7.2      3.805      6.344
REMARK  Name = 
REMARK  8 active torsions:
REMARK  status: ('A' for Active; 'I' for Inactive)
REMARK    1  A    between atoms: C_1  and  C_2
REMARK    2  A    between atoms: C_2  and  C_3
REMARK    3  A    between atoms: C_3  and  C_4
REMARK    4  A    between atoms: C_4  and  O_5
REMARK    5  A    between atoms: O_5  and  C_6
REMARK    6  A    between atoms: C_9  and  C_10
REMARK    7  A    between atoms: C_16  and  C_17
REMARK    8  A    between atoms: C_17  and  C_18
REMARK                            x       y       z     vdW  Elec       q    Type
REMARK                         _______ _______ _______ _____ _____    ______ ____
ROOT
ATOM      1  C   UNL     1       1.303   8.956  17.916  0.00  0.00    +0.000 C 
ATOM      2  C   UNL     1       0.882   9.548  19.042  0.00  0.00    +0.000 C 
ATOM      3  C   UNL     1       1.304   9.211  20.426  0.00  0.00    +0.000 C 
ATOM      4  O   UNL     1       1.926   8.237  20.800  0.00  0.00    +0.000 OA
ATOM      5  O   UNL     1       0.855  10.207  21.239  0.00  0.00    +0.000 OA
ATOM      6  C   UNL     1       0.333  11.283  20.457  0.00  0.00    +0.000 C 
ATOM      7  C   UNL     1      -0.090  10.688  19.128  0.00  0.00    +0.000 C 
ENDROOT
BRANCH   1  11
ATOM      8  C   UNL     1       3.820   5.506  17.758  0.00  0.00    +0.000 A 
ATOM      9  C   UNL     1       4.311   6.795  17.550  0.00  0.00    +0.000 A 
ATOM     10  C   UNL     1       3.471   7.898  17.599  0.00  0.00    +0.000 A 
ATOM     11  C   UNL     1       2.108   7.738  17.844  0.00  0.00    +0.000 A 
ATOM     12  C   UNL     1       1.593   6.449  18.021  0.00  0.00    +0.000 A 
ATOM     13  C   UNL     1       2.449   5.333  17.979  0.00  0.00    +0.000 A 
BRANCH   8  14
ATOM     14  O   UNL     1       4.616   4.383  17.763  0.00  0.00    +0.000 OA
BRANCH  14  15
ATOM     15  C   UNL     1       3.950   3.206  18.243  0.00  0.00    +0.000 C 
BRANCH  15  16
ATOM     16  C   UNL     1       4.390   2.866  19.656  0.00  0.00    +0.000 C 
BRANCH  16  18
ATOM     17  C   UNL     1       1.963   2.232  19.715  0.00  0.00    +0.000 C 
ATOM     18  C   UNL     1       3.174   2.619  20.552  0.00  0.00    +0.000 C 
ENDBRANCH  16  18
ENDBRANCH  15  16
ENDBRANCH  14  15
ENDBRANCH   8  14
ENDBRANCH   1  11
BRANCH   7  19
ATOM     19  C   UNL     1      -1.559  10.209  19.155  0.00  0.00    +0.000 C 
BRANCH  19  20
ATOM     20  C   UNL     1      -2.320  10.447  17.865  0.00  0.00    +0.000 A 
ATOM     21  C   UNL     1      -1.949   9.824  16.665  0.00  0.00    +0.000 A 
ATOM     22  C   UNL     1      -2.684  10.040  15.495  0.00  0.00    +0.000 A 
ATOM     23  C   UNL     1      -3.811  10.860  15.514  0.00  0.00    +0.000 A 
ATOM     24  C   UNL     1      -4.186  11.491  16.697  0.00  0.00    +0.000 A 
ATOM     25  C   UNL     1      -3.438  11.297  17.860  0.00  0.00    +0.000 A 
ENDBRANCH  19  20
ENDBRANCH   7  19
TORSDOF 7
ENDMDL
