MODEL 1
REMARK VINA RESULT:      -7.3      0.000      0.000
REMARK  Name = 
REMARK  10 active torsions:
REMARK  status: ('A' for Active; 'I' for Inactive)
REMARK    1  A    between atoms: C_1  and  C_2
REMARK    2  A    between atoms: C_2  and  C_3
REMARK    3  A    between atoms: C_3  and  C_4
REMARK    4  A    between atoms: N_6  and  S_7
REMARK    5  A    between atoms: S_7  and  C_8
REMARK    6  A    between atoms: C_12  and  N_13
REMARK    7  A    between atoms: C_14  and  C_16
REMARK    8  A    between atoms: C_19  and  C_20
REMARK    9  A    between atoms: C_20  and  O_21
REMARK   10  A    between atoms: O_21  and  C_22
REMARK                            x       y       z     vdW  Elec       q    Type
REMARK                         _______ _______ _______ _____ _____    ______ ____
ROOT
ATOM      1  N   UNL     1       3.114   6.889  18.446  0.00  0.00    +0.000 N 
ATOM      2  C   UNL     1       2.259   6.779  19.533  0.00  0.00    +0.000 C 
ATOM      3  O   UNL     1       2.003   5.708  20.070  0.00  0.00    +0.000 OA
ATOM      4  H   UNL     1       3.527   7.806  18.279  0.00  0.00    +0.000 HD
ENDROOT
BRANCH   2   5
ATOM      5  C   UNL     1       1.687   8.046  20.059  0.00  0.00    +0.000 A 
ATOM      6  C   UNL     1       1.440   8.194  21.427  0.00  0.00    +0.000 A 
ATOM      7  C   UNL     1       0.882   9.380  21.911  0.00  0.00    +0.000 A 
ATOM      8  C   UNL     1       0.590  10.432  21.036  0.00  0.00    +0.000 A 
ATOM      9  C   UNL     1       0.866  10.290  19.663  0.00  0.00    +0.000 A 
ATOM     10  C   UNL     1       1.424   9.103  19.179  0.00  0.00    +0.000 A 
BRANCH   8  11
ATOM     11  C   UNL     1      -0.048  11.693  21.567  0.00  0.00    +0.000 C 
BRANCH  11  12
ATOM     12  O   UNL     1      -0.436  11.496  22.924  0.00  0.00    +0.000 OA
ATOM     13  C   UNL     1      -1.849  11.562  23.074  0.00  0.00    +0.000 C 
ENDBRANCH  11  12
ENDBRANCH   8  11
ENDBRANCH   2   5
BRANCH   1  18
ATOM     14  C   UNL     1       4.929   5.278  19.022  0.00  0.00    +0.000 C 
ATOM     15  C   UNL     1       6.194   5.933  18.477  0.00  0.00    +0.000 C 
ATOM     16  N   UNL     1       6.081   5.898  17.002  0.00  0.00    +0.000 NA
ATOM     17  C   UNL     1       4.627   5.931  16.670  0.00  0.00    +0.000 C 
ATOM     18  C   UNL     1       3.857   5.711  18.006  0.00  0.00    +0.000 C 
BRANCH  16  19
ATOM     19  S   UNL     1       7.113   4.868  16.148  0.00  0.00    +0.000 S 
ATOM     20  C   UNL     1       6.013   3.645  15.451  0.00  0.00    +0.000 C 
ATOM     21  O   UNL     1       7.651   5.625  15.034  0.00  0.00    +0.000 OA
ATOM     22  O   UNL     1       7.992   4.207  17.085  0.00  0.00    +0.000 OA
ENDBRANCH  16  19
BRANCH  14  23
ATOM     23  C   UNL     1       4.982   3.743  19.096  0.00  0.00    +0.000 C 
BRANCH  23  25
ATOM     24  C   UNL     1       3.548   2.011  18.040  0.00  0.00    +0.000 C 
ATOM     25  C   UNL     1       3.645   3.004  19.193  0.00  0.00    +0.000 C 
ENDBRANCH  23  25
ENDBRANCH  14  23
ENDBRANCH   1  18
TORSDOF 7
ENDMDL
MODEL 2
REMARK VINA RESULT:      -7.2      0.191      1.008
REMARK  Name = 
REMARK  10 active torsions:
REMARK  status: ('A' for Active; 'I' for Inactive)
REMARK    1  A    between atoms: C_1  and  C_2
REMARK    2  A    between atoms: C_2  and  C_3
REMARK    3  A    between atoms: C_3  and  C_4
REMARK    4  A    between atoms: N_6  and  S_7
REMARK    5  A    between atoms: S_7  and  C_8
REMARK    6  A    between atoms: C_12  and  N_13
REMARK    7  A    between atoms: C_14  and  C_16
REMARK    8  A    between atoms: C_19  and  C_20
REMARK    9  A    between atoms: C_20  and  O_21
REMARK   10  A    between atoms: O_21  and  C_22
REMARK                            x       y       z     vdW  Elec       q    Type
REMARK                         _______ _______ _______ _____ _____    ______ ____
ROOT
ATOM      1  N   UNL     1       2.969   6.902  18.531  0.00  0.00    +0.000 N 
ATOM      2  C   UNL     1       2.209   6.806  19.689  0.00  0.00    +0.000 C 
ATOM      3  O   UNL     1       2.052   5.750  20.292  0.00  0.00    +0.000 OA
ATOM      4  H   UNL     1       3.320   7.828  18.290  0.00  0.00    +0.000 HD
ENDROOT
BRANCH   2   5
ATOM      5  C   UNL     1       1.618   8.067  20.203  0.00  0.00    +0.000 A 
ATOM      6  C   UNL     1       1.356   9.130  19.334  0.00  0.00    +0.000 A 
ATOM      7  C   UNL     1       0.821  10.322  19.829  0.00  0.00    +0.000 A 
ATOM      8  C   UNL     1       0.523  10.450  21.190  0.00  0.00    +0.000 A 
ATOM      9  C   UNL     1       0.761   9.368  22.058  0.00  0.00    +0.000 A 
ATOM     10  C   UNL     1       1.298   8.176  21.563  0.00  0.00    +0.000 A 
BRANCH   8  11
ATOM     11  C   UNL     1      -0.021  11.756  21.719  0.00  0.00    +0.000 C 
BRANCH  11  12
ATOM     12  O   UNL     1      -0.556  11.555  23.024  0.00  0.00    +0.000 OA
ATOM     13  C   UNL     1      -1.960  11.784  23.050  0.00  0.00    +0.000 C 
ENDBRANCH  11  12
ENDBRANCH   8  11
ENDBRANCH   2   5
BRANCH   1  18
ATOM     14  C   UNL     1       4.767   5.280  19.128  0.00  0.00    +0.000 C 
ATOM     15  C   UNL     1       6.049   5.955  18.653  0.00  0.00    +0.000 C 
ATOM     16  N   UNL     1       5.993   5.965  17.175  0.00  0.00    +0.000 NA
ATOM     17  C   UNL     1       4.554   6.004  16.787  0.00  0.00    +0.000 C 
ATOM     18  C   UNL     1       3.732   5.741  18.085  0.00  0.00    +0.000 C 
BRANCH  16  19
ATOM     19  S   UNL     1       7.062   4.966  16.330  0.00  0.00    +0.000 S 
ATOM     20  C   UNL     1       6.002   3.722  15.608  0.00  0.00    +0.000 C 
ATOM     21  O   UNL     1       7.600   5.742  15.230  0.00  0.00    +0.000 OA
ATOM     22  O   UNL     1       7.942   4.319  17.277  0.00  0.00    +0.000 OA
ENDBRANCH  16  19
BRANCH  14  23
ATOM     23  C   UNL     1       4.823   3.744  19.157  0.00  0.00    +0.000 C 
BRANCH  23  25
ATOM     24  C   UNL     1       3.627   1.893  18.009  0.00  0.00    +0.000 C 
ATOM     25  C   UNL     1       3.491   2.996  19.054  0.00  0.00    +0.000 C 
ENDBRANCH  23  25
ENDBRANCH  14  23
ENDBRANCH   1  18
TORSDOF 7
ENDMDL
MODEL 3
REMARK VINA RESULT:      -7.2      1.409      1.863
REMARK  Name = 
REMARK  10 active torsions:
REMARK  status: ('A' for Active; 'I' for Inactive)
REMARK    1  A    between atoms: C_1  and  C_2
REMARK    2  A    between atoms: C_2  and  C_3
REMARK    3  A    between atoms: C_3  and  C_4
REMARK    4  A    between atoms: N_6  and  S_7
REMARK    5  A    between atoms: S_7  and  C_8
REMARK    6  A    between atoms: C_12  and  N_13
REMARK    7  A    between atoms: C_14  and  C_16
REMARK    8  A    between atoms: C_19  and  C_20
REMARK    9  A    between atoms: C_20  and  O_21
REMARK   10  A    between atoms: O_21  and  C_22
REMARK                            x       y       z     vdW  Elec       q    Type
REMARK                         _______ _______ _______ _____ _____    ______ ____
ROOT
ATOM      1  N   UNL     1       2.581   7.145  19.069  0.00  0.00    +0.000 N 
ATOM      2  C   UNL     1       1.866   8.290  18.742  0.00  0.00    +0.000 C 
ATOM      3  O   UNL     1       1.813   8.736  17.602  0.00  0.00    +0.000 OA
ATOM      4  H   UNL     1       2.310   6.666  19.926  0.00  0.00    +0.000 HD
ENDROOT
BRANCH   2   5
ATOM      5  C   UNL     1       1.116   8.942  19.846  0.00  0.00    +0.000 A 
ATOM      6  C   UNL     1       0.287  10.038  19.587  0.00  0.00    +0.000 A 
ATOM      7  C   UNL     1      -0.397  10.659  20.634  0.00  0.00    +0.000 A 
ATOM      8  C   UNL     1      -0.277  10.176  21.942  0.00  0.00    +0.000 A 
ATOM      9  C   UNL     1       0.536   9.055  22.196  0.00  0.00    +0.000 A 
ATOM     10  C   UNL     1       1.222   8.434  21.148  0.00  0.00    +0.000 A 
BRANCH   8  11
ATOM     11  C   UNL     1      -0.992  10.880  23.070  0.00  0.00    +0.000 C 
BRANCH  11  12
ATOM     12  O   UNL     1      -1.836  11.898  22.537  0.00  0.00    +0.000 OA
ATOM     13  C   UNL     1      -2.960  12.131  23.375  0.00  0.00    +0.000 C 
ENDBRANCH  11  12
ENDBRANCH   8  11
ENDBRANCH   2   5
BRANCH   1  18
ATOM     14  C   UNL     1       3.602   4.950  18.468  0.00  0.00    +0.000 C 
ATOM     15  C   UNL     1       5.084   5.133  18.779  0.00  0.00    +0.000 C 
ATOM     16  N   UNL     1       5.602   6.101  17.786  0.00  0.00    +0.000 NA
ATOM     17  C   UNL     1       4.469   6.991  17.404  0.00  0.00    +0.000 C 
ATOM     18  C   UNL     1       3.177   6.353  17.997  0.00  0.00    +0.000 C 
BRANCH  16  19
ATOM     19  S   UNL     1       6.660   5.533  16.598  0.00  0.00    +0.000 S 
ATOM     20  C   UNL     1       5.639   5.420  15.136  0.00  0.00    +0.000 C 
ATOM     21  O   UNL     1       7.629   6.584  16.346  0.00  0.00    +0.000 OA
ATOM     22  O   UNL     1       7.092   4.201  16.955  0.00  0.00    +0.000 OA
ENDBRANCH  16  19
BRANCH  14  23
ATOM     23  C   UNL     1       3.298   3.921  17.368  0.00  0.00    +0.000 C 
BRANCH  23  25
ATOM     24  C   UNL     1       1.548   2.530  18.450  0.00  0.00    +0.000 C 
ATOM     25  C   UNL     1       2.936   2.504  17.819  0.00  0.00    +0.000 C 
ENDBRANCH  23  25
ENDBRANCH  14  23
ENDBRANCH   1  18
TORSDOF 7
ENDMDL
MODEL 4
REMARK VINA RESULT:      -7.1      1.468      1.628
REMARK  Name = 
REMARK  10 active torsions:
REMARK  status: ('A' for Active; 'I' for Inactive)
REMARK    1  A    between atoms: C_1  and  C_2
REMARK    2  A    between atoms: C_2  and  C_3
REMARK    3  A    between atoms: C_3  and  C_4
REMARK    4  A    between atoms: N_6  and  S_7
REMARK    5  A    between atoms: S_7  and  C_8
REMARK    6  A    between atoms: C_12  and  N_13
REMARK    7  A    between atoms: C_14  and  C_16
REMARK    8  A    between atoms: C_19  and  C_20
REMARK    9  A    between atoms: C_20  and  O_21
REMARK   10  A    between atoms: O_21  and  C_22
REMARK                            x       y       z     vdW  Elec       q    Type
REMARK                         _______ _______ _______ _____ _____    ______ ____
ROOT
ATOM      1  N   UNL     1       2.637   7.094  19.271  0.00  0.00    +0.000 N 
ATOM      2  C   UNL     1       1.887   8.199  18.892  0.00  0.00    +0.000 C 
ATOM      3  O   UNL     1       1.807   8.579  17.730  0.00  0.00    +0.000 OA
ATOM      4  H   UNL     1       2.392   6.657  20.158  0.00  0.00    +0.000 HD
ENDROOT
BRANCH   2   5
ATOM      5  C   UNL     1       1.134   8.892  19.969  0.00  0.00    +0.000 A 
ATOM      6  C   UNL     1       1.328   8.536  21.308  0.00  0.00    +0.000 A 
ATOM      7  C   UNL     1       0.600   9.177  22.313  0.00  0.00    +0.000 A 
ATOM      8  C   UNL     1      -0.308  10.192  21.990  0.00  0.00    +0.000 A 
ATOM      9  C   UNL     1      -0.480  10.567  20.645  0.00  0.00    +0.000 A 
ATOM     10  C   UNL     1       0.248   9.925  19.638  0.00  0.00    +0.000 A 
BRANCH   8  11
ATOM     11  C   UNL     1      -1.116  10.850  23.083  0.00  0.00    +0.000 C 
BRANCH  11  12
ATOM     12  O   UNL     1      -1.780  11.997  22.558  0.00  0.00    +0.000 OA
ATOM     13  C   UNL     1      -1.289  13.195  23.148  0.00  0.00    +0.000 C 
ENDBRANCH  11  12
ENDBRANCH   8  11
ENDBRANCH   2   5
BRANCH   1  18
ATOM     14  C   UNL     1       3.820   4.948  18.801  0.00  0.00    +0.000 C 
ATOM     15  C   UNL     1       5.294   5.287  18.995  0.00  0.00    +0.000 C 
ATOM     16  N   UNL     1       5.662   6.198  17.889  0.00  0.00    +0.000 NA
ATOM     17  C   UNL     1       4.432   6.948  17.505  0.00  0.00    +0.000 C 
ATOM     18  C   UNL     1       3.241   6.259  18.237  0.00  0.00    +0.000 C 
BRANCH  16  19
ATOM     19  S   UNL     1       6.698   5.616  16.688  0.00  0.00    +0.000 S 
ATOM     20  C   UNL     1       5.634   5.425  15.264  0.00  0.00    +0.000 C 
ATOM     21  O   UNL     1       7.630   6.680  16.369  0.00  0.00    +0.000 OA
ATOM     22  O   UNL     1       7.174   4.308  17.077  0.00  0.00    +0.000 OA
ENDBRANCH  16  19
BRANCH  14  23
ATOM     23  C   UNL     1       3.549   3.798  17.817  0.00  0.00    +0.000 C 
BRANCH  23  25
ATOM     24  C   UNL     1       1.484   2.610  18.522  0.00  0.00    +0.000 C 
ATOM     25  C   UNL     1       2.087   3.519  17.457  0.00  0.00    +0.000 C 
ENDBRANCH  23  25
ENDBRANCH  14  23
ENDBRANCH   1  18
TORSDOF 7
ENDMDL
MODEL 5
REMARK VINA RESULT:      -6.9      1.644      1.898
REMARK  Name = 
REMARK  10 active torsions:
REMARK  status: ('A' for Active; 'I' for Inactive)
REMARK    1  A    between atoms: C_1  and  C_2
REMARK    2  A    between atoms: C_2  and  C_3
REMARK    3  A    between atoms: C_3  and  C_4
REMARK    4  A    between atoms: N_6  and  S_7
REMARK    5  A    between atoms: S_7  and  C_8
REMARK    6  A    between atoms: C_12  and  N_13
REMARK    7  A    between atoms: C_14  and  C_16
REMARK    8  A    between atoms: C_19  and  C_20
REMARK    9  A    between atoms: C_20  and  O_21
REMARK   10  A    between atoms: O_21  and  C_22
REMARK                            x       y       z     vdW  Elec       q    Type
REMARK                         _______ _______ _______ _____ _____    ______ ____
ROOT
ATOM      1  N   UNL     1       2.419   7.260  19.172  0.00  0.00    +0.000 N 
ATOM      2  C   UNL     1       1.836   8.487  18.883  0.00  0.00    +0.000 C 
ATOM      3  O   UNL     1       1.914   9.015  17.780  0.00  0.00    +0.000 OA
ATOM      4  H   UNL     1       2.040   6.749  19.968  0.00  0.00    +0.000 HD
ENDROOT
BRANCH   2   5
ATOM      5  C   UNL     1       1.060   9.126  19.976  0.00  0.00    +0.000 A 
ATOM      6  C   UNL     1       1.122   8.620  21.278  0.00  0.00    +0.000 A 
ATOM      7  C   UNL     1       0.372   9.213  22.296  0.00  0.00    +0.000 A 
ATOM      8  C   UNL     1      -0.426  10.330  22.025  0.00  0.00    +0.000 A 
ATOM      9  C   UNL     1      -0.465  10.855  20.720  0.00  0.00    +0.000 A 
ATOM     10  C   UNL     1       0.285  10.261  19.701  0.00  0.00    +0.000 A 
BRANCH   8  11
ATOM     11  C   UNL     1      -1.261  10.939  23.126  0.00  0.00    +0.000 C 
BRANCH  11  12
ATOM     12  O   UNL     1      -2.246  11.798  22.556  0.00  0.00    +0.000 OA
ATOM     13  C   UNL     1      -3.136  12.295  23.547  0.00  0.00    +0.000 C 
ENDBRANCH  11  12
ENDBRANCH   8  11
ENDBRANCH   2   5
BRANCH   1  18
ATOM     14  C   UNL     1       3.535   5.116  18.556  0.00  0.00    +0.000 C 
ATOM     15  C   UNL     1       5.013   5.375  18.828  0.00  0.00    +0.000 C 
ATOM     16  N   UNL     1       5.457   6.362  17.818  0.00  0.00    +0.000 NA
ATOM     17  C   UNL     1       4.271   7.192  17.461  0.00  0.00    +0.000 C 
ATOM     18  C   UNL     1       3.028   6.493  18.089  0.00  0.00    +0.000 C 
BRANCH  16  19
ATOM     19  S   UNL     1       6.513   5.843  16.606  0.00  0.00    +0.000 S 
ATOM     20  C   UNL     1       7.222   4.344  17.272  0.00  0.00    +0.000 C 
ATOM     21  O   UNL     1       5.703   5.449  15.469  0.00  0.00    +0.000 OA
ATOM     22  O   UNL     1       7.569   6.818  16.458  0.00  0.00    +0.000 OA
ENDBRANCH  16  19
BRANCH  14  23
ATOM     23  C   UNL     1       3.257   4.067  17.467  0.00  0.00    +0.000 C 
BRANCH  23  25
ATOM     24  C   UNL     1       1.473   3.415  19.068  0.00  0.00    +0.000 C 
ATOM     25  C   UNL     1       2.101   3.094  17.717  0.00  0.00    +0.000 C 
ENDBRANCH  23  25
ENDBRANCH  14  23
ENDBRANCH   1  18
TORSDOF 7
ENDMDL
MODEL 6
REMARK VINA RESULT:      -6.9      0.763      1.073
REMARK  Name = 
REMARK  10 active torsions:
REMARK  status: ('A' for Active; 'I' for Inactive)
REMARK    1  A    between atoms: C_1  and  C_2
REMARK    2  A    between atoms: C_2  and  C_3
REMARK    3  A    between atoms: C_3  and  C_4
REMARK    4  A    between atoms: N_6  and  S_7
REMARK    5  A    between atoms: S_7  and  C_8
REMARK    6  A    between atoms: C_12  and  N_13
REMARK    7  A    between atoms: C_14  and  C_16
REMARK    8  A    between atoms: C_19  and  C_20
REMARK    9  A    between atoms: C_20  and  O_21
REMARK   10  A    between atoms: O_21  and  C_22
REMARK                            x       y       z     vdW  Elec       q    Type
REMARK                         _______ _______ _______ _____ _____    ______ ____
ROOT
ATOM      1  N   UNL     1       3.140   6.989  18.224  0.00  0.00    +0.000 N 
ATOM      2  C   UNL     1       2.265   6.933  19.301  0.00  0.00    +0.000 C 
ATOM      3  O   UNL     1       1.997   5.889  19.884  0.00  0.00    +0.000 OA
ATOM      4  H   UNL     1       3.557   7.896  18.020  0.00  0.00    +0.000 HD
ENDROOT
BRANCH   2   5
ATOM      5  C   UNL     1       1.687   8.224  19.754  0.00  0.00    +0.000 A 
ATOM      6  C   UNL     1       1.465   8.459  21.115  0.00  0.00    +0.000 A 
ATOM      7  C   UNL     1       0.900   9.667  21.532  0.00  0.00    +0.000 A 
ATOM      8  C   UNL     1       0.576  10.655  20.596  0.00  0.00    +0.000 A 
ATOM      9  C   UNL     1       0.827  10.427  19.230  0.00  0.00    +0.000 A 
ATOM     10  C   UNL     1       1.391   9.218  18.812  0.00  0.00    +0.000 A 
BRANCH   8  11
ATOM     11  C   UNL     1      -0.068  11.941  21.056  0.00  0.00    +0.000 C 
BRANCH  11  12
ATOM     12  O   UNL     1       0.893  12.734  21.748  0.00  0.00    +0.000 OA
ATOM     13  C   UNL     1       1.633  13.552  20.851  0.00  0.00    +0.000 C 
ENDBRANCH  11  12
ENDBRANCH   8  11
ENDBRANCH   2   5
BRANCH   1  18
ATOM     14  C   UNL     1       4.953   5.416  18.901  0.00  0.00    +0.000 C 
ATOM     15  C   UNL     1       6.221   6.043  18.331  0.00  0.00    +0.000 C 
ATOM     16  N   UNL     1       6.118   5.927  16.859  0.00  0.00    +0.000 NA
ATOM     17  C   UNL     1       4.668   5.939  16.515  0.00  0.00    +0.000 C 
ATOM     18  C   UNL     1       3.887   5.790  17.855  0.00  0.00    +0.000 C 
BRANCH  16  19
ATOM     19  S   UNL     1       7.159   4.854  16.070  0.00  0.00    +0.000 S 
ATOM     20  C   UNL     1       6.063   3.607  15.408  0.00  0.00    +0.000 C 
ATOM     21  O   UNL     1       7.721   5.558  14.933  0.00  0.00    +0.000 OA
ATOM     22  O   UNL     1       8.017   4.230  17.052  0.00  0.00    +0.000 OA
ENDBRANCH  16  19
BRANCH  14  23
ATOM     23  C   UNL     1       5.007   3.887  19.059  0.00  0.00    +0.000 C 
BRANCH  23  25
ATOM     24  C   UNL     1       3.585   2.149  17.998  0.00  0.00    +0.000 C 
ATOM     25  C   UNL     1       3.670   3.148  19.147  0.00  0.00    +0.000 C 
ENDBRANCH  23  25
ENDBRANCH  14  23
ENDBRANCH   1  18
TORSDOF 7
ENDMDL
MODEL 7
REMARK VINA RESULT:      -6.9      0.857      1.528
REMARK  Name = 
REMARK  10 active torsions:
REMARK  status: ('A' for Active; 'I' for Inactive)
REMARK    1  A    between atoms: C_1  and  C_2
REMARK    2  A    between atoms: C_2  and  C_3
REMARK    3  A    between atoms: C_3  and  C_4
REMARK    4  A    between atoms: N_6  and  S_7
REMARK    5  A    between atoms: S_7  and  C_8
REMARK    6  A    between atoms: C_12  and  N_13
REMARK    7  A    between atoms: C_14  and  C_16
REMARK    8  A    between atoms: C_19  and  C_20
REMARK    9  A    between atoms: C_20  and  O_21
REMARK   10  A    between atoms: O_21  and  C_22
REMARK                            x       y       z     vdW  Elec       q    Type
REMARK                         _______ _______ _______ _____ _____    ______ ____
ROOT
ATOM      1  N   UNL     1       3.121   6.921  18.344  0.00  0.00    +0.000 N 
ATOM      2  C   UNL     1       2.265   6.838  19.434  0.00  0.00    +0.000 C 
ATOM      3  O   UNL     1       2.017   5.781  20.003  0.00  0.00    +0.000 OA
ATOM      4  H   UNL     1       3.526   7.836  18.149  0.00  0.00    +0.000 HD
ENDROOT
BRANCH   2   5
ATOM      5  C   UNL     1       1.683   8.115  19.921  0.00  0.00    +0.000 A 
ATOM      6  C   UNL     1       1.440   9.165  19.031  0.00  0.00    +0.000 A 
ATOM      7  C   UNL     1       0.913  10.371  19.500  0.00  0.00    +0.000 A 
ATOM      8  C   UNL     1       0.604  10.526  20.856  0.00  0.00    +0.000 A 
ATOM      9  C   UNL     1       0.824   9.458  21.745  0.00  0.00    +0.000 A 
ATOM     10  C   UNL     1       1.352   8.251  21.276  0.00  0.00    +0.000 A 
BRANCH   8  11
ATOM     11  C   UNL     1       0.071  11.847  21.356  0.00  0.00    +0.000 C 
BRANCH  11  12
ATOM     12  O   UNL     1       0.470  12.889  20.469  0.00  0.00    +0.000 OA
ATOM     13  C   UNL     1       1.445  13.734  21.067  0.00  0.00    +0.000 C 
ENDBRANCH  11  12
ENDBRANCH   8  11
ENDBRANCH   2   5
BRANCH   1  18
ATOM     14  C   UNL     1       4.939   5.335  18.977  0.00  0.00    +0.000 C 
ATOM     15  C   UNL     1       6.205   5.983  18.426  0.00  0.00    +0.000 C 
ATOM     16  N   UNL     1       6.104   5.909  16.952  0.00  0.00    +0.000 NA
ATOM     17  C   UNL     1       4.654   5.926  16.606  0.00  0.00    +0.000 C 
ATOM     18  C   UNL     1       3.873   5.736  17.941  0.00  0.00    +0.000 C 
BRANCH  16  19
ATOM     19  S   UNL     1       7.149   4.864  16.133  0.00  0.00    +0.000 S 
ATOM     20  C   UNL     1       6.059   3.628  15.441  0.00  0.00    +0.000 C 
ATOM     21  O   UNL     1       7.705   5.600  15.013  0.00  0.00    +0.000 OA
ATOM     22  O   UNL     1       8.013   4.220  17.096  0.00  0.00    +0.000 OA
ENDBRANCH  16  19
BRANCH  14  23
ATOM     23  C   UNL     1       4.999   3.803  19.090  0.00  0.00    +0.000 C 
BRANCH  23  25
ATOM     24  C   UNL     1       3.034   2.432  19.747  0.00  0.00    +0.000 C 
ATOM     25  C   UNL     1       3.795   3.018  18.563  0.00  0.00    +0.000 C 
ENDBRANCH  23  25
ENDBRANCH  14  23
ENDBRANCH   1  18
TORSDOF 7
ENDMDL
MODEL 8
REMARK VINA RESULT:      -6.9      1.616      2.168
REMARK  Name = 
REMARK  10 active torsions:
REMARK  status: ('A' for Active; 'I' for Inactive)
REMARK    1  A    between atoms: C_1  and  C_2
REMARK    2  A    between atoms: C_2  and  C_3
REMARK    3  A    between atoms: C_3  and  C_4
REMARK    4  A    between atoms: N_6  and  S_7
REMARK    5  A    between atoms: S_7  and  C_8
REMARK    6  A    between atoms: C_12  and  N_13
REMARK    7  A    between atoms: C_14  and  C_16
REMARK    8  A    between atoms: C_19  and  C_20
REMARK    9  A    between atoms: C_20  and  O_21
REMARK   10  A    between atoms: O_21  and  C_22
REMARK                            x       y       z     vdW  Elec       q    Type
REMARK                         _______ _______ _______ _____ _____    ______ ____
ROOT
ATOM      1  N   UNL     1       2.390   7.104  19.156  0.00  0.00    +0.000 N 
ATOM      2  C   UNL     1       1.786   8.313  18.838  0.00  0.00    +0.000 C 
ATOM      3  O   UNL     1       1.822   8.795  17.712  0.00  0.00    +0.000 OA
ATOM      4  H   UNL     1       2.043   6.623  19.984  0.00  0.00    +0.000 HD
ENDROOT
BRANCH   2   5
ATOM      5  C   UNL     1       1.041   8.990  19.930  0.00  0.00    +0.000 A 
ATOM      6  C   UNL     1       0.153  10.031  19.639  0.00  0.00    +0.000 A 
ATOM      7  C   UNL     1      -0.527  10.678  20.673  0.00  0.00    +0.000 A 
ATOM      8  C   UNL     1      -0.342  10.275  22.001  0.00  0.00    +0.000 A 
ATOM      9  C   UNL     1       0.530   9.209  22.287  0.00  0.00    +0.000 A 
ATOM     10  C   UNL     1       1.212   8.561  21.253  0.00  0.00    +0.000 A 
BRANCH   8  11
ATOM     11  C   UNL     1      -1.055  11.007  23.112  0.00  0.00    +0.000 C 
BRANCH  11  12
ATOM     12  O   UNL     1      -1.708  12.158  22.582  0.00  0.00    +0.000 OA
ATOM     13  C   UNL     1      -1.215  13.353  23.176  0.00  0.00    +0.000 C 
ENDBRANCH  11  12
ENDBRANCH   8  11
ENDBRANCH   2   5
BRANCH   1  18
ATOM     14  C   UNL     1       3.197   4.834  18.507  0.00  0.00    +0.000 C 
ATOM     15  C   UNL     1       4.663   4.828  18.926  0.00  0.00    +0.000 C 
ATOM     16  N   UNL     1       5.359   5.773  18.024  0.00  0.00    +0.000 NA
ATOM     17  C   UNL     1       4.365   6.807  17.616  0.00  0.00    +0.000 C 
ATOM     18  C   UNL     1       2.969   6.297  18.085  0.00  0.00    +0.000 C 
BRANCH  16  19
ATOM     19  S   UNL     1       6.430   5.142  16.880  0.00  0.00    +0.000 S 
ATOM     20  C   UNL     1       7.797   4.542  17.862  0.00  0.00    +0.000 C 
ATOM     21  O   UNL     1       5.797   3.976  16.295  0.00  0.00    +0.000 OA
ATOM     22  O   UNL     1       6.909   6.220  16.045  0.00  0.00    +0.000 OA
ENDBRANCH  16  19
BRANCH  14  23
ATOM     23  C   UNL     1       2.860   3.900  17.334  0.00  0.00    +0.000 C 
BRANCH  23  25
ATOM     24  C   UNL     1       1.254   2.605  18.717  0.00  0.00    +0.000 C 
ATOM     25  C   UNL     1       2.368   2.492  17.683  0.00  0.00    +0.000 C 
ENDBRANCH  23  25
ENDBRANCH  14  23
ENDBRANCH   1  18
TORSDOF 7
ENDMDL
MODEL 9
REMARK VINA RESULT:      -6.7      1.880      2.375
REMARK  Name = 
REMARK  10 active torsions:
REMARK  status: ('A' for Active; 'I' for Inactive)
REMARK    1  A    between atoms: C_1  and  C_2
REMARK    2  A    between atoms: C_2  and  C_3
REMARK    3  A    between atoms: C_3  and  C_4
REMARK    4  A    between atoms: N_6  and  S_7
REMARK    5  A    between atoms: S_7  and  C_8
REMARK    6  A    between atoms: C_12  and  N_13
REMARK    7  A    between atoms: C_14  and  C_16
REMARK    8  A    between atoms: C_19  and  C_20
REMARK    9  A    between atoms: C_20  and  O_21
REMARK   10  A    between atoms: O_21  and  C_22
REMARK                            x       y       z     vdW  Elec       q    Type
REMARK                         _______ _______ _______ _____ _____    ______ ____
ROOT
ATOM      1  N   UNL     1       2.082   7.735  19.222  0.00  0.00    +0.000 N 
ATOM      2  C   UNL     1       1.583   8.943  18.753  0.00  0.00    +0.000 C 
ATOM      3  O   UNL     1       1.649   9.274  17.575  0.00  0.00    +0.000 OA
ATOM      4  H   UNL     1       1.703   7.396  20.105  0.00  0.00    +0.000 HD
ENDROOT
BRANCH   2   5
ATOM      5  C   UNL     1       0.915   9.818  19.750  0.00  0.00    +0.000 A 
ATOM      6  C   UNL     1       0.424   9.281  20.944  0.00  0.00    +0.000 A 
ATOM      7  C   UNL     1      -0.224  10.107  21.866  0.00  0.00    +0.000 A 
ATOM      8  C   UNL     1      -0.363  11.476  21.612  0.00  0.00    +0.000 A 
ATOM      9  C   UNL     1       0.157  12.018  20.422  0.00  0.00    +0.000 A 
ATOM     10  C   UNL     1       0.804  11.192  19.499  0.00  0.00    +0.000 A 
BRANCH   8  11
ATOM     11  C   UNL     1      -1.098  12.350  22.600  0.00  0.00    +0.000 C 
BRANCH  11  12
ATOM     12  O   UNL     1      -2.090  11.578  23.273  0.00  0.00    +0.000 OA
ATOM     13  C   UNL     1      -3.260  12.345  23.525  0.00  0.00    +0.000 C 
ENDBRANCH  11  12
ENDBRANCH   8  11
ENDBRANCH   2   5
BRANCH   1  18
ATOM     14  C   UNL     1       2.468   5.308  18.791  0.00  0.00    +0.000 C 
ATOM     15  C   UNL     1       3.864   5.050  19.349  0.00  0.00    +0.000 C 
ATOM     16  N   UNL     1       4.807   5.769  18.464  0.00  0.00    +0.000 NA
ATOM     17  C   UNL     1       4.078   6.941  17.900  0.00  0.00    +0.000 C 
ATOM     18  C   UNL     1       2.574   6.751  18.263  0.00  0.00    +0.000 C 
BRANCH  16  19
ATOM     19  S   UNL     1       5.821   4.855  17.469  0.00  0.00    +0.000 S 
ATOM     20  C   UNL     1       6.827   6.080  16.646  0.00  0.00    +0.000 C 
ATOM     21  O   UNL     1       6.708   4.101  18.334  0.00  0.00    +0.000 OA
ATOM     22  O   UNL     1       5.016   4.185  16.473  0.00  0.00    +0.000 OA
ENDBRANCH  16  19
BRANCH  14  23
ATOM     23  C   UNL     1       2.049   4.368  17.649  0.00  0.00    +0.000 C 
BRANCH  23  25
ATOM     24  C   UNL     1       0.940   2.603  19.000  0.00  0.00    +0.000 C 
ATOM     25  C   UNL     1       2.019   2.869  17.956  0.00  0.00    +0.000 C 
ENDBRANCH  23  25
ENDBRANCH  14  23
ENDBRANCH   1  18
TORSDOF 7
ENDMDL
