MODEL 1
REMARK VINA RESULT:      -8.7      0.000      0.000
REMARK  Name = 
REMARK  9 active torsions:
REMARK  status: ('A' for Active; 'I' for Inactive)
REMARK    1  A    between atoms: C_1  and  C_2
REMARK    2  A    between atoms: C_5  and  S_6
REMARK    3  A    between atoms: S_6  and  N_9
REMARK    4  A    between atoms: C_13  and  C_15
REMARK    5  A    between atoms: C_15  and  C_16
REMARK    6  A    between atoms: C_16  and  C_17
REMARK    7  A    between atoms: N_19  and  C_20
REMARK    8  A    between atoms: C_20  and  C_21
REMARK    9  A    between atoms: C_25  and  C_26
REMARK                            x       y       z     vdW  Elec       q    Type
REMARK                         _______ _______ _______ _____ _____    ______ ____
ROOT
ATOM      1  N   UNL     1       0.697  10.346  19.751  0.00  0.00    +0.000 NA
ATOM      2  C   UNL     1       1.065   9.616  18.523  0.00  0.00    +0.000 C 
ATOM      3  C   UNL     1       2.307   8.810  18.881  0.00  0.00    +0.000 C 
ATOM      4  N   UNL     1       1.936   7.789  19.866  0.00  0.00    +0.000 N 
ATOM      5  C   UNL     1       2.179   6.472  19.528  0.00  0.00    +0.000 C 
ATOM      6  O   UNL     1       2.658   6.173  18.429  0.00  0.00    +0.000 OA
ATOM      7  C   UNL     1       1.313   8.324  21.103  0.00  0.00    +0.000 C 
ATOM      8  C   UNL     1       0.230   9.424  20.825  0.00  0.00    +0.000 C 
ENDROOT
BRANCH   1   9
ATOM      9  S   UNL     1       0.144  11.920  19.598  0.00  0.00    +0.000 S 
ATOM     10  O   UNL     1       0.900  12.561  18.544  0.00  0.00    +0.000 OA
ATOM     11  O   UNL     1       0.088  12.499  20.925  0.00  0.00    +0.000 OA
BRANCH   9  16
ATOM     12  C   UNL     1      -5.580  11.622  17.591  0.00  0.00    +0.000 C 
ATOM     13  C   UNL     1      -4.164  11.650  18.088  0.00  0.00    +0.000 A 
ATOM     14  C   UNL     1      -3.873  12.168  19.355  0.00  0.00    +0.000 A 
ATOM     15  C   UNL     1      -2.561  12.214  19.818  0.00  0.00    +0.000 A 
ATOM     16  C   UNL     1      -1.526  11.734  19.017  0.00  0.00    +0.000 A 
ATOM     17  C   UNL     1      -1.792  11.231  17.737  0.00  0.00    +0.000 A 
ATOM     18  C   UNL     1      -3.115  11.183  17.281  0.00  0.00    +0.000 A 
ENDBRANCH   9  16
ENDBRANCH   1   9
BRANCH   5  19
ATOM     19  C   UNL     1       1.840   5.389  20.522  0.00  0.00    +0.000 C 
BRANCH  19  20
ATOM     20  C   UNL     1       1.014   4.290  19.835  0.00  0.00    +0.000 C 
BRANCH  20  21
ATOM     21  C   UNL     1       1.692   3.796  18.583  0.00  0.00    +0.000 C 
ATOM     22  O   UNL     1       1.140   3.787  17.491  0.00  0.00    +0.000 OA
ATOM     23  N   UNL     1       2.989   3.367  18.776  0.00  0.00    +0.000 N 
ATOM     24  H   UNL     1       3.372   3.339  19.716  0.00  0.00    +0.000 HD
BRANCH  23  25
ATOM     25  C   UNL     1       3.774   2.820  17.695  0.00  0.00    +0.000 C 
BRANCH  25  26
ATOM     26  C   UNL     1       4.878   3.753  17.265  0.00  0.00    +0.000 A 
ATOM     27  C   UNL     1       4.980   4.160  15.928  0.00  0.00    +0.000 A 
ATOM     28  C   UNL     1       5.971   5.058  15.530  0.00  0.00    +0.000 A 
ATOM     29  C   UNL     1       6.874   5.566  16.463  0.00  0.00    +0.000 A 
ATOM     30  C   UNL     1       6.792   5.184  17.811  0.00  0.00    +0.000 A 
ATOM     31  C   UNL     1       5.785   4.280  18.201  0.00  0.00    +0.000 A 
BRANCH  30  32
ATOM     32  C   UNL     1       7.760   5.732  18.831  0.00  0.00    +0.000 C 
ATOM     33  F   UNL     1       7.212   5.904  20.066  0.00  0.00    +0.000 F 
ATOM     34  F   UNL     1       8.841   4.924  19.015  0.00  0.00    +0.000 F 
ATOM     35  F   UNL     1       8.258   6.949  18.475  0.00  0.00    +0.000 F 
ENDBRANCH  30  32
ENDBRANCH  25  26
ENDBRANCH  23  25
ENDBRANCH  20  21
ENDBRANCH  19  20
ENDBRANCH   5  19
TORSDOF 8
ENDMDL
MODEL 2
REMARK VINA RESULT:      -8.7      2.326      3.295
REMARK  Name = 
REMARK  9 active torsions:
REMARK  status: ('A' for Active; 'I' for Inactive)
REMARK    1  A    between atoms: C_1  and  C_2
REMARK    2  A    between atoms: C_5  and  S_6
REMARK    3  A    between atoms: S_6  and  N_9
REMARK    4  A    between atoms: C_13  and  C_15
REMARK    5  A    between atoms: C_15  and  C_16
REMARK    6  A    between atoms: C_16  and  C_17
REMARK    7  A    between atoms: N_19  and  C_20
REMARK    8  A    between atoms: C_20  and  C_21
REMARK    9  A    between atoms: C_25  and  C_26
REMARK                            x       y       z     vdW  Elec       q    Type
REMARK                         _______ _______ _______ _____ _____    ______ ____
ROOT
ATOM      1  N   UNL     1       0.164  10.566  19.560  0.00  0.00    +0.000 NA
ATOM      2  C   UNL     1       0.590   9.820  18.361  0.00  0.00    +0.000 C 
ATOM      3  C   UNL     1       1.944   9.216  18.712  0.00  0.00    +0.000 C 
ATOM      4  N   UNL     1       1.752   8.215  19.766  0.00  0.00    +0.000 N 
ATOM      5  C   UNL     1       2.165   6.926  19.493  0.00  0.00    +0.000 C 
ATOM      6  O   UNL     1       2.644   6.629  18.394  0.00  0.00    +0.000 OA
ATOM      7  C   UNL     1       1.102   8.734  20.996  0.00  0.00    +0.000 C 
ATOM      8  C   UNL     1      -0.133   9.656  20.702  0.00  0.00    +0.000 C 
ENDROOT
BRANCH   1   9
ATOM      9  S   UNL     1      -0.608  12.037  19.342  0.00  0.00    +0.000 S 
ATOM     10  O   UNL     1      -1.429  12.291  20.505  0.00  0.00    +0.000 OA
ATOM     11  O   UNL     1      -1.187  12.037  18.014  0.00  0.00    +0.000 OA
BRANCH   9  16
ATOM     12  C   UNL     1       3.764  16.246  19.128  0.00  0.00    +0.000 C 
ATOM     13  C   UNL     1       2.704  15.187  19.217  0.00  0.00    +0.000 A 
ATOM     14  C   UNL     1       2.565  14.244  18.193  0.00  0.00    +0.000 A 
ATOM     15  C   UNL     1       1.574  13.268  18.258  0.00  0.00    +0.000 A 
ATOM     16  C   UNL     1       0.716  13.223  19.355  0.00  0.00    +0.000 A 
ATOM     17  C   UNL     1       0.824  14.171  20.381  0.00  0.00    +0.000 A 
ATOM     18  C   UNL     1       1.827  15.146  20.311  0.00  0.00    +0.000 A 
ENDBRANCH   9  16
ENDBRANCH   1   9
BRANCH   5  19
ATOM     19  C   UNL     1       2.014   5.869  20.559  0.00  0.00    +0.000 C 
BRANCH  19  20
ATOM     20  C   UNL     1       1.335   4.624  19.967  0.00  0.00    +0.000 C 
BRANCH  20  21
ATOM     21  C   UNL     1       2.350   3.654  19.420  0.00  0.00    +0.000 C 
ATOM     22  O   UNL     1       2.869   2.783  20.104  0.00  0.00    +0.000 OA
ATOM     23  N   UNL     1       2.630   3.828  18.080  0.00  0.00    +0.000 N 
ATOM     24  H   UNL     1       2.216   4.608  17.579  0.00  0.00    +0.000 HD
BRANCH  23  25
ATOM     25  C   UNL     1       3.611   3.016  17.400  0.00  0.00    +0.000 C 
BRANCH  25  26
ATOM     26  C   UNL     1       4.860   3.792  17.067  0.00  0.00    +0.000 A 
ATOM     27  C   UNL     1       5.212   4.028  15.731  0.00  0.00    +0.000 A 
ATOM     28  C   UNL     1       6.341   4.784  15.414  0.00  0.00    +0.000 A 
ATOM     29  C   UNL     1       7.136   5.317  16.428  0.00  0.00    +0.000 A 
ATOM     30  C   UNL     1       6.805   5.104  17.775  0.00  0.00    +0.000 A 
ATOM     31  C   UNL     1       5.660   4.344  18.082  0.00  0.00    +0.000 A 
BRANCH  30  32
ATOM     32  C   UNL     1       7.655   5.682  18.881  0.00  0.00    +0.000 C 
ATOM     33  F   UNL     1       8.107   6.941  18.622  0.00  0.00    +0.000 F 
ATOM     34  F   UNL     1       6.989   5.765  20.067  0.00  0.00    +0.000 F 
ATOM     35  F   UNL     1       8.767   4.934  19.128  0.00  0.00    +0.000 F 
ENDBRANCH  30  32
ENDBRANCH  25  26
ENDBRANCH  23  25
ENDBRANCH  20  21
ENDBRANCH  19  20
ENDBRANCH   5  19
TORSDOF 8
ENDMDL
MODEL 3
REMARK VINA RESULT:      -8.6      5.443     10.721
REMARK  Name = 
REMARK  9 active torsions:
REMARK  status: ('A' for Active; 'I' for Inactive)
REMARK    1  A    between atoms: C_1  and  C_2
REMARK    2  A    between atoms: C_5  and  S_6
REMARK    3  A    between atoms: S_6  and  N_9
REMARK    4  A    between atoms: C_13  and  C_15
REMARK    5  A    between atoms: C_15  and  C_16
REMARK    6  A    between atoms: C_16  and  C_17
REMARK    7  A    between atoms: N_19  and  C_20
REMARK    8  A    between atoms: C_20  and  C_21
REMARK    9  A    between atoms: C_25  and  C_26
REMARK                            x       y       z     vdW  Elec       q    Type
REMARK                         _______ _______ _______ _____ _____    ______ ____
ROOT
ATOM      1  N   UNL     1       5.826   5.920  17.703  0.00  0.00    +0.000 NA
ATOM      2  C   UNL     1       5.178   7.220  17.442  0.00  0.00    +0.000 C 
ATOM      3  C   UNL     1       3.680   6.942  17.454  0.00  0.00    +0.000 C 
ATOM      4  N   UNL     1       3.286   6.557  18.812  0.00  0.00    +0.000 N 
ATOM      5  C   UNL     1       2.319   7.326  19.429  0.00  0.00    +0.000 C 
ATOM      6  O   UNL     1       1.835   8.315  18.867  0.00  0.00    +0.000 OA
ATOM      7  C   UNL     1       4.016   5.384  19.356  0.00  0.00    +0.000 C 
ATOM      8  C   UNL     1       5.561   5.437  19.088  0.00  0.00    +0.000 C 
ENDROOT
BRANCH   1   9
ATOM      9  S   UNL     1       7.230   5.556  16.864  0.00  0.00    +0.000 S 
ATOM     10  O   UNL     1       7.953   4.551  17.613  0.00  0.00    +0.000 OA
ATOM     11  O   UNL     1       7.864   6.807  16.501  0.00  0.00    +0.000 OA
BRANCH   9  16
ATOM     12  C   UNL     1       5.005   3.177  11.739  0.00  0.00    +0.000 C 
ATOM     13  C   UNL     1       5.588   3.734  13.005  0.00  0.00    +0.000 A 
ATOM     14  C   UNL     1       4.858   3.678  14.198  0.00  0.00    +0.000 A 
ATOM     15  C   UNL     1       5.383   4.206  15.375  0.00  0.00    +0.000 A 
ATOM     16  C   UNL     1       6.649   4.790  15.369  0.00  0.00    +0.000 A 
ATOM     17  C   UNL     1       7.387   4.875  14.181  0.00  0.00    +0.000 A 
ATOM     18  C   UNL     1       6.855   4.337  13.004  0.00  0.00    +0.000 A 
ENDBRANCH   9  16
ENDBRANCH   1   9
BRANCH   5  19
ATOM     19  C   UNL     1       1.860   6.949  20.815  0.00  0.00    +0.000 C 
BRANCH  19  20
ATOM     20  C   UNL     1       0.517   7.631  21.124  0.00  0.00    +0.000 C 
BRANCH  20  21
ATOM     21  C   UNL     1       0.720   8.962  21.800  0.00  0.00    +0.000 C 
ATOM     22  O   UNL     1       1.737   9.241  22.420  0.00  0.00    +0.000 OA
ATOM     23  N   UNL     1      -0.334   9.838  21.647  0.00  0.00    +0.000 N 
ATOM     24  H   UNL     1      -1.178   9.528  21.175  0.00  0.00    +0.000 HD
BRANCH  23  25
ATOM     25  C   UNL     1      -0.331  11.143  22.265  0.00  0.00    +0.000 C 
BRANCH  25  26
ATOM     26  C   UNL     1      -1.635  11.872  22.061  0.00  0.00    +0.000 A 
ATOM     27  C   UNL     1      -2.035  12.261  20.776  0.00  0.00    +0.000 A 
ATOM     28  C   UNL     1      -3.261  12.897  20.573  0.00  0.00    +0.000 A 
ATOM     29  C   UNL     1      -4.106  13.151  21.652  0.00  0.00    +0.000 A 
ATOM     30  C   UNL     1      -3.737  12.765  22.949  0.00  0.00    +0.000 A 
ATOM     31  C   UNL     1      -2.500  12.121  23.141  0.00  0.00    +0.000 A 
BRANCH  30  32
ATOM     32  C   UNL     1      -4.647  13.030  24.124  0.00  0.00    +0.000 C 
ATOM     33  F   UNL     1      -4.700  12.000  25.016  0.00  0.00    +0.000 F 
ATOM     34  F   UNL     1      -4.273  14.124  24.844  0.00  0.00    +0.000 F 
ATOM     35  F   UNL     1      -5.936  13.255  23.744  0.00  0.00    +0.000 F 
ENDBRANCH  30  32
ENDBRANCH  25  26
ENDBRANCH  23  25
ENDBRANCH  20  21
ENDBRANCH  19  20
ENDBRANCH   5  19
TORSDOF 8
ENDMDL
MODEL 4
REMARK VINA RESULT:      -8.6      1.447      2.295
REMARK  Name = 
REMARK  9 active torsions:
REMARK  status: ('A' for Active; 'I' for Inactive)
REMARK    1  A    between atoms: C_1  and  C_2
REMARK    2  A    between atoms: C_5  and  S_6
REMARK    3  A    between atoms: S_6  and  N_9
REMARK    4  A    between atoms: C_13  and  C_15
REMARK    5  A    between atoms: C_15  and  C_16
REMARK    6  A    between atoms: C_16  and  C_17
REMARK    7  A    between atoms: N_19  and  C_20
REMARK    8  A    between atoms: C_20  and  C_21
REMARK    9  A    between atoms: C_25  and  C_26
REMARK                            x       y       z     vdW  Elec       q    Type
REMARK                         _______ _______ _______ _____ _____    ______ ____
ROOT
ATOM      1  N   UNL     1       0.315  10.462  19.339  0.00  0.00    +0.000 NA
ATOM      2  C   UNL     1       0.924   9.735  18.209  0.00  0.00    +0.000 C 
ATOM      3  C   UNL     1       2.200   9.112  18.761  0.00  0.00    +0.000 C 
ATOM      4  N   UNL     1       1.836   8.094  19.750  0.00  0.00    +0.000 N 
ATOM      5  C   UNL     1       2.280   6.806  19.522  0.00  0.00    +0.000 C 
ATOM      6  O   UNL     1       2.928   6.525  18.508  0.00  0.00    +0.000 OA
ATOM      7  C   UNL     1       1.000   8.596  20.870  0.00  0.00    +0.000 C 
ATOM      8  C   UNL     1      -0.167   9.533  20.400  0.00  0.00    +0.000 C 
ENDROOT
BRANCH   1   9
ATOM      9  S   UNL     1      -0.404  11.943  19.028  0.00  0.00    +0.000 S 
ATOM     10  O   UNL     1      -1.447  11.739  18.047  0.00  0.00    +0.000 OA
ATOM     11  O   UNL     1       0.654  12.905  18.793  0.00  0.00    +0.000 OA
BRANCH   9  16
ATOM     12  C   UNL     1      -3.008  13.719  24.218  0.00  0.00    +0.000 C 
ATOM     13  C   UNL     1      -2.379  13.238  22.943  0.00  0.00    +0.000 A 
ATOM     14  C   UNL     1      -0.988  13.263  22.793  0.00  0.00    +0.000 A 
ATOM     15  C   UNL     1      -0.396  12.834  21.608  0.00  0.00    +0.000 A 
ATOM     16  C   UNL     1      -1.192  12.368  20.563  0.00  0.00    +0.000 A 
ATOM     17  C   UNL     1      -2.588  12.355  20.684  0.00  0.00    +0.000 A 
ATOM     18  C   UNL     1      -3.175  12.783  21.881  0.00  0.00    +0.000 A 
ENDBRANCH   9  16
ENDBRANCH   1   9
BRANCH   5  19
ATOM     19  C   UNL     1       1.954   5.732  20.529  0.00  0.00    +0.000 C 
BRANCH  19  20
ATOM     20  C   UNL     1       1.045   4.673  19.887  0.00  0.00    +0.000 C 
BRANCH  20  21
ATOM     21  C   UNL     1       1.664   4.104  18.636  0.00  0.00    +0.000 C 
ATOM     22  O   UNL     1       1.106   4.135  17.548  0.00  0.00    +0.000 OA
ATOM     23  N   UNL     1       2.916   3.557  18.826  0.00  0.00    +0.000 N 
ATOM     24  H   UNL     1       3.302   3.503  19.764  0.00  0.00    +0.000 HD
BRANCH  23  25
ATOM     25  C   UNL     1       3.639   2.927  17.747  0.00  0.00    +0.000 C 
BRANCH  25  26
ATOM     26  C   UNL     1       4.813   3.756  17.289  0.00  0.00    +0.000 A 
ATOM     27  C   UNL     1       4.990   4.041  15.928  0.00  0.00    +0.000 A 
ATOM     28  C   UNL     1       6.048   4.844  15.500  0.00  0.00    +0.000 A 
ATOM     29  C   UNL     1       6.945   5.375  16.426  0.00  0.00    +0.000 A 
ATOM     30  C   UNL     1       6.789   5.113  17.796  0.00  0.00    +0.000 A 
ATOM     31  C   UNL     1       5.715   4.306  18.215  0.00  0.00    +0.000 A 
BRANCH  30  32
ATOM     32  C   UNL     1       7.750   5.688  18.807  0.00  0.00    +0.000 C 
ATOM     33  F   UNL     1       8.809   4.873  19.079  0.00  0.00    +0.000 F 
ATOM     34  F   UNL     1       8.289   6.873  18.407  0.00  0.00    +0.000 F 
ATOM     35  F   UNL     1       7.157   5.934  20.009  0.00  0.00    +0.000 F 
ENDBRANCH  30  32
ENDBRANCH  25  26
ENDBRANCH  23  25
ENDBRANCH  20  21
ENDBRANCH  19  20
ENDBRANCH   5  19
TORSDOF 8
ENDMDL
MODEL 5
REMARK VINA RESULT:      -8.5      5.462     10.839
REMARK  Name = 
REMARK  9 active torsions:
REMARK  status: ('A' for Active; 'I' for Inactive)
REMARK    1  A    between atoms: C_1  and  C_2
REMARK    2  A    between atoms: C_5  and  S_6
REMARK    3  A    between atoms: S_6  and  N_9
REMARK    4  A    between atoms: C_13  and  C_15
REMARK    5  A    between atoms: C_15  and  C_16
REMARK    6  A    between atoms: C_16  and  C_17
REMARK    7  A    between atoms: N_19  and  C_20
REMARK    8  A    between atoms: C_20  and  C_21
REMARK    9  A    between atoms: C_25  and  C_26
REMARK                            x       y       z     vdW  Elec       q    Type
REMARK                         _______ _______ _______ _____ _____    ______ ____
ROOT
ATOM      1  N   UNL     1       5.825   5.879  17.821  0.00  0.00    +0.000 NA
ATOM      2  C   UNL     1       5.151   7.143  17.467  0.00  0.00    +0.000 C 
ATOM      3  C   UNL     1       3.658   6.840  17.513  0.00  0.00    +0.000 C 
ATOM      4  N   UNL     1       3.281   6.552  18.900  0.00  0.00    +0.000 N 
ATOM      5  C   UNL     1       2.304   7.348  19.464  0.00  0.00    +0.000 C 
ATOM      6  O   UNL     1       1.798   8.282  18.832  0.00  0.00    +0.000 OA
ATOM      7  C   UNL     1       4.037   5.438  19.526  0.00  0.00    +0.000 C 
ATOM      8  C   UNL     1       5.578   5.499  19.241  0.00  0.00    +0.000 C 
ENDROOT
BRANCH   1   9
ATOM      9  S   UNL     1       7.229   5.477  17.000  0.00  0.00    +0.000 S 
ATOM     10  O   UNL     1       7.876   4.400  17.718  0.00  0.00    +0.000 OA
ATOM     11  O   UNL     1       7.939   6.707  16.714  0.00  0.00    +0.000 OA
BRANCH   9  16
ATOM     12  C   UNL     1       5.511   3.002  11.728  0.00  0.00    +0.000 C 
ATOM     13  C   UNL     1       5.899   3.640  13.030  0.00  0.00    +0.000 A 
ATOM     14  C   UNL     1       7.055   4.423  13.112  0.00  0.00    +0.000 A 
ATOM     15  C   UNL     1       7.432   5.006  14.320  0.00  0.00    +0.000 A 
ATOM     16  C   UNL     1       6.649   4.815  15.457  0.00  0.00    +0.000 A 
ATOM     17  C   UNL     1       5.499   4.016  15.401  0.00  0.00    +0.000 A 
ATOM     18  C   UNL     1       5.123   3.439  14.182  0.00  0.00    +0.000 A 
ENDBRANCH   9  16
ENDBRANCH   1   9
BRANCH   5  19
ATOM     19  C   UNL     1       1.862   7.071  20.880  0.00  0.00    +0.000 C 
BRANCH  19  20
ATOM     20  C   UNL     1       0.509   7.749  21.147  0.00  0.00    +0.000 C 
BRANCH  20  21
ATOM     21  C   UNL     1       0.689   9.091  21.807  0.00  0.00    +0.000 C 
ATOM     22  O   UNL     1       1.710   9.404  22.404  0.00  0.00    +0.000 OA
ATOM     23  N   UNL     1      -0.392   9.937  21.668  0.00  0.00    +0.000 N 
ATOM     24  H   UNL     1      -1.236   9.600  21.216  0.00  0.00    +0.000 HD
BRANCH  23  25
ATOM     25  C   UNL     1      -0.411  11.247  22.274  0.00  0.00    +0.000 C 
BRANCH  25  26
ATOM     26  C   UNL     1      -1.729  11.951  22.066  0.00  0.00    +0.000 A 
ATOM     27  C   UNL     1      -2.107  12.382  20.787  0.00  0.00    +0.000 A 
ATOM     28  C   UNL     1      -3.344  12.993  20.578  0.00  0.00    +0.000 A 
ATOM     29  C   UNL     1      -4.222  13.181  21.644  0.00  0.00    +0.000 A 
ATOM     30  C   UNL     1      -3.876  12.753  22.934  0.00  0.00    +0.000 A 
ATOM     31  C   UNL     1      -2.627  12.133  23.131  0.00  0.00    +0.000 A 
BRANCH  30  32
ATOM     32  C   UNL     1      -4.822  12.945  24.094  0.00  0.00    +0.000 C 
ATOM     33  F   UNL     1      -4.661  14.136  24.738  0.00  0.00    +0.000 F 
ATOM     34  F   UNL     1      -6.130  12.902  23.718  0.00  0.00    +0.000 F 
ATOM     35  F   UNL     1      -4.675  11.986  25.050  0.00  0.00    +0.000 F 
ENDBRANCH  30  32
ENDBRANCH  25  26
ENDBRANCH  23  25
ENDBRANCH  20  21
ENDBRANCH  19  20
ENDBRANCH   5  19
TORSDOF 8
ENDMDL
MODEL 6
REMARK VINA RESULT:      -8.5      5.373     10.602
REMARK  Name = 
REMARK  9 active torsions:
REMARK  status: ('A' for Active; 'I' for Inactive)
REMARK    1  A    between atoms: C_1  and  C_2
REMARK    2  A    between atoms: C_5  and  S_6
REMARK    3  A    between atoms: S_6  and  N_9
REMARK    4  A    between atoms: C_13  and  C_15
REMARK    5  A    between atoms: C_15  and  C_16
REMARK    6  A    between atoms: C_16  and  C_17
REMARK    7  A    between atoms: N_19  and  C_20
REMARK    8  A    between atoms: C_20  and  C_21
REMARK    9  A    between atoms: C_25  and  C_26
REMARK                            x       y       z     vdW  Elec       q    Type
REMARK                         _______ _______ _______ _____ _____    ______ ____
ROOT
ATOM      1  N   UNL     1       5.706   5.889  17.646  0.00  0.00    +0.000 NA
ATOM      2  C   UNL     1       5.167   7.244  17.423  0.00  0.00    +0.000 C 
ATOM      3  C   UNL     1       3.655   7.076  17.336  0.00  0.00    +0.000 C 
ATOM      4  N   UNL     1       3.154   6.650  18.646  0.00  0.00    +0.000 N 
ATOM      5  C   UNL     1       2.208   7.454  19.250  0.00  0.00    +0.000 C 
ATOM      6  O   UNL     1       1.830   8.503  18.718  0.00  0.00    +0.000 OA
ATOM      7  C   UNL     1       3.767   5.400  19.163  0.00  0.00    +0.000 C 
ATOM      8  C   UNL     1       5.325   5.355  18.985  0.00  0.00    +0.000 C 
ENDROOT
BRANCH   1   9
ATOM      9  S   UNL     1       7.128   5.467  16.867  0.00  0.00    +0.000 S 
ATOM     10  O   UNL     1       7.741   4.384  17.606  0.00  0.00    +0.000 OA
ATOM     11  O   UNL     1       7.861   6.687  16.598  0.00  0.00    +0.000 OA
BRANCH   9  16
ATOM     12  C   UNL     1       5.528   2.992  11.558  0.00  0.00    +0.000 C 
ATOM     13  C   UNL     1       5.888   3.631  12.868  0.00  0.00    +0.000 A 
ATOM     14  C   UNL     1       7.065   4.377  12.986  0.00  0.00    +0.000 A 
ATOM     15  C   UNL     1       7.416   4.960  14.201  0.00  0.00    +0.000 A 
ATOM     16  C   UNL     1       6.585   4.807  15.309  0.00  0.00    +0.000 A 
ATOM     17  C   UNL     1       5.412   4.046  15.218  0.00  0.00    +0.000 A 
ATOM     18  C   UNL     1       5.064   3.468  13.991  0.00  0.00    +0.000 A 
ENDBRANCH   9  16
ENDBRANCH   1   9
BRANCH   5  19
ATOM     19  C   UNL     1       1.642   7.040  20.585  0.00  0.00    +0.000 C 
BRANCH  19  20
ATOM     20  C   UNL     1       1.561   8.258  21.518  0.00  0.00    +0.000 C 
BRANCH  20  21
ATOM     21  C   UNL     1       0.202   8.905  21.461  0.00  0.00    +0.000 C 
ATOM     22  O   UNL     1      -0.792   8.403  21.969  0.00  0.00    +0.000 OA
ATOM     23  N   UNL     1       0.180  10.113  20.796  0.00  0.00    +0.000 N 
ATOM     24  H   UNL     1       1.023  10.449  20.340  0.00  0.00    +0.000 HD
BRANCH  23  25
ATOM     25  C   UNL     1      -1.046  10.851  20.607  0.00  0.00    +0.000 C 
BRANCH  25  26
ATOM     26  C   UNL     1      -1.215  11.947  21.629  0.00  0.00    +0.000 A 
ATOM     27  C   UNL     1      -0.248  12.953  21.754  0.00  0.00    +0.000 A 
ATOM     28  C   UNL     1      -0.417  13.996  22.666  0.00  0.00    +0.000 A 
ATOM     29  C   UNL     1      -1.558  14.049  23.466  0.00  0.00    +0.000 A 
ATOM     30  C   UNL     1      -2.547  13.060  23.358  0.00  0.00    +0.000 A 
ATOM     31  C   UNL     1      -2.367  12.017  22.431  0.00  0.00    +0.000 A 
BRANCH  30  32
ATOM     32  C   UNL     1      -3.789  13.111  24.215  0.00  0.00    +0.000 C 
ATOM     33  F   UNL     1      -3.650  13.879  25.332  0.00  0.00    +0.000 F 
ATOM     34  F   UNL     1      -4.865  13.617  23.551  0.00  0.00    +0.000 F 
ATOM     35  F   UNL     1      -4.167  11.880  24.657  0.00  0.00    +0.000 F 
ENDBRANCH  30  32
ENDBRANCH  25  26
ENDBRANCH  23  25
ENDBRANCH  20  21
ENDBRANCH  19  20
ENDBRANCH   5  19
TORSDOF 8
ENDMDL
MODEL 7
REMARK VINA RESULT:      -8.4      1.791      2.371
REMARK  Name = 
REMARK  9 active torsions:
REMARK  status: ('A' for Active; 'I' for Inactive)
REMARK    1  A    between atoms: C_1  and  C_2
REMARK    2  A    between atoms: C_5  and  S_6
REMARK    3  A    between atoms: S_6  and  N_9
REMARK    4  A    between atoms: C_13  and  C_15
REMARK    5  A    between atoms: C_15  and  C_16
REMARK    6  A    between atoms: C_16  and  C_17
REMARK    7  A    between atoms: N_19  and  C_20
REMARK    8  A    between atoms: C_20  and  C_21
REMARK    9  A    between atoms: C_25  and  C_26
REMARK                            x       y       z     vdW  Elec       q    Type
REMARK                         _______ _______ _______ _____ _____    ______ ____
ROOT
ATOM      1  N   UNL     1       0.645  10.538  19.727  0.00  0.00    +0.000 NA
ATOM      2  C   UNL     1       0.919   9.673  18.564  0.00  0.00    +0.000 C 
ATOM      3  C   UNL     1       2.127   8.830  18.953  0.00  0.00    +0.000 C 
ATOM      4  N   UNL     1       1.740   7.932  20.046  0.00  0.00    +0.000 N 
ATOM      5  C   UNL     1       1.892   6.577  19.830  0.00  0.00    +0.000 C 
ATOM      6  O   UNL     1       2.307   6.145  18.749  0.00  0.00    +0.000 OA
ATOM      7  C   UNL     1       1.201   8.620  21.246  0.00  0.00    +0.000 C 
ATOM      8  C   UNL     1       0.172   9.753  20.902  0.00  0.00    +0.000 C 
ENDROOT
BRANCH   1   9
ATOM      9  S   UNL     1       0.177  12.121  19.440  0.00  0.00    +0.000 S 
ATOM     10  O   UNL     1       0.914  12.607  18.294  0.00  0.00    +0.000 OA
ATOM     11  O   UNL     1       0.221  12.829  20.703  0.00  0.00    +0.000 OA
BRANCH   9  16
ATOM     12  C   UNL     1      -5.624  11.315  17.832  0.00  0.00    +0.000 C 
ATOM     13  C   UNL     1      -4.196  11.559  18.225  0.00  0.00    +0.000 A 
ATOM     14  C   UNL     1      -3.155  11.107  17.407  0.00  0.00    +0.000 A 
ATOM     15  C   UNL     1      -1.827  11.314  17.771  0.00  0.00    +0.000 A 
ATOM     16  C   UNL     1      -1.528  11.983  18.956  0.00  0.00    +0.000 A 
ATOM     17  C   UNL     1      -2.555  12.425  19.801  0.00  0.00    +0.000 A 
ATOM     18  C   UNL     1      -3.888  12.218  19.425  0.00  0.00    +0.000 A 
ENDBRANCH   9  16
ENDBRANCH   1   9
BRANCH   5  19
ATOM     19  C   UNL     1       1.535   5.617  20.937  0.00  0.00    +0.000 C 
BRANCH  19  20
ATOM     20  C   UNL     1       1.118   4.264  20.340  0.00  0.00    +0.000 C 
BRANCH  20  21
ATOM     21  C   UNL     1       2.320   3.429  19.981  0.00  0.00    +0.000 C 
ATOM     22  O   UNL     1       3.007   2.863  20.819  0.00  0.00    +0.000 OA
ATOM     23  N   UNL     1       2.567   3.350  18.626  0.00  0.00    +0.000 N 
ATOM     24  H   UNL     1       2.000   3.893  17.982  0.00  0.00    +0.000 HD
BRANCH  23  25
ATOM     25  C   UNL     1       3.703   2.629  18.103  0.00  0.00    +0.000 C 
BRANCH  25  26
ATOM     26  C   UNL     1       4.822   3.552  17.689  0.00  0.00    +0.000 A 
ATOM     27  C   UNL     1       5.573   4.232  18.657  0.00  0.00    +0.000 A 
ATOM     28  C   UNL     1       6.639   5.053  18.285  0.00  0.00    +0.000 A 
ATOM     29  C   UNL     1       6.970   5.205  16.939  0.00  0.00    +0.000 A 
ATOM     30  C   UNL     1       6.241   4.531  15.948  0.00  0.00    +0.000 A 
ATOM     31  C   UNL     1       5.172   3.702  16.336  0.00  0.00    +0.000 A 
BRANCH  30  32
ATOM     32  C   UNL     1       6.595   4.683  14.489  0.00  0.00    +0.000 C 
ATOM     33  F   UNL     1       5.767   5.527  13.811  0.00  0.00    +0.000 F 
ATOM     34  F   UNL     1       7.853   5.171  14.301  0.00  0.00    +0.000 F 
ATOM     35  F   UNL     1       6.548   3.500  13.815  0.00  0.00    +0.000 F 
ENDBRANCH  30  32
ENDBRANCH  25  26
ENDBRANCH  23  25
ENDBRANCH  20  21
ENDBRANCH  19  20
ENDBRANCH   5  19
TORSDOF 8
ENDMDL
MODEL 8
REMARK VINA RESULT:      -8.4      4.668      9.737
REMARK  Name = 
REMARK  9 active torsions:
REMARK  status: ('A' for Active; 'I' for Inactive)
REMARK    1  A    between atoms: C_1  and  C_2
REMARK    2  A    between atoms: C_5  and  S_6
REMARK    3  A    between atoms: S_6  and  N_9
REMARK    4  A    between atoms: C_13  and  C_15
REMARK    5  A    between atoms: C_15  and  C_16
REMARK    6  A    between atoms: C_16  and  C_17
REMARK    7  A    between atoms: N_19  and  C_20
REMARK    8  A    between atoms: C_20  and  C_21
REMARK    9  A    between atoms: C_25  and  C_26
REMARK                            x       y       z     vdW  Elec       q    Type
REMARK                         _______ _______ _______ _____ _____    ______ ____
ROOT
ATOM      1  N   UNL     1       5.865   5.479  17.499  0.00  0.00    +0.000 NA
ATOM      2  C   UNL     1       5.378   4.285  18.217  0.00  0.00    +0.000 C 
ATOM      3  C   UNL     1       4.947   4.780  19.592  0.00  0.00    +0.000 C 
ATOM      4  N   UNL     1       3.786   5.659  19.431  0.00  0.00    +0.000 N 
ATOM      5  C   UNL     1       2.631   5.305  20.100  0.00  0.00    +0.000 C 
ATOM      6  O   UNL     1       2.576   4.273  20.777  0.00  0.00    +0.000 OA
ATOM      7  C   UNL     1       4.011   6.818  18.531  0.00  0.00    +0.000 C 
ATOM      8  C   UNL     1       4.762   6.438  17.207  0.00  0.00    +0.000 C 
ENDROOT
BRANCH   1   9
ATOM      9  S   UNL     1       7.213   5.314  16.518  0.00  0.00    +0.000 S 
ATOM     10  O   UNL     1       8.054   4.279  17.080  0.00  0.00    +0.000 OA
ATOM     11  O   UNL     1       7.740   6.640  16.267  0.00  0.00    +0.000 OA
BRANCH   9  16
ATOM     12  C   UNL     1       5.219   2.962  11.286  0.00  0.00    +0.000 C 
ATOM     13  C   UNL     1       5.677   3.572  12.579  0.00  0.00    +0.000 A 
ATOM     14  C   UNL     1       6.891   4.265  12.638  0.00  0.00    +0.000 A 
ATOM     15  C   UNL     1       7.333   4.821  13.836  0.00  0.00    +0.000 A 
ATOM     16  C   UNL     1       6.557   4.693  14.987  0.00  0.00    +0.000 A 
ATOM     17  C   UNL     1       5.349   3.985  14.955  0.00  0.00    +0.000 A 
ATOM     18  C   UNL     1       4.909   3.434  13.745  0.00  0.00    +0.000 A 
ENDBRANCH   9  16
ENDBRANCH   1   9
BRANCH   5  19
ATOM     19  C   UNL     1       1.419   6.197  19.988  0.00  0.00    +0.000 C 
BRANCH  19  20
ATOM     20  C   UNL     1       1.312   7.092  21.232  0.00  0.00    +0.000 C 
BRANCH  20  21
ATOM     21  C   UNL     1       1.329   8.552  20.862  0.00  0.00    +0.000 C 
ATOM     22  O   UNL     1       1.330   9.447  21.696  0.00  0.00    +0.000 OA
ATOM     23  N   UNL     1       1.357   8.788  19.503  0.00  0.00    +0.000 N 
ATOM     24  H   UNL     1       1.291   8.006  18.858  0.00  0.00    +0.000 HD
BRANCH  23  25
ATOM     25  C   UNL     1       1.332  10.128  18.966  0.00  0.00    +0.000 C 
BRANCH  25  26
ATOM     26  C   UNL     1      -0.060  10.710  18.953  0.00  0.00    +0.000 A 
ATOM     27  C   UNL     1      -0.359  11.845  19.717  0.00  0.00    +0.000 A 
ATOM     28  C   UNL     1      -1.632  12.417  19.676  0.00  0.00    +0.000 A 
ATOM     29  C   UNL     1      -2.624  11.862  18.869  0.00  0.00    +0.000 A 
ATOM     30  C   UNL     1      -2.352  10.730  18.086  0.00  0.00    +0.000 A 
ATOM     31  C   UNL     1      -1.063  10.166  18.132  0.00  0.00    +0.000 A 
BRANCH  30  32
ATOM     32  C   UNL     1      -3.417  10.125  17.204  0.00  0.00    +0.000 C 
ATOM     33  F   UNL     1      -2.917   9.430  16.143  0.00  0.00    +0.000 F 
ATOM     34  F   UNL     1      -4.220   9.252  17.872  0.00  0.00    +0.000 F 
ATOM     35  F   UNL     1      -4.247  11.065  16.671  0.00  0.00    +0.000 F 
ENDBRANCH  30  32
ENDBRANCH  25  26
ENDBRANCH  23  25
ENDBRANCH  20  21
ENDBRANCH  19  20
ENDBRANCH   5  19
TORSDOF 8
ENDMDL
MODEL 9
REMARK VINA RESULT:      -8.4      5.082      7.526
REMARK  Name = 
REMARK  9 active torsions:
REMARK  status: ('A' for Active; 'I' for Inactive)
REMARK    1  A    between atoms: C_1  and  C_2
REMARK    2  A    between atoms: C_5  and  S_6
REMARK    3  A    between atoms: S_6  and  N_9
REMARK    4  A    between atoms: C_13  and  C_15
REMARK    5  A    between atoms: C_15  and  C_16
REMARK    6  A    between atoms: C_16  and  C_17
REMARK    7  A    between atoms: N_19  and  C_20
REMARK    8  A    between atoms: C_20  and  C_21
REMARK    9  A    between atoms: C_25  and  C_26
REMARK                            x       y       z     vdW  Elec       q    Type
REMARK                         _______ _______ _______ _____ _____    ______ ____
ROOT
ATOM      1  N   UNL     1       2.780  15.213  19.224  0.00  0.00    +0.000 NA
ATOM      2  C   UNL     1       2.076  14.278  18.326  0.00  0.00    +0.000 C 
ATOM      3  C   UNL     1       2.234  12.902  18.960  0.00  0.00    +0.000 C 
ATOM      4  N   UNL     1       1.497  12.882  20.227  0.00  0.00    +0.000 N 
ATOM      5  C   UNL     1       0.508  11.928  20.365  0.00  0.00    +0.000 C 
ATOM      6  O   UNL     1       0.238  11.151  19.443  0.00  0.00    +0.000 OA
ATOM      7  C   UNL     1       1.910  13.929  21.196  0.00  0.00    +0.000 C 
ATOM      8  C   UNL     1       2.092  15.342  20.540  0.00  0.00    +0.000 C 
ENDROOT
BRANCH   1   9
ATOM      9  S   UNL     1       3.664  16.457  18.531  0.00  0.00    +0.000 S 
ATOM     10  O   UNL     1       3.603  17.599  19.417  0.00  0.00    +0.000 OA
ATOM     11  O   UNL     1       3.253  16.572  17.147  0.00  0.00    +0.000 OA
BRANCH   9  16
ATOM     12  C   UNL     1       9.405  14.496  18.271  0.00  0.00    +0.000 C 
ATOM     13  C   UNL     1       7.985  14.970  18.380  0.00  0.00    +0.000 A 
ATOM     14  C   UNL     1       6.966  14.300  17.694  0.00  0.00    +0.000 A 
ATOM     15  C   UNL     1       5.648  14.743  17.775  0.00  0.00    +0.000 A 
ATOM     16  C   UNL     1       5.337  15.857  18.551  0.00  0.00    +0.000 A 
ATOM     17  C   UNL     1       6.345  16.556  19.228  0.00  0.00    +0.000 A 
ATOM     18  C   UNL     1       7.667  16.102  19.146  0.00  0.00    +0.000 A 
ENDBRANCH   9  16
ENDBRANCH   1   9
BRANCH   5  19
ATOM     19  C   UNL     1      -0.257  11.851  21.663  0.00  0.00    +0.000 C 
BRANCH  19  20
ATOM     20  C   UNL     1      -0.720  10.407  21.910  0.00  0.00    +0.000 C 
BRANCH  20  21
ATOM     21  C   UNL     1       0.438   9.513  22.270  0.00  0.00    +0.000 C 
ATOM     22  O   UNL     1       1.027   9.590  23.339  0.00  0.00    +0.000 OA
ATOM     23  N   UNL     1       0.765   8.595  21.294  0.00  0.00    +0.000 N 
ATOM     24  H   UNL     1       0.281   8.619  20.401  0.00  0.00    +0.000 HD
BRANCH  23  25
ATOM     25  C   UNL     1       1.876   7.687  21.450  0.00  0.00    +0.000 C 
BRANCH  25  26
ATOM     26  C   UNL     1       1.921   6.649  20.357  0.00  0.00    +0.000 A 
ATOM     27  C   UNL     1       2.393   6.985  19.081  0.00  0.00    +0.000 A 
ATOM     28  C   UNL     1       2.481   6.020  18.077  0.00  0.00    +0.000 A 
ATOM     29  C   UNL     1       2.099   4.704  18.333  0.00  0.00    +0.000 A 
ATOM     30  C   UNL     1       1.630   4.336  19.603  0.00  0.00    +0.000 A 
ATOM     31  C   UNL     1       1.551   5.317  20.609  0.00  0.00    +0.000 A 
BRANCH  30  32
ATOM     32  C   UNL     1       1.221   2.913  19.893  0.00  0.00    +0.000 C 
ATOM     33  F   UNL     1       0.166   2.484  19.144  0.00  0.00    +0.000 F 
ATOM     34  F   UNL     1       2.224   2.020  19.665  0.00  0.00    +0.000 F 
ATOM     35  F   UNL     1       0.848   2.732  21.192  0.00  0.00    +0.000 F 
ENDBRANCH  30  32
ENDBRANCH  25  26
ENDBRANCH  23  25
ENDBRANCH  20  21
ENDBRANCH  19  20
ENDBRANCH   5  19
TORSDOF 8
ENDMDL
