MODEL 1
REMARK VINA RESULT:      -6.4      0.000      0.000
REMARK  Name = 
REMARK  12 active torsions:
REMARK  status: ('A' for Active; 'I' for Inactive)
REMARK    1  A    between atoms: C_1  and  N_2
REMARK    2  A    between atoms: N_2  and  C_3
REMARK    3  A    between atoms: N_2  and  C_4
REMARK    4  A    between atoms: C_7  and  C_8
REMARK    5  A    between atoms: N_10  and  C_11
REMARK    6  A    between atoms: N_10  and  C_15
REMARK    7  A    between atoms: C_11  and  C_12
REMARK    8  A    between atoms: C_12  and  C_13
REMARK    9  A    between atoms: C_15  and  C_16
REMARK   10  A    between atoms: C_16  and  C_17
REMARK   11  A    between atoms: C_16  and  C_18
REMARK   12  A    between atoms: C_16  and  C_19
REMARK                            x       y       z     vdW  Elec       q    Type
REMARK                         _______ _______ _______ _____ _____    ______ ____
ROOT
ATOM      1  C   UNL     1       2.791   6.972  18.705  0.00  0.00    +0.000 C 
ATOM      2  O   UNL     1       3.579   7.117  17.756  0.00  0.00    +0.000 OA
ATOM      3  N   UNL     1       2.789   5.740  19.408  0.00  0.00    +0.000 N 
ENDROOT
BRANCH   1   7
ATOM      4  C   UNL     1       0.032  10.253  19.386  0.00  0.00    +0.000 A 
ATOM      5  C   UNL     1       0.565   9.974  18.126  0.00  0.00    +0.000 A 
ATOM      6  C   UNL     1       1.498   8.949  17.939  0.00  0.00    +0.000 A 
ATOM      7  C   UNL     1       1.914   8.173  19.020  0.00  0.00    +0.000 A 
ATOM      8  N   UNL     1       1.487   8.439  20.276  0.00  0.00    +0.000 NA
ATOM      9  C   UNL     1       0.592   9.477  20.416  0.00  0.00    +0.000 A 
BRANCH   4  11
ATOM     10  C   UNL     1      -1.421  11.988  18.387  0.00  0.00    +0.000 C 
ATOM     11  N   UNL     1      -0.949  11.242  19.550  0.00  0.00    +0.000 N 
ATOM     12  C   UNL     1      -0.864  12.033  20.788  0.00  0.00    +0.000 C 
ENDBRANCH   4  11
ENDBRANCH   1   7
BRANCH   3  13
ATOM     13  C   UNL     1       1.943   5.433  20.572  0.00  0.00    +0.000 C 
BRANCH  13  14
ATOM     14  C   UNL     1       1.055   4.194  20.426  0.00  0.00    +0.000 C 
BRANCH  14  15
ATOM     15  C   UNL     1       1.412   3.113  21.348  0.00  0.00    +0.000 C 
ATOM     16  N   UNL     1       1.707   2.299  22.115  0.00  0.00    +0.000 NA
ENDBRANCH  14  15
ENDBRANCH  13  14
ENDBRANCH   3  13
BRANCH   3  17
ATOM     17  C   UNL     1       3.878   4.778  19.093  0.00  0.00    +0.000 C 
BRANCH  17  18
ATOM     18  C   UNL     1       3.645   3.721  17.964  0.00  0.00    +0.000 C 
ATOM     19  C   UNL     1       4.692   3.829  16.846  0.00  0.00    +0.000 C 
ATOM     20  C   UNL     1       3.774   2.311  18.594  0.00  0.00    +0.000 C 
ATOM     21  C   UNL     1       2.245   3.816  17.344  0.00  0.00    +0.000 C 
ENDBRANCH  17  18
ENDBRANCH   3  17
TORSDOF 7
ENDMDL
MODEL 2
REMARK VINA RESULT:      -6.4      0.280      1.217
REMARK  Name = 
REMARK  12 active torsions:
REMARK  status: ('A' for Active; 'I' for Inactive)
REMARK    1  A    between atoms: C_1  and  N_2
REMARK    2  A    between atoms: N_2  and  C_3
REMARK    3  A    between atoms: N_2  and  C_4
REMARK    4  A    between atoms: C_7  and  C_8
REMARK    5  A    between atoms: N_10  and  C_11
REMARK    6  A    between atoms: N_10  and  C_15
REMARK    7  A    between atoms: C_11  and  C_12
REMARK    8  A    between atoms: C_12  and  C_13
REMARK    9  A    between atoms: C_15  and  C_16
REMARK   10  A    between atoms: C_16  and  C_17
REMARK   11  A    between atoms: C_16  and  C_18
REMARK   12  A    between atoms: C_16  and  C_19
REMARK                            x       y       z     vdW  Elec       q    Type
REMARK                         _______ _______ _______ _____ _____    ______ ____
ROOT
ATOM      1  C   UNL     1       2.848   6.887  18.687  0.00  0.00    +0.000 C 
ATOM      2  O   UNL     1       3.651   6.997  17.746  0.00  0.00    +0.000 OA
ATOM      3  N   UNL     1       2.817   5.672  19.418  0.00  0.00    +0.000 N 
ENDROOT
BRANCH   1   7
ATOM      4  C   UNL     1       0.140  10.231  19.250  0.00  0.00    +0.000 A 
ATOM      5  C   UNL     1       0.702   9.926  18.009  0.00  0.00    +0.000 A 
ATOM      6  C   UNL     1       1.619   8.880  17.861  0.00  0.00    +0.000 A 
ATOM      7  C   UNL     1       1.988   8.110  18.962  0.00  0.00    +0.000 A 
ATOM      8  N   UNL     1       1.531   8.400  20.202  0.00  0.00    +0.000 NA
ATOM      9  C   UNL     1       0.654   9.458  20.304  0.00  0.00    +0.000 A 
BRANCH   4  11
ATOM     10  C   UNL     1      -1.047  11.869  20.675  0.00  0.00    +0.000 C 
ATOM     11  N   UNL     1      -0.825  11.243  19.374  0.00  0.00    +0.000 N 
ATOM     12  C   UNL     1      -2.039  11.077  18.562  0.00  0.00    +0.000 C 
ENDBRANCH   4  11
ENDBRANCH   1   7
BRANCH   3  13
ATOM     13  C   UNL     1       1.950   5.406  20.577  0.00  0.00    +0.000 C 
BRANCH  13  14
ATOM     14  C   UNL     1       1.060   4.166  20.457  0.00  0.00    +0.000 C 
BRANCH  14  15
ATOM     15  C   UNL     1       1.428   3.096  21.388  0.00  0.00    +0.000 C 
ATOM     16  N   UNL     1       1.701   2.213  22.083  0.00  0.00    +0.000 NA
ENDBRANCH  14  15
ENDBRANCH  13  14
ENDBRANCH   3  13
BRANCH   3  17
ATOM     17  C   UNL     1       3.893   4.685  19.139  0.00  0.00    +0.000 C 
BRANCH  17  18
ATOM     18  C   UNL     1       3.642   3.581  18.060  0.00  0.00    +0.000 C 
ATOM     19  C   UNL     1       2.285   3.753  17.362  0.00  0.00    +0.000 C 
ATOM     20  C   UNL     1       4.746   3.707  16.979  0.00  0.00    +0.000 C 
ATOM     21  C   UNL     1       3.729   2.161  18.635  0.00  0.00    +0.000 C 
ENDBRANCH  17  18
ENDBRANCH   3  17
TORSDOF 7
ENDMDL
MODEL 3
REMARK VINA RESULT:      -6.4      2.057      3.207
REMARK  Name = 
REMARK  12 active torsions:
REMARK  status: ('A' for Active; 'I' for Inactive)
REMARK    1  A    between atoms: C_1  and  N_2
REMARK    2  A    between atoms: N_2  and  C_3
REMARK    3  A    between atoms: N_2  and  C_4
REMARK    4  A    between atoms: C_7  and  C_8
REMARK    5  A    between atoms: N_10  and  C_11
REMARK    6  A    between atoms: N_10  and  C_15
REMARK    7  A    between atoms: C_11  and  C_12
REMARK    8  A    between atoms: C_12  and  C_13
REMARK    9  A    between atoms: C_15  and  C_16
REMARK   10  A    between atoms: C_16  and  C_17
REMARK   11  A    between atoms: C_16  and  C_18
REMARK   12  A    between atoms: C_16  and  C_19
REMARK                            x       y       z     vdW  Elec       q    Type
REMARK                         _______ _______ _______ _____ _____    ______ ____
ROOT
ATOM      1  C   UNL     1       2.435   5.645  20.000  0.00  0.00    +0.000 C 
ATOM      2  O   UNL     1       1.596   5.025  20.673  0.00  0.00    +0.000 OA
ATOM      3  N   UNL     1       3.585   4.955  19.539  0.00  0.00    +0.000 N 
ENDROOT
BRANCH   1   7
ATOM      4  C   UNL     1       1.258   9.693  18.967  0.00  0.00    +0.000 A 
ATOM      5  C   UNL     1       1.874   8.838  18.051  0.00  0.00    +0.000 A 
ATOM      6  C   UNL     1       2.299   7.557  18.422  0.00  0.00    +0.000 A 
ATOM      7  C   UNL     1       2.108   7.104  19.726  0.00  0.00    +0.000 A 
ATOM      8  N   UNL     1       1.580   7.911  20.675  0.00  0.00    +0.000 NA
ATOM      9  C   UNL     1       1.204   9.173  20.272  0.00  0.00    +0.000 A 
BRANCH   4  11
ATOM     10  C   UNL     1       1.515  12.153  18.952  0.00  0.00    +0.000 C 
ATOM     11  N   UNL     1       0.781  10.951  18.568  0.00  0.00    +0.000 N 
ATOM     12  C   UNL     1      -0.682  11.108  18.551  0.00  0.00    +0.000 C 
ENDBRANCH   4  11
ENDBRANCH   1   7
BRANCH   3  13
ATOM     13  C   UNL     1       4.644   5.542  18.704  0.00  0.00    +0.000 C 
BRANCH  13  14
ATOM     14  C   UNL     1       6.075   5.269  19.175  0.00  0.00    +0.000 C 
BRANCH  14  15
ATOM     15  C   UNL     1       6.980   4.881  18.089  0.00  0.00    +0.000 C 
ATOM     16  N   UNL     1       7.657   4.531  17.220  0.00  0.00    +0.000 NA
ENDBRANCH  14  15
ENDBRANCH  13  14
ENDBRANCH   3  13
BRANCH   3  17
ATOM     17  C   UNL     1       3.607   3.479  19.718  0.00  0.00    +0.000 C 
BRANCH  17  18
ATOM     18  C   UNL     1       2.866   2.582  18.673  0.00  0.00    +0.000 C 
ATOM     19  C   UNL     1       2.644   3.311  17.339  0.00  0.00    +0.000 C 
ATOM     20  C   UNL     1       3.753   1.343  18.390  0.00  0.00    +0.000 C 
ATOM     21  C   UNL     1       1.515   2.066  19.187  0.00  0.00    +0.000 C 
ENDBRANCH  17  18
ENDBRANCH   3  17
TORSDOF 7
ENDMDL
MODEL 4
REMARK VINA RESULT:      -6.2      1.889      2.930
REMARK  Name = 
REMARK  12 active torsions:
REMARK  status: ('A' for Active; 'I' for Inactive)
REMARK    1  A    between atoms: C_1  and  N_2
REMARK    2  A    between atoms: N_2  and  C_3
REMARK    3  A    between atoms: N_2  and  C_4
REMARK    4  A    between atoms: C_7  and  C_8
REMARK    5  A    between atoms: N_10  and  C_11
REMARK    6  A    between atoms: N_10  and  C_15
REMARK    7  A    between atoms: C_11  and  C_12
REMARK    8  A    between atoms: C_12  and  C_13
REMARK    9  A    between atoms: C_15  and  C_16
REMARK   10  A    between atoms: C_16  and  C_17
REMARK   11  A    between atoms: C_16  and  C_18
REMARK   12  A    between atoms: C_16  and  C_19
REMARK                            x       y       z     vdW  Elec       q    Type
REMARK                         _______ _______ _______ _____ _____    ______ ____
ROOT
ATOM      1  C   UNL     1       2.343   6.027  19.983  0.00  0.00    +0.000 C 
ATOM      2  O   UNL     1       1.604   5.428  20.780  0.00  0.00    +0.000 OA
ATOM      3  N   UNL     1       3.416   5.320  19.383  0.00  0.00    +0.000 N 
ENDROOT
BRANCH   1   7
ATOM      4  C   UNL     1       1.071  10.059  19.002  0.00  0.00    +0.000 A 
ATOM      5  C   UNL     1       1.656   9.211  18.060  0.00  0.00    +0.000 A 
ATOM      6  C   UNL     1       2.113   7.936  18.412  0.00  0.00    +0.000 A 
ATOM      7  C   UNL     1       1.986   7.482  19.723  0.00  0.00    +0.000 A 
ATOM      8  N   UNL     1       1.491   8.283  20.695  0.00  0.00    +0.000 NA
ATOM      9  C   UNL     1       1.082   9.541  20.308  0.00  0.00    +0.000 A 
BRANCH   4  11
ATOM     10  C   UNL     1       1.207  12.527  19.109  0.00  0.00    +0.000 C 
ATOM     11  N   UNL     1       0.560  11.311  18.624  0.00  0.00    +0.000 N 
ATOM     12  C   UNL     1      -0.903  11.401  18.511  0.00  0.00    +0.000 C 
ENDBRANCH   4  11
ENDBRANCH   1   7
BRANCH   3  13
ATOM     13  C   UNL     1       4.351   5.881  18.395  0.00  0.00    +0.000 C 
BRANCH  13  14
ATOM     14  C   UNL     1       5.633   5.073  18.176  0.00  0.00    +0.000 C 
BRANCH  14  15
ATOM     15  C   UNL     1       6.642   5.292  19.216  0.00  0.00    +0.000 C 
ATOM     16  N   UNL     1       7.467   5.497  20.000  0.00  0.00    +0.000 NA
ENDBRANCH  14  15
ENDBRANCH  13  14
ENDBRANCH   3  13
BRANCH   3  17
ATOM     17  C   UNL     1       3.458   3.848  19.592  0.00  0.00    +0.000 C 
BRANCH  17  18
ATOM     18  C   UNL     1       2.625   2.928  18.639  0.00  0.00    +0.000 C 
ATOM     19  C   UNL     1       3.475   1.799  18.038  0.00  0.00    +0.000 C 
ATOM     20  C   UNL     1       1.495   2.273  19.472  0.00  0.00    +0.000 C 
ATOM     21  C   UNL     1       1.956   3.708  17.499  0.00  0.00    +0.000 C 
ENDBRANCH  17  18
ENDBRANCH   3  17
TORSDOF 7
ENDMDL
MODEL 5
REMARK VINA RESULT:      -6.2      3.247      7.317
REMARK  Name = 
REMARK  12 active torsions:
REMARK  status: ('A' for Active; 'I' for Inactive)
REMARK    1  A    between atoms: C_1  and  N_2
REMARK    2  A    between atoms: N_2  and  C_3
REMARK    3  A    between atoms: N_2  and  C_4
REMARK    4  A    between atoms: C_7  and  C_8
REMARK    5  A    between atoms: N_10  and  C_11
REMARK    6  A    between atoms: N_10  and  C_15
REMARK    7  A    between atoms: C_11  and  C_12
REMARK    8  A    between atoms: C_12  and  C_13
REMARK    9  A    between atoms: C_15  and  C_16
REMARK   10  A    between atoms: C_16  and  C_17
REMARK   11  A    between atoms: C_16  and  C_18
REMARK   12  A    between atoms: C_16  and  C_19
REMARK                            x       y       z     vdW  Elec       q    Type
REMARK                         _______ _______ _______ _____ _____    ______ ____
ROOT
ATOM      1  C   UNL     1       4.863   4.118  18.176  0.00  0.00    +0.000 C 
ATOM      2  O   UNL     1       5.254   3.203  18.919  0.00  0.00    +0.000 OA
ATOM      3  N   UNL     1       3.781   4.929  18.603  0.00  0.00    +0.000 N 
ENDROOT
BRANCH   1   7
ATOM      4  C   UNL     1       6.751   4.744  14.318  0.00  0.00    +0.000 A 
ATOM      5  C   UNL     1       5.608   3.957  14.471  0.00  0.00    +0.000 A 
ATOM      6  C   UNL     1       5.049   3.720  15.732  0.00  0.00    +0.000 A 
ATOM      7  C   UNL     1       5.628   4.276  16.872  0.00  0.00    +0.000 A 
ATOM      8  N   UNL     1       6.775   4.990  16.795  0.00  0.00    +0.000 NA
ATOM      9  C   UNL     1       7.305   5.172  15.536  0.00  0.00    +0.000 A 
BRANCH   4  11
ATOM     10  C   UNL     1       7.131   4.035  11.979  0.00  0.00    +0.000 C 
ATOM     11  N   UNL     1       7.265   5.025  13.043  0.00  0.00    +0.000 N 
ATOM     12  C   UNL     1       8.522   5.789  13.011  0.00  0.00    +0.000 C 
ENDBRANCH   4  11
ENDBRANCH   1   7
BRANCH   3  13
ATOM     13  C   UNL     1       3.232   6.070  17.854  0.00  0.00    +0.000 C 
BRANCH  13  14
ATOM     14  C   UNL     1       2.556   7.148  18.705  0.00  0.00    +0.000 C 
BRANCH  14  15
ATOM     15  C   UNL     1       2.267   8.377  17.961  0.00  0.00    +0.000 C 
ATOM     16  N   UNL     1       1.999   9.360  17.414  0.00  0.00    +0.000 NA
ENDBRANCH  14  15
ENDBRANCH  13  14
ENDBRANCH   3  13
BRANCH   3  17
ATOM     17  C   UNL     1       3.320   4.760  20.007  0.00  0.00    +0.000 C 
BRANCH  17  18
ATOM     18  C   UNL     1       2.121   3.798  20.295  0.00  0.00    +0.000 C 
ATOM     19  C   UNL     1       1.894   2.798  19.152  0.00  0.00    +0.000 C 
ATOM     20  C   UNL     1       2.454   2.985  21.572  0.00  0.00    +0.000 C 
ATOM     21  C   UNL     1       0.811   4.551  20.565  0.00  0.00    +0.000 C 
ENDBRANCH  17  18
ENDBRANCH   3  17
TORSDOF 7
ENDMDL
MODEL 6
REMARK VINA RESULT:      -6.1      3.270      7.392
REMARK  Name = 
REMARK  12 active torsions:
REMARK  status: ('A' for Active; 'I' for Inactive)
REMARK    1  A    between atoms: C_1  and  N_2
REMARK    2  A    between atoms: N_2  and  C_3
REMARK    3  A    between atoms: N_2  and  C_4
REMARK    4  A    between atoms: C_7  and  C_8
REMARK    5  A    between atoms: N_10  and  C_11
REMARK    6  A    between atoms: N_10  and  C_15
REMARK    7  A    between atoms: C_11  and  C_12
REMARK    8  A    between atoms: C_12  and  C_13
REMARK    9  A    between atoms: C_15  and  C_16
REMARK   10  A    between atoms: C_16  and  C_17
REMARK   11  A    between atoms: C_16  and  C_18
REMARK   12  A    between atoms: C_16  and  C_19
REMARK                            x       y       z     vdW  Elec       q    Type
REMARK                         _______ _______ _______ _____ _____    ______ ____
ROOT
ATOM      1  C   UNL     1       4.741   4.109  18.094  0.00  0.00    +0.000 C 
ATOM      2  O   UNL     1       5.262   3.211  18.775  0.00  0.00    +0.000 OA
ATOM      3  N   UNL     1       3.626   4.808  18.624  0.00  0.00    +0.000 N 
ENDROOT
BRANCH   1   7
ATOM      4  C   UNL     1       6.866   4.625  14.345  0.00  0.00    +0.000 A 
ATOM      5  C   UNL     1       7.427   4.972  15.575  0.00  0.00    +0.000 A 
ATOM      6  C   UNL     1       6.703   4.853  16.767  0.00  0.00    +0.000 A 
ATOM      7  C   UNL     1       5.394   4.375  16.748  0.00  0.00    +0.000 A 
ATOM      8  N   UNL     1       4.773   4.088  15.580  0.00  0.00    +0.000 NA
ATOM      9  C   UNL     1       5.515   4.249  14.431  0.00  0.00    +0.000 A 
BRANCH   4  11
ATOM     10  C   UNL     1       8.404   5.890  12.877  0.00  0.00    +0.000 C 
ATOM     11  N   UNL     1       7.622   4.691  13.165  0.00  0.00    +0.000 N 
ATOM     12  C   UNL     1       7.024   4.054  11.981  0.00  0.00    +0.000 C 
ENDBRANCH   4  11
ENDBRANCH   1   7
BRANCH   3  13
ATOM     13  C   UNL     1       2.928   5.917  17.956  0.00  0.00    +0.000 C 
BRANCH  13  14
ATOM     14  C   UNL     1       2.582   7.108  18.854  0.00  0.00    +0.000 C 
BRANCH  14  15
ATOM     15  C   UNL     1       2.239   8.319  18.103  0.00  0.00    +0.000 C 
ATOM     16  N   UNL     1       1.951   9.241  17.468  0.00  0.00    +0.000 NA
ENDBRANCH  14  15
ENDBRANCH  13  14
ENDBRANCH   3  13
BRANCH   3  17
ATOM     17  C   UNL     1       3.283   4.555  20.049  0.00  0.00    +0.000 C 
BRANCH  17  18
ATOM     18  C   UNL     1       2.164   3.515  20.381  0.00  0.00    +0.000 C 
ATOM     19  C   UNL     1       2.432   2.778  21.702  0.00  0.00    +0.000 C 
ATOM     20  C   UNL     1       0.826   4.283  20.535  0.00  0.00    +0.000 C 
ATOM     21  C   UNL     1       1.968   2.480  19.266  0.00  0.00    +0.000 C 
ENDBRANCH  17  18
ENDBRANCH   3  17
TORSDOF 7
ENDMDL
MODEL 7
REMARK VINA RESULT:      -6.1      4.352      7.244
REMARK  Name = 
REMARK  12 active torsions:
REMARK  status: ('A' for Active; 'I' for Inactive)
REMARK    1  A    between atoms: C_1  and  N_2
REMARK    2  A    between atoms: N_2  and  C_3
REMARK    3  A    between atoms: N_2  and  C_4
REMARK    4  A    between atoms: C_7  and  C_8
REMARK    5  A    between atoms: N_10  and  C_11
REMARK    6  A    between atoms: N_10  and  C_15
REMARK    7  A    between atoms: C_11  and  C_12
REMARK    8  A    between atoms: C_12  and  C_13
REMARK    9  A    between atoms: C_15  and  C_16
REMARK   10  A    between atoms: C_16  and  C_17
REMARK   11  A    between atoms: C_16  and  C_18
REMARK   12  A    between atoms: C_16  and  C_19
REMARK                            x       y       z     vdW  Elec       q    Type
REMARK                         _______ _______ _______ _____ _____    ______ ____
ROOT
ATOM      1  C   UNL     1       3.711   5.109  17.854  0.00  0.00    +0.000 C 
ATOM      2  O   UNL     1       2.542   5.409  17.561  0.00  0.00    +0.000 OA
ATOM      3  N   UNL     1       4.049   4.933  19.220  0.00  0.00    +0.000 N 
ENDROOT
BRANCH   1   7
ATOM      4  C   UNL     1       6.149   4.434  14.327  0.00  0.00    +0.000 A 
ATOM      5  C   UNL     1       5.705   3.389  15.139  0.00  0.00    +0.000 A 
ATOM      6  C   UNL     1       4.970   3.633  16.305  0.00  0.00    +0.000 A 
ATOM      7  C   UNL     1       4.658   4.939  16.677  0.00  0.00    +0.000 A 
ATOM      8  N   UNL     1       5.119   5.996  15.969  0.00  0.00    +0.000 NA
ATOM      9  C   UNL     1       5.863   5.709  14.846  0.00  0.00    +0.000 A 
BRANCH   4  11
ATOM     10  C   UNL     1       7.652   5.223  12.527  0.00  0.00    +0.000 C 
ATOM     11  N   UNL     1       6.832   4.175  13.129  0.00  0.00    +0.000 N 
ATOM     12  C   UNL     1       6.131   3.318  12.161  0.00  0.00    +0.000 C 
ENDBRANCH   4  11
ENDBRANCH   1   7
BRANCH   3  13
ATOM     13  C   UNL     1       5.377   4.542  19.718  0.00  0.00    +0.000 C 
BRANCH  13  14
ATOM     14  C   UNL     1       6.526   5.471  19.316  0.00  0.00    +0.000 C 
BRANCH  14  15
ATOM     15  C   UNL     1       7.514   4.827  18.445  0.00  0.00    +0.000 C 
ATOM     16  N   UNL     1       8.253   4.280  17.744  0.00  0.00    +0.000 NA
ENDBRANCH  14  15
ENDBRANCH  13  14
ENDBRANCH   3  13
BRANCH   3  17
ATOM     17  C   UNL     1       2.930   4.919  20.199  0.00  0.00    +0.000 C 
BRANCH  17  18
ATOM     18  C   UNL     1       2.166   3.578  20.449  0.00  0.00    +0.000 C 
ATOM     19  C   UNL     1       2.226   3.144  21.921  0.00  0.00    +0.000 C 
ATOM     20  C   UNL     1       0.675   3.800  20.086  0.00  0.00    +0.000 C 
ATOM     21  C   UNL     1       2.681   2.430  19.571  0.00  0.00    +0.000 C 
ENDBRANCH  17  18
ENDBRANCH   3  17
TORSDOF 7
ENDMDL
MODEL 8
REMARK VINA RESULT:      -6.1      0.767      1.139
REMARK  Name = 
REMARK  12 active torsions:
REMARK  status: ('A' for Active; 'I' for Inactive)
REMARK    1  A    between atoms: C_1  and  N_2
REMARK    2  A    between atoms: N_2  and  C_3
REMARK    3  A    between atoms: N_2  and  C_4
REMARK    4  A    between atoms: C_7  and  C_8
REMARK    5  A    between atoms: N_10  and  C_11
REMARK    6  A    between atoms: N_10  and  C_15
REMARK    7  A    between atoms: C_11  and  C_12
REMARK    8  A    between atoms: C_12  and  C_13
REMARK    9  A    between atoms: C_15  and  C_16
REMARK   10  A    between atoms: C_16  and  C_17
REMARK   11  A    between atoms: C_16  and  C_18
REMARK   12  A    between atoms: C_16  and  C_19
REMARK                            x       y       z     vdW  Elec       q    Type
REMARK                         _______ _______ _______ _____ _____    ______ ____
ROOT
ATOM      1  C   UNL     1       2.753   7.012  18.669  0.00  0.00    +0.000 C 
ATOM      2  O   UNL     1       3.551   7.161  17.729  0.00  0.00    +0.000 OA
ATOM      3  N   UNL     1       2.776   5.796  19.398  0.00  0.00    +0.000 N 
ENDROOT
BRANCH   1   7
ATOM      4  C   UNL     1       0.410  10.527  19.665  0.00  0.00    +0.000 A 
ATOM      5  C   UNL     1       0.818   9.604  20.630  0.00  0.00    +0.000 A 
ATOM      6  C   UNL     1       1.522   8.447  20.279  0.00  0.00    +0.000 A 
ATOM      7  C   UNL     1       1.838   8.194  18.945  0.00  0.00    +0.000 A 
ATOM      8  N   UNL     1       1.409   9.015  17.959  0.00  0.00    +0.000 NA
ATOM      9  C   UNL     1       0.694  10.126  18.349  0.00  0.00    +0.000 A 
BRANCH   4  11
ATOM     10  C   UNL     1      -0.401  12.783  19.053  0.00  0.00    +0.000 C 
ATOM     11  N   UNL     1      -0.241  11.714  20.035  0.00  0.00    +0.000 N 
ATOM     12  C   UNL     1      -0.000  12.179  21.409  0.00  0.00    +0.000 C 
ENDBRANCH   4  11
ENDBRANCH   1   7
BRANCH   3  13
ATOM     13  C   UNL     1       1.921   5.488  20.555  0.00  0.00    +0.000 C 
BRANCH  13  14
ATOM     14  C   UNL     1       1.044   4.241  20.407  0.00  0.00    +0.000 C 
BRANCH  14  15
ATOM     15  C   UNL     1       1.398   3.171  21.344  0.00  0.00    +0.000 C 
ATOM     16  N   UNL     1       1.731   2.343  22.080  0.00  0.00    +0.000 NA
ENDBRANCH  14  15
ENDBRANCH  13  14
ENDBRANCH   3  13
BRANCH   3  17
ATOM     17  C   UNL     1       3.896   4.860  19.119  0.00  0.00    +0.000 C 
BRANCH  17  18
ATOM     18  C   UNL     1       3.713   3.776  18.006  0.00  0.00    +0.000 C 
ATOM     19  C   UNL     1       4.793   3.876  16.918  0.00  0.00    +0.000 C 
ATOM     20  C   UNL     1       3.843   2.381  18.669  0.00  0.00    +0.000 C 
ATOM     21  C   UNL     1       2.331   3.837  17.342  0.00  0.00    +0.000 C 
ENDBRANCH  17  18
ENDBRANCH   3  17
TORSDOF 7
ENDMDL
MODEL 9
REMARK VINA RESULT:      -6.0      0.767      1.605
REMARK  Name = 
REMARK  12 active torsions:
REMARK  status: ('A' for Active; 'I' for Inactive)
REMARK    1  A    between atoms: C_1  and  N_2
REMARK    2  A    between atoms: N_2  and  C_3
REMARK    3  A    between atoms: N_2  and  C_4
REMARK    4  A    between atoms: C_7  and  C_8
REMARK    5  A    between atoms: N_10  and  C_11
REMARK    6  A    between atoms: N_10  and  C_15
REMARK    7  A    between atoms: C_11  and  C_12
REMARK    8  A    between atoms: C_12  and  C_13
REMARK    9  A    between atoms: C_15  and  C_16
REMARK   10  A    between atoms: C_16  and  C_17
REMARK   11  A    between atoms: C_16  and  C_18
REMARK   12  A    between atoms: C_16  and  C_19
REMARK                            x       y       z     vdW  Elec       q    Type
REMARK                         _______ _______ _______ _____ _____    ______ ____
ROOT
ATOM      1  C   UNL     1       2.826   6.870  18.664  0.00  0.00    +0.000 C 
ATOM      2  O   UNL     1       3.621   6.985  17.717  0.00  0.00    +0.000 OA
ATOM      3  N   UNL     1       2.810   5.657  19.399  0.00  0.00    +0.000 N 
ENDROOT
BRANCH   1   7
ATOM      4  C   UNL     1       0.605  10.455  19.689  0.00  0.00    +0.000 A 
ATOM      5  C   UNL     1       0.894   9.462  20.627  0.00  0.00    +0.000 A 
ATOM      6  C   UNL     1       1.560   8.287  20.262  0.00  0.00    +0.000 A 
ATOM      7  C   UNL     1       1.956   8.085  18.941  0.00  0.00    +0.000 A 
ATOM      8  N   UNL     1       1.643   8.979  17.974  0.00  0.00    +0.000 NA
ATOM      9  C   UNL     1       0.961  10.107  18.375  0.00  0.00    +0.000 A 
BRANCH   4  11
ATOM     10  C   UNL     1      -1.062  11.632  21.089  0.00  0.00    +0.000 C 
ATOM     11  N   UNL     1      -0.008  11.656  20.078  0.00  0.00    +0.000 N 
ATOM     12  C   UNL     1      -0.208  12.651  19.013  0.00  0.00    +0.000 C 
ENDBRANCH   4  11
ENDBRANCH   1   7
BRANCH   3  13
ATOM     13  C   UNL     1       1.954   5.387  20.565  0.00  0.00    +0.000 C 
BRANCH  13  14
ATOM     14  C   UNL     1       1.052   4.155  20.442  0.00  0.00    +0.000 C 
BRANCH  14  15
ATOM     15  C   UNL     1       1.390   3.092  21.393  0.00  0.00    +0.000 C 
ATOM     16  N   UNL     1       1.710   2.253  22.121  0.00  0.00    +0.000 NA
ENDBRANCH  14  15
ENDBRANCH  13  14
ENDBRANCH   3  13
BRANCH   3  17
ATOM     17  C   UNL     1       3.894   4.679  19.116  0.00  0.00    +0.000 C 
BRANCH  17  18
ATOM     18  C   UNL     1       3.653   3.581  18.029  0.00  0.00    +0.000 C 
ATOM     19  C   UNL     1       2.312   3.770  17.304  0.00  0.00    +0.000 C 
ATOM     20  C   UNL     1       4.780   3.698  16.971  0.00  0.00    +0.000 C 
ATOM     21  C   UNL     1       3.713   2.159  18.601  0.00  0.00    +0.000 C 
ENDBRANCH  17  18
ENDBRANCH   3  17
TORSDOF 7
ENDMDL
