MODEL 1
REMARK VINA RESULT:      -5.8      0.000      0.000
REMARK  Name = 
REMARK  10 active torsions:
REMARK  status: ('A' for Active; 'I' for Inactive)
REMARK    1  A    between atoms: C_1  and  O_2
REMARK    2  A    between atoms: O_2  and  C_3
REMARK    3  A    between atoms: C_3  and  C_4
REMARK    4  A    between atoms: C_4  and  N_5
REMARK    5  A    between atoms: C_7  and  C_8
REMARK    6  A    between atoms: C_8  and  N_9
REMARK    7  A    between atoms: N_9  and  C_10
REMARK    8  A    between atoms: C_10  and  C_11
REMARK    9  A    between atoms: C_11  and  C_12
REMARK   10  A    between atoms: C_11  and  C_13
REMARK                            x       y       z     vdW  Elec       q    Type
REMARK                         _______ _______ _______ _____ _____    ______ ____
ROOT
ATOM      1  N   UNL     1       5.267   4.429  17.904  0.00  0.00    +0.000 N 
ATOM      2  C   UNL     1       4.263   3.759  17.268  0.00  0.00    +0.000 A 
ATOM      3  C   UNL     1       3.777   2.828  18.165  0.00  0.00    +0.000 A 
ATOM      4  C   UNL     1       4.554   3.044  19.326  0.00  0.00    +0.000 A 
ATOM      5  N   UNL     1       5.452   4.021  19.173  0.00  0.00    +0.000 NA
ENDROOT
BRANCH   1   6
ATOM      6  C   UNL     1       6.133   5.439  17.329  0.00  0.00    +0.000 C 
BRANCH   6   7
ATOM      7  C   UNL     1       7.433   4.857  16.794  0.00  0.00    +0.000 C 
BRANCH   7   9
ATOM      8  C   UNL     1       6.767   4.818  14.534  0.00  0.00    +0.000 C 
ATOM      9  O   UNL     1       7.670   5.373  15.482  0.00  0.00    +0.000 OA
ENDBRANCH   7   9
ENDBRANCH   6   7
ENDBRANCH   1   6
BRANCH   3  10
ATOM     10  C   UNL     1       2.702   1.821  17.956  0.00  0.00    +0.000 C 
BRANCH  10  11
ATOM     11  N   UNL     1       1.704   2.028  19.002  0.00  0.00    +0.000 NA
ATOM     12  H   UNL     1       2.158   1.927  19.910  0.00  0.00    +0.000 HD
BRANCH  11  13
ATOM     13  C   UNL     1       1.055   3.336  18.895  0.00  0.00    +0.000 C 
BRANCH  13  14
ATOM     14  C   UNL     1       0.945   4.018  20.270  0.00  0.00    +0.000 C 
ATOM     15  C   UNL     1       1.762   5.310  20.349  0.00  0.00    +0.000 C 
BRANCH  14  16
ATOM     16  C   UNL     1       1.447   3.064  21.342  0.00  0.00    +0.000 C 
ATOM     17  N   UNL     1       1.864   2.273  22.231  0.00  0.00    +0.000 NA
ENDBRANCH  14  16
ENDBRANCH  13  14
ENDBRANCH  11  13
ENDBRANCH  10  11
ENDBRANCH   3  10
TORSDOF 8
ENDMDL
MODEL 2
REMARK VINA RESULT:      -5.3      1.996      3.262
REMARK  Name = 
REMARK  10 active torsions:
REMARK  status: ('A' for Active; 'I' for Inactive)
REMARK    1  A    between atoms: C_1  and  O_2
REMARK    2  A    between atoms: O_2  and  C_3
REMARK    3  A    between atoms: C_3  and  C_4
REMARK    4  A    between atoms: C_4  and  N_5
REMARK    5  A    between atoms: C_7  and  C_8
REMARK    6  A    between atoms: C_8  and  N_9
REMARK    7  A    between atoms: N_9  and  C_10
REMARK    8  A    between atoms: C_10  and  C_11
REMARK    9  A    between atoms: C_11  and  C_12
REMARK   10  A    between atoms: C_11  and  C_13
REMARK                            x       y       z     vdW  Elec       q    Type
REMARK                         _______ _______ _______ _____ _____    ______ ____
ROOT
ATOM      1  N   UNL     1       6.520   4.305  15.902  0.00  0.00    +0.000 N 
ATOM      2  C   UNL     1       5.513   4.533  16.794  0.00  0.00    +0.000 A 
ATOM      3  C   UNL     1       6.114   4.827  18.002  0.00  0.00    +0.000 A 
ATOM      4  C   UNL     1       7.496   4.767  17.713  0.00  0.00    +0.000 A 
ATOM      5  N   UNL     1       7.745   4.460  16.438  0.00  0.00    +0.000 NA
ENDROOT
BRANCH   1   6
ATOM      6  C   UNL     1       6.376   3.873  14.525  0.00  0.00    +0.000 C 
BRANCH   6   7
ATOM      7  C   UNL     1       7.111   4.781  13.550  0.00  0.00    +0.000 C 
BRANCH   7   9
ATOM      8  C   UNL     1       6.011   3.247  12.137  0.00  0.00    +0.000 C 
ATOM      9  O   UNL     1       7.062   4.199  12.244  0.00  0.00    +0.000 OA
ENDBRANCH   7   9
ENDBRANCH   6   7
ENDBRANCH   1   6
BRANCH   3  10
ATOM     10  C   UNL     1       5.463   5.119  19.308  0.00  0.00    +0.000 C 
BRANCH  10  11
ATOM     11  N   UNL     1       4.236   4.329  19.369  0.00  0.00    +0.000 NA
ATOM     12  H   UNL     1       4.431   3.463  19.873  0.00  0.00    +0.000 HD
BRANCH  11  13
ATOM     13  C   UNL     1       3.140   5.059  20.008  0.00  0.00    +0.000 C 
BRANCH  13  14
ATOM     14  C   UNL     1       1.776   4.620  19.447  0.00  0.00    +0.000 C 
ATOM     15  C   UNL     1       0.992   3.749  20.431  0.00  0.00    +0.000 C 
BRANCH  14  16
ATOM     16  C   UNL     1       1.994   3.826  18.169  0.00  0.00    +0.000 C 
ATOM     17  N   UNL     1       2.175   3.168  17.109  0.00  0.00    +0.000 NA
ENDBRANCH  14  16
ENDBRANCH  13  14
ENDBRANCH  11  13
ENDBRANCH  10  11
ENDBRANCH   3  10
TORSDOF 8
ENDMDL
MODEL 3
REMARK VINA RESULT:      -5.3      1.449      1.782
REMARK  Name = 
REMARK  10 active torsions:
REMARK  status: ('A' for Active; 'I' for Inactive)
REMARK    1  A    between atoms: C_1  and  O_2
REMARK    2  A    between atoms: O_2  and  C_3
REMARK    3  A    between atoms: C_3  and  C_4
REMARK    4  A    between atoms: C_4  and  N_5
REMARK    5  A    between atoms: C_7  and  C_8
REMARK    6  A    between atoms: C_8  and  N_9
REMARK    7  A    between atoms: N_9  and  C_10
REMARK    8  A    between atoms: C_10  and  C_11
REMARK    9  A    between atoms: C_11  and  C_12
REMARK   10  A    between atoms: C_11  and  C_13
REMARK                            x       y       z     vdW  Elec       q    Type
REMARK                         _______ _______ _______ _____ _____    ______ ____
ROOT
ATOM      1  N   UNL     1       4.928   5.160  17.539  0.00  0.00    +0.000 N 
ATOM      2  C   UNL     1       4.512   3.890  17.265  0.00  0.00    +0.000 A 
ATOM      3  C   UNL     1       3.149   3.864  17.483  0.00  0.00    +0.000 A 
ATOM      4  C   UNL     1       2.845   5.189  17.867  0.00  0.00    +0.000 A 
ATOM      5  N   UNL     1       3.921   5.980  17.893  0.00  0.00    +0.000 NA
ENDROOT
BRANCH   1   6
ATOM      6  C   UNL     1       6.295   5.643  17.538  0.00  0.00    +0.000 C 
BRANCH   6   7
ATOM      7  C   UNL     1       7.222   4.768  16.707  0.00  0.00    +0.000 C 
BRANCH   7   9
ATOM      8  C   UNL     1       6.829   4.782  14.383  0.00  0.00    +0.000 C 
ATOM      9  O   UNL     1       7.492   5.424  15.464  0.00  0.00    +0.000 OA
ENDBRANCH   7   9
ENDBRANCH   6   7
ENDBRANCH   1   6
BRANCH   3  10
ATOM     10  C   UNL     1       2.218   2.709  17.361  0.00  0.00    +0.000 C 
BRANCH  10  11
ATOM     11  N   UNL     1       2.396   1.880  18.550  0.00  0.00    +0.000 NA
ATOM     12  H   UNL     1       3.371   1.937  18.845  0.00  0.00    +0.000 HD
BRANCH  11  13
ATOM     13  C   UNL     1       1.505   2.281  19.641  0.00  0.00    +0.000 C 
BRANCH  13  14
ATOM     14  C   UNL     1       2.300   2.598  20.920  0.00  0.00    +0.000 C 
ATOM     15  C   UNL     1       2.154   4.059  21.352  0.00  0.00    +0.000 C 
BRANCH  14  16
ATOM     16  C   UNL     1       3.772   2.311  20.678  0.00  0.00    +0.000 C 
ATOM     17  N   UNL     1       4.994   2.073  20.478  0.00  0.00    +0.000 NA
ENDBRANCH  14  16
ENDBRANCH  13  14
ENDBRANCH  11  13
ENDBRANCH  10  11
ENDBRANCH   3  10
TORSDOF 8
ENDMDL
MODEL 4
REMARK VINA RESULT:      -5.2      1.654      2.219
REMARK  Name = 
REMARK  10 active torsions:
REMARK  status: ('A' for Active; 'I' for Inactive)
REMARK    1  A    between atoms: C_1  and  O_2
REMARK    2  A    between atoms: O_2  and  C_3
REMARK    3  A    between atoms: C_3  and  C_4
REMARK    4  A    between atoms: C_4  and  N_5
REMARK    5  A    between atoms: C_7  and  C_8
REMARK    6  A    between atoms: C_8  and  N_9
REMARK    7  A    between atoms: N_9  and  C_10
REMARK    8  A    between atoms: C_10  and  C_11
REMARK    9  A    between atoms: C_11  and  C_12
REMARK   10  A    between atoms: C_11  and  C_13
REMARK                            x       y       z     vdW  Elec       q    Type
REMARK                         _______ _______ _______ _____ _____    ______ ____
ROOT
ATOM      1  N   UNL     1       6.481   4.385  17.477  0.00  0.00    +0.000 N 
ATOM      2  C   UNL     1       5.271   4.207  18.083  0.00  0.00    +0.000 A 
ATOM      3  C   UNL     1       4.354   3.978  17.076  0.00  0.00    +0.000 A 
ATOM      4  C   UNL     1       5.133   4.019  15.897  0.00  0.00    +0.000 A 
ATOM      5  N   UNL     1       6.425   4.257  16.138  0.00  0.00    +0.000 NA
ENDROOT
BRANCH   1   6
ATOM      6  C   UNL     1       7.729   4.742  18.123  0.00  0.00    +0.000 C 
BRANCH   6   7
ATOM      7  C   UNL     1       7.571   5.901  19.096  0.00  0.00    +0.000 C 
BRANCH   7   9
ATOM      8  C   UNL     1       7.575   7.700  17.574  0.00  0.00    +0.000 C 
ATOM      9  O   UNL     1       8.295   7.029  18.600  0.00  0.00    +0.000 OA
ENDBRANCH   7   9
ENDBRANCH   6   7
ENDBRANCH   1   6
BRANCH   3  10
ATOM     10  C   UNL     1       2.888   3.758  17.198  0.00  0.00    +0.000 C 
BRANCH  10  11
ATOM     11  N   UNL     1       2.624   3.339  18.572  0.00  0.00    +0.000 NA
ATOM     12  H   UNL     1       3.270   3.829  19.191  0.00  0.00    +0.000 HD
BRANCH  11  13
ATOM     13  C   UNL     1       1.238   3.592  18.969  0.00  0.00    +0.000 C 
BRANCH  13  14
ATOM     14  C   UNL     1       1.166   4.192  20.385  0.00  0.00    +0.000 C 
ATOM     15  C   UNL     1       1.812   5.576  20.468  0.00  0.00    +0.000 C 
BRANCH  14  16
ATOM     16  C   UNL     1       1.881   3.267  21.357  0.00  0.00    +0.000 C 
ATOM     17  N   UNL     1       2.475   2.500  22.162  0.00  0.00    +0.000 NA
ENDBRANCH  14  16
ENDBRANCH  13  14
ENDBRANCH  11  13
ENDBRANCH  10  11
ENDBRANCH   3  10
TORSDOF 8
ENDMDL
MODEL 5
REMARK VINA RESULT:      -5.2      1.677      2.094
REMARK  Name = 
REMARK  10 active torsions:
REMARK  status: ('A' for Active; 'I' for Inactive)
REMARK    1  A    between atoms: C_1  and  O_2
REMARK    2  A    between atoms: O_2  and  C_3
REMARK    3  A    between atoms: C_3  and  C_4
REMARK    4  A    between atoms: C_4  and  N_5
REMARK    5  A    between atoms: C_7  and  C_8
REMARK    6  A    between atoms: C_8  and  N_9
REMARK    7  A    between atoms: N_9  and  C_10
REMARK    8  A    between atoms: C_10  and  C_11
REMARK    9  A    between atoms: C_11  and  C_12
REMARK   10  A    between atoms: C_11  and  C_13
REMARK                            x       y       z     vdW  Elec       q    Type
REMARK                         _______ _______ _______ _____ _____    ______ ____
ROOT
ATOM      1  N   UNL     1       5.514   4.983  17.958  0.00  0.00    +0.000 N 
ATOM      2  C   UNL     1       4.351   4.893  17.251  0.00  0.00    +0.000 A 
ATOM      3  C   UNL     1       3.325   5.124  18.146  0.00  0.00    +0.000 A 
ATOM      4  C   UNL     1       3.993   5.366  19.368  0.00  0.00    +0.000 A 
ATOM      5  N   UNL     1       5.321   5.290  19.254  0.00  0.00    +0.000 NA
ENDROOT
BRANCH   1   6
ATOM      6  C   UNL     1       6.852   4.727  17.461  0.00  0.00    +0.000 C 
BRANCH   6   7
ATOM      7  C   UNL     1       6.856   4.257  16.014  0.00  0.00    +0.000 C 
BRANCH   7   9
ATOM      8  C   UNL     1       7.199   5.035  13.816  0.00  0.00    +0.000 C 
ATOM      9  O   UNL     1       7.445   5.272  15.196  0.00  0.00    +0.000 OA
ENDBRANCH   7   9
ENDBRANCH   6   7
ENDBRANCH   1   6
BRANCH   3  10
ATOM     10  C   UNL     1       1.859   5.107  17.891  0.00  0.00    +0.000 C 
BRANCH  10  11
ATOM     11  N   UNL     1       1.403   3.731  18.070  0.00  0.00    +0.000 NA
ATOM     12  H   UNL     1       2.185   3.102  17.887  0.00  0.00    +0.000 HD
BRANCH  11  13
ATOM     13  C   UNL     1       0.861   3.499  19.411  0.00  0.00    +0.000 C 
BRANCH  13  14
ATOM     14  C   UNL     1       1.607   2.357  20.124  0.00  0.00    +0.000 C 
ATOM     15  C   UNL     1       2.266   2.813  21.427  0.00  0.00    +0.000 C 
BRANCH  14  16
ATOM     16  C   UNL     1       2.687   1.814  19.202  0.00  0.00    +0.000 C 
ATOM     17  N   UNL     1       3.583   1.363  18.438  0.00  0.00    +0.000 NA
ENDBRANCH  14  16
ENDBRANCH  13  14
ENDBRANCH  11  13
ENDBRANCH  10  11
ENDBRANCH   3  10
TORSDOF 8
ENDMDL
MODEL 6
REMARK VINA RESULT:      -5.2      1.557      2.425
REMARK  Name = 
REMARK  10 active torsions:
REMARK  status: ('A' for Active; 'I' for Inactive)
REMARK    1  A    between atoms: C_1  and  O_2
REMARK    2  A    between atoms: O_2  and  C_3
REMARK    3  A    between atoms: C_3  and  C_4
REMARK    4  A    between atoms: C_4  and  N_5
REMARK    5  A    between atoms: C_7  and  C_8
REMARK    6  A    between atoms: C_8  and  N_9
REMARK    7  A    between atoms: N_9  and  C_10
REMARK    8  A    between atoms: C_10  and  C_11
REMARK    9  A    between atoms: C_11  and  C_12
REMARK   10  A    between atoms: C_11  and  C_13
REMARK                            x       y       z     vdW  Elec       q    Type
REMARK                         _______ _______ _______ _____ _____    ______ ____
ROOT
ATOM      1  N   UNL     1       5.063   4.517  17.410  0.00  0.00    +0.000 N 
ATOM      2  C   UNL     1       3.903   5.214  17.585  0.00  0.00    +0.000 A 
ATOM      3  C   UNL     1       3.794   5.469  18.938  0.00  0.00    +0.000 A 
ATOM      4  C   UNL     1       4.964   4.895  19.483  0.00  0.00    +0.000 A 
ATOM      5  N   UNL     1       5.740   4.324  18.558  0.00  0.00    +0.000 NA
ENDROOT
BRANCH   1   6
ATOM      6  C   UNL     1       5.555   3.950  16.170  0.00  0.00    +0.000 C 
BRANCH   6   7
ATOM      7  C   UNL     1       6.940   4.462  15.804  0.00  0.00    +0.000 C 
BRANCH   7   9
ATOM      8  C   UNL     1       7.253   4.863  13.503  0.00  0.00    +0.000 C 
ATOM      9  O   UNL     1       6.820   5.412  14.741  0.00  0.00    +0.000 OA
ENDBRANCH   7   9
ENDBRANCH   6   7
ENDBRANCH   1   6
BRANCH   3  10
ATOM     10  C   UNL     1       2.695   6.169  19.657  0.00  0.00    +0.000 C 
BRANCH  10  11
ATOM     11  N   UNL     1       2.302   5.321  20.780  0.00  0.00    +0.000 NA
ATOM     12  H   UNL     1       2.172   5.910  21.603  0.00  0.00    +0.000 HD
BRANCH  11  13
ATOM     13  C   UNL     1       1.084   4.560  20.495  0.00  0.00    +0.000 C 
BRANCH  13  14
ATOM     14  C   UNL     1       1.334   3.046  20.613  0.00  0.00    +0.000 C 
ATOM     15  C   UNL     1       2.404   2.708  21.654  0.00  0.00    +0.000 C 
BRANCH  14  16
ATOM     16  C   UNL     1       1.785   2.508  19.265  0.00  0.00    +0.000 C 
ATOM     17  N   UNL     1       2.160   2.062  18.147  0.00  0.00    +0.000 NA
ENDBRANCH  14  16
ENDBRANCH  13  14
ENDBRANCH  11  13
ENDBRANCH  10  11
ENDBRANCH   3  10
TORSDOF 8
ENDMDL
MODEL 7
REMARK VINA RESULT:      -5.1      1.703      2.845
REMARK  Name = 
REMARK  10 active torsions:
REMARK  status: ('A' for Active; 'I' for Inactive)
REMARK    1  A    between atoms: C_1  and  O_2
REMARK    2  A    between atoms: O_2  and  C_3
REMARK    3  A    between atoms: C_3  and  C_4
REMARK    4  A    between atoms: C_4  and  N_5
REMARK    5  A    between atoms: C_7  and  C_8
REMARK    6  A    between atoms: C_8  and  N_9
REMARK    7  A    between atoms: N_9  and  C_10
REMARK    8  A    between atoms: C_10  and  C_11
REMARK    9  A    between atoms: C_11  and  C_12
REMARK   10  A    between atoms: C_11  and  C_13
REMARK                            x       y       z     vdW  Elec       q    Type
REMARK                         _______ _______ _______ _____ _____    ______ ____
ROOT
ATOM      1  N   UNL     1       5.098   5.569  17.930  0.00  0.00    +0.000 N 
ATOM      2  C   UNL     1       4.323   5.358  19.034  0.00  0.00    +0.000 A 
ATOM      3  C   UNL     1       3.308   6.294  18.991  0.00  0.00    +0.000 A 
ATOM      4  C   UNL     1       3.560   7.007  17.797  0.00  0.00    +0.000 A 
ATOM      5  N   UNL     1       4.640   6.563  17.148  0.00  0.00    +0.000 NA
ENDROOT
BRANCH   1   6
ATOM      6  C   UNL     1       6.332   4.887  17.596  0.00  0.00    +0.000 C 
BRANCH   6   7
ATOM      7  C   UNL     1       7.171   5.660  16.590  0.00  0.00    +0.000 C 
BRANCH   7   9
ATOM      8  C   UNL     1       6.603   4.509  14.613  0.00  0.00    +0.000 C 
ATOM      9  O   UNL     1       7.622   4.763  15.571  0.00  0.00    +0.000 OA
ENDBRANCH   7   9
ENDBRANCH   6   7
ENDBRANCH   1   6
BRANCH   3  10
ATOM     10  C   UNL     1       2.216   6.514  19.976  0.00  0.00    +0.000 C 
BRANCH  10  11
ATOM     11  N   UNL     1       2.146   5.325  20.821  0.00  0.00    +0.000 NA
ATOM     12  H   UNL     1       2.120   5.620  21.798  0.00  0.00    +0.000 HD
BRANCH  11  13
ATOM     13  C   UNL     1       0.984   4.492  20.506  0.00  0.00    +0.000 C 
BRANCH  13  14
ATOM     14  C   UNL     1       1.345   2.996  20.540  0.00  0.00    +0.000 C 
ATOM     15  C   UNL     1       2.416   2.676  21.585  0.00  0.00    +0.000 C 
BRANCH  14  16
ATOM     16  C   UNL     1       1.863   2.576  19.174  0.00  0.00    +0.000 C 
ATOM     17  N   UNL     1       2.293   2.228  18.041  0.00  0.00    +0.000 NA
ENDBRANCH  14  16
ENDBRANCH  13  14
ENDBRANCH  11  13
ENDBRANCH  10  11
ENDBRANCH   3  10
TORSDOF 8
ENDMDL
MODEL 8
REMARK VINA RESULT:      -5.1      1.976      3.093
REMARK  Name = 
REMARK  10 active torsions:
REMARK  status: ('A' for Active; 'I' for Inactive)
REMARK    1  A    between atoms: C_1  and  O_2
REMARK    2  A    between atoms: O_2  and  C_3
REMARK    3  A    between atoms: C_3  and  C_4
REMARK    4  A    between atoms: C_4  and  N_5
REMARK    5  A    between atoms: C_7  and  C_8
REMARK    6  A    between atoms: C_8  and  N_9
REMARK    7  A    between atoms: N_9  and  C_10
REMARK    8  A    between atoms: C_10  and  C_11
REMARK    9  A    between atoms: C_11  and  C_12
REMARK   10  A    between atoms: C_11  and  C_13
REMARK                            x       y       z     vdW  Elec       q    Type
REMARK                         _______ _______ _______ _____ _____    ______ ____
ROOT
ATOM      1  N   UNL     1       6.812   4.906  15.910  0.00  0.00    +0.000 N 
ATOM      2  C   UNL     1       5.714   5.178  16.674  0.00  0.00    +0.000 A 
ATOM      3  C   UNL     1       6.086   4.978  17.988  0.00  0.00    +0.000 A 
ATOM      4  C   UNL     1       7.446   4.605  17.900  0.00  0.00    +0.000 A 
ATOM      5  N   UNL     1       7.891   4.569  16.641  0.00  0.00    +0.000 NA
ENDROOT
BRANCH   1   6
ATOM      6  C   UNL     1       6.878   4.891  14.463  0.00  0.00    +0.000 C 
BRANCH   6   7
ATOM      7  C   UNL     1       5.996   3.814  13.849  0.00  0.00    +0.000 C 
BRANCH   7   9
ATOM      8  C   UNL     1       5.519   2.746  11.803  0.00  0.00    +0.000 C 
ATOM      9  O   UNL     1       6.461   3.526  12.528  0.00  0.00    +0.000 OA
ENDBRANCH   7   9
ENDBRANCH   6   7
ENDBRANCH   1   6
BRANCH   3  10
ATOM     10  C   UNL     1       5.249   5.107  19.212  0.00  0.00    +0.000 C 
BRANCH  10  11
ATOM     11  N   UNL     1       4.069   5.888  18.852  0.00  0.00    +0.000 NA
ATOM     12  H   UNL     1       3.880   5.753  17.859  0.00  0.00    +0.000 HD
BRANCH  11  13
ATOM     13  C   UNL     1       2.899   5.521  19.652  0.00  0.00    +0.000 C 
BRANCH  13  14
ATOM     14  C   UNL     1       2.610   4.013  19.558  0.00  0.00    +0.000 C 
ATOM     15  C   UNL     1       1.411   3.701  18.659  0.00  0.00    +0.000 C 
BRANCH  14  16
ATOM     16  C   UNL     1       2.325   3.470  20.949  0.00  0.00    +0.000 C 
ATOM     17  N   UNL     1       2.087   3.021  22.102  0.00  0.00    +0.000 NA
ENDBRANCH  14  16
ENDBRANCH  13  14
ENDBRANCH  11  13
ENDBRANCH  10  11
ENDBRANCH   3  10
TORSDOF 8
ENDMDL
MODEL 9
REMARK VINA RESULT:      -5.0      1.732      2.648
REMARK  Name = 
REMARK  10 active torsions:
REMARK  status: ('A' for Active; 'I' for Inactive)
REMARK    1  A    between atoms: C_1  and  O_2
REMARK    2  A    between atoms: O_2  and  C_3
REMARK    3  A    between atoms: C_3  and  C_4
REMARK    4  A    between atoms: C_4  and  N_5
REMARK    5  A    between atoms: C_7  and  C_8
REMARK    6  A    between atoms: C_8  and  N_9
REMARK    7  A    between atoms: N_9  and  C_10
REMARK    8  A    between atoms: C_10  and  C_11
REMARK    9  A    between atoms: C_11  and  C_12
REMARK   10  A    between atoms: C_11  and  C_13
REMARK                            x       y       z     vdW  Elec       q    Type
REMARK                         _______ _______ _______ _____ _____    ______ ____
ROOT
ATOM      1  N   UNL     1       5.749   4.566  16.828  0.00  0.00    +0.000 N 
ATOM      2  C   UNL     1       5.349   5.593  17.632  0.00  0.00    +0.000 A 
ATOM      3  C   UNL     1       4.081   5.277  18.078  0.00  0.00    +0.000 A 
ATOM      4  C   UNL     1       3.824   4.016  17.493  0.00  0.00    +0.000 A 
ATOM      5  N   UNL     1       4.838   3.579  16.741  0.00  0.00    +0.000 NA
ENDROOT
BRANCH   1   6
ATOM      6  C   UNL     1       6.976   4.495  16.060  0.00  0.00    +0.000 C 
BRANCH   6   7
ATOM      7  C   UNL     1       6.766   4.832  14.592  0.00  0.00    +0.000 C 
BRANCH   7   9
ATOM      8  C   UNL     1       6.390   3.673  12.575  0.00  0.00    +0.000 C 
ATOM      9  O   UNL     1       6.076   3.751  13.959  0.00  0.00    +0.000 OA
ENDBRANCH   7   9
ENDBRANCH   6   7
ENDBRANCH   1   6
BRANCH   3  10
ATOM     10  C   UNL     1       3.185   6.079  18.955  0.00  0.00    +0.000 C 
BRANCH  10  11
ATOM     11  N   UNL     1       3.031   5.345  20.208  0.00  0.00    +0.000 NA
ATOM     12  H   UNL     1       3.565   5.823  20.934  0.00  0.00    +0.000 HD
BRANCH  11  13
ATOM     13  C   UNL     1       1.627   5.217  20.603  0.00  0.00    +0.000 C 
BRANCH  13  14
ATOM     14  C   UNL     1       1.254   3.747  20.867  0.00  0.00    +0.000 C 
ATOM     15  C   UNL     1       2.375   2.975  21.565  0.00  0.00    +0.000 C 
BRANCH  14  16
ATOM     16  C   UNL     1       0.950   3.064  19.543  0.00  0.00    +0.000 C 
ATOM     17  N   UNL     1       0.697   2.497  18.446  0.00  0.00    +0.000 NA
ENDBRANCH  14  16
ENDBRANCH  13  14
ENDBRANCH  11  13
ENDBRANCH  10  11
ENDBRANCH   3  10
TORSDOF 8
ENDMDL
