MODEL 1
REMARK VINA RESULT:      -7.9      0.000      0.000
REMARK  Name = 
REMARK  4 active torsions:
REMARK  status: ('A' for Active; 'I' for Inactive)
REMARK    1  A    between atoms: C_1  and  S_2
REMARK    2  A    between atoms: S_2  and  C_5
REMARK    3  A    between atoms: C_8  and  N_9
REMARK    4  A    between atoms: C_13  and  C_14
REMARK                            x       y       z     vdW  Elec       q    Type
REMARK                         _______ _______ _______ _____ _____    ______ ____
ROOT
ATOM      1  N   UNL     1       2.813   4.920  18.162  0.00  0.00    +0.000 N 
ATOM      2  N   UNL     1       2.019   3.862  17.877  0.00  0.00    +0.000 NA
ATOM      3  N   UNL     1       2.619   3.221  16.887  0.00  0.00    +0.000 NA
ATOM      4  N   UNL     1       3.848   3.764  16.624  0.00  0.00    +0.000 NA
ATOM      5  C   UNL     1       4.018   4.752  17.489  0.00  0.00    +0.000 A 
ENDROOT
BRANCH   5   6
ATOM      6  C   UNL     1       5.300   5.397  17.787  0.00  0.00    +0.000 A 
ATOM      7  C   UNL     1       6.037   5.009  18.916  0.00  0.00    +0.000 A 
ATOM      8  C   UNL     1       7.221   5.676  19.255  0.00  0.00    +0.000 A 
ATOM      9  C   UNL     1       7.669   6.726  18.462  0.00  0.00    +0.000 A 
ATOM     10  F   UNL     1       8.788   7.380  18.796  0.00  0.00    +0.000 F 
ATOM     11  C   UNL     1       6.963   7.127  17.340  0.00  0.00    +0.000 A 
ATOM     12  C   UNL     1       5.773   6.478  17.018  0.00  0.00    +0.000 A 
ENDBRANCH   5   6
BRANCH   1  16
ATOM     13  C   UNL     1       1.434   7.991  20.674  0.00  0.00    +0.000 A 
ATOM     14  C   UNL     1       1.918   8.300  19.397  0.00  0.00    +0.000 A 
ATOM     15  C   UNL     1       2.401   7.281  18.579  0.00  0.00    +0.000 A 
ATOM     16  C   UNL     1       2.377   5.953  19.026  0.00  0.00    +0.000 A 
ATOM     17  C   UNL     1       1.911   5.655  20.318  0.00  0.00    +0.000 A 
ATOM     18  C   UNL     1       1.444   6.678  21.146  0.00  0.00    +0.000 A 
BRANCH  13  20
ATOM     19  C   UNL     1       0.747  10.686  20.633  0.00  0.00    +0.000 C 
ATOM     20  S   UNL     1       0.828   9.294  21.724  0.00  0.00    +0.000 S 
ATOM     21  O   UNL     1       1.843   9.556  22.721  0.00  0.00    +0.000 OA
ATOM     22  O   UNL     1      -0.528   8.940  22.111  0.00  0.00    +0.000 OA
ENDBRANCH  13  20
ENDBRANCH   1  16
TORSDOF 3
ENDMDL
MODEL 2
REMARK VINA RESULT:      -7.9      1.150      1.252
REMARK  Name = 
REMARK  4 active torsions:
REMARK  status: ('A' for Active; 'I' for Inactive)
REMARK    1  A    between atoms: C_1  and  S_2
REMARK    2  A    between atoms: S_2  and  C_5
REMARK    3  A    between atoms: C_8  and  N_9
REMARK    4  A    between atoms: C_13  and  C_14
REMARK                            x       y       z     vdW  Elec       q    Type
REMARK                         _______ _______ _______ _____ _____    ______ ____
ROOT
ATOM      1  N   UNL     1       2.823   5.348  18.061  0.00  0.00    +0.000 N 
ATOM      2  N   UNL     1       1.981   4.296  17.947  0.00  0.00    +0.000 NA
ATOM      3  N   UNL     1       2.615   3.408  17.199  0.00  0.00    +0.000 NA
ATOM      4  N   UNL     1       3.900   3.809  16.946  0.00  0.00    +0.000 NA
ATOM      5  C   UNL     1       4.067   4.963  17.572  0.00  0.00    +0.000 A 
ENDROOT
BRANCH   5   6
ATOM      6  C   UNL     1       5.363   5.593  17.844  0.00  0.00    +0.000 A 
ATOM      7  C   UNL     1       6.160   5.132  18.902  0.00  0.00    +0.000 A 
ATOM      8  C   UNL     1       7.360   5.781  19.221  0.00  0.00    +0.000 A 
ATOM      9  C   UNL     1       7.763   6.884  18.479  0.00  0.00    +0.000 A 
ATOM     10  F   UNL     1       8.898   7.519  18.795  0.00  0.00    +0.000 F 
ATOM     11  C   UNL     1       6.997   7.357  17.427  0.00  0.00    +0.000 A 
ATOM     12  C   UNL     1       5.792   6.725  17.126  0.00  0.00    +0.000 A 
ENDBRANCH   5   6
BRANCH   1  16
ATOM     13  C   UNL     1       1.452   8.981  19.661  0.00  0.00    +0.000 A 
ATOM     14  C   UNL     1       1.794   8.902  18.306  0.00  0.00    +0.000 A 
ATOM     15  C   UNL     1       2.276   7.702  17.786  0.00  0.00    +0.000 A 
ATOM     16  C   UNL     1       2.392   6.577  18.614  0.00  0.00    +0.000 A 
ATOM     17  C   UNL     1       2.068   6.673  19.979  0.00  0.00    +0.000 A 
ATOM     18  C   UNL     1       1.603   7.880  20.505  0.00  0.00    +0.000 A 
BRANCH  13  20
ATOM     19  C   UNL     1      -0.878  10.474  19.939  0.00  0.00    +0.000 C 
ATOM     20  S   UNL     1       0.849  10.517  20.328  0.00  0.00    +0.000 S 
ATOM     21  O   UNL     1       1.459  11.589  19.572  0.00  0.00    +0.000 OA
ATOM     22  O   UNL     1       0.991  10.445  21.774  0.00  0.00    +0.000 OA
ENDBRANCH  13  20
ENDBRANCH   1  16
TORSDOF 3
ENDMDL
MODEL 3
REMARK VINA RESULT:      -7.7      1.170      1.631
REMARK  Name = 
REMARK  4 active torsions:
REMARK  status: ('A' for Active; 'I' for Inactive)
REMARK    1  A    between atoms: C_1  and  S_2
REMARK    2  A    between atoms: S_2  and  C_5
REMARK    3  A    between atoms: C_8  and  N_9
REMARK    4  A    between atoms: C_13  and  C_14
REMARK                            x       y       z     vdW  Elec       q    Type
REMARK                         _______ _______ _______ _____ _____    ______ ____
ROOT
ATOM      1  N   UNL     1       2.925   5.222  18.022  0.00  0.00    +0.000 N 
ATOM      2  N   UNL     1       2.132   4.129  17.944  0.00  0.00    +0.000 NA
ATOM      3  N   UNL     1       2.815   3.240  17.241  0.00  0.00    +0.000 NA
ATOM      4  N   UNL     1       4.084   3.688  16.986  0.00  0.00    +0.000 NA
ATOM      5  C   UNL     1       4.191   4.873  17.565  0.00  0.00    +0.000 A 
ENDROOT
BRANCH   5   6
ATOM      6  C   UNL     1       5.454   5.572  17.824  0.00  0.00    +0.000 A 
ATOM      7  C   UNL     1       6.278   5.162  18.883  0.00  0.00    +0.000 A 
ATOM      8  C   UNL     1       7.445   5.876  19.190  0.00  0.00    +0.000 A 
ATOM      9  C   UNL     1       7.786   6.991  18.436  0.00  0.00    +0.000 A 
ATOM     10  F   UNL     1       8.888   7.687  18.741  0.00  0.00    +0.000 F 
ATOM     11  C   UNL     1       6.992   7.414  17.383  0.00  0.00    +0.000 A 
ATOM     12  C   UNL     1       5.820   6.718  17.094  0.00  0.00    +0.000 A 
ENDBRANCH   5   6
BRANCH   1  16
ATOM     13  C   UNL     1       1.551   8.893  19.532  0.00  0.00    +0.000 A 
ATOM     14  C   UNL     1       1.682   7.793  20.388  0.00  0.00    +0.000 A 
ATOM     15  C   UNL     1       2.110   6.569  19.877  0.00  0.00    +0.000 A 
ATOM     16  C   UNL     1       2.431   6.453  18.517  0.00  0.00    +0.000 A 
ATOM     17  C   UNL     1       2.274   7.557  17.662  0.00  0.00    +0.000 A 
ATOM     18  C   UNL     1       1.827   8.778  18.169  0.00  0.00    +0.000 A 
BRANCH  13  20
ATOM     19  C   UNL     1      -0.746  10.431  19.841  0.00  0.00    +0.000 C 
ATOM     20  S   UNL     1       0.992  10.452  20.183  0.00  0.00    +0.000 S 
ATOM     21  O   UNL     1       1.599  11.498  19.390  0.00  0.00    +0.000 OA
ATOM     22  O   UNL     1       1.172  10.406  21.626  0.00  0.00    +0.000 OA
ENDBRANCH  13  20
ENDBRANCH   1  16
TORSDOF 3
ENDMDL
MODEL 4
REMARK VINA RESULT:      -7.7      1.066      1.537
REMARK  Name = 
REMARK  4 active torsions:
REMARK  status: ('A' for Active; 'I' for Inactive)
REMARK    1  A    between atoms: C_1  and  S_2
REMARK    2  A    between atoms: S_2  and  C_5
REMARK    3  A    between atoms: C_8  and  N_9
REMARK    4  A    between atoms: C_13  and  C_14
REMARK                            x       y       z     vdW  Elec       q    Type
REMARK                         _______ _______ _______ _____ _____    ______ ____
ROOT
ATOM      1  N   UNL     1       2.598   5.508  18.116  0.00  0.00    +0.000 N 
ATOM      2  N   UNL     1       1.738   4.476  17.962  0.00  0.00    +0.000 NA
ATOM      3  N   UNL     1       2.377   3.583  17.223  0.00  0.00    +0.000 NA
ATOM      4  N   UNL     1       3.677   3.960  17.016  0.00  0.00    +0.000 NA
ATOM      5  C   UNL     1       3.848   5.102  17.662  0.00  0.00    +0.000 A 
ENDROOT
BRANCH   5   6
ATOM      6  C   UNL     1       5.148   5.700  17.983  0.00  0.00    +0.000 A 
ATOM      7  C   UNL     1       5.664   6.730  17.181  0.00  0.00    +0.000 A 
ATOM      8  C   UNL     1       6.941   7.250  17.430  0.00  0.00    +0.000 A 
ATOM      9  C   UNL     1       7.696   6.745  18.481  0.00  0.00    +0.000 A 
ATOM     10  F   UNL     1       8.925   7.225  18.706  0.00  0.00    +0.000 F 
ATOM     11  C   UNL     1       7.209   5.732  19.289  0.00  0.00    +0.000 A 
ATOM     12  C   UNL     1       5.949   5.199  19.026  0.00  0.00    +0.000 A 
ENDBRANCH   5   6
BRANCH   1  16
ATOM     13  C   UNL     1       1.251   9.146  19.725  0.00  0.00    +0.000 A 
ATOM     14  C   UNL     1       1.542   9.054  18.359  0.00  0.00    +0.000 A 
ATOM     15  C   UNL     1       2.016   7.853  17.835  0.00  0.00    +0.000 A 
ATOM     16  C   UNL     1       2.175   6.739  18.671  0.00  0.00    +0.000 A 
ATOM     17  C   UNL     1       1.903   6.848  20.046  0.00  0.00    +0.000 A 
ATOM     18  C   UNL     1       1.446   8.057  20.575  0.00  0.00    +0.000 A 
BRANCH  13  20
ATOM     19  C   UNL     1       1.372  11.895  19.320  0.00  0.00    +0.000 C 
ATOM     20  S   UNL     1       0.658  10.684  20.396  0.00  0.00    +0.000 S 
ATOM     21  O   UNL     1       1.243  10.841  21.710  0.00  0.00    +0.000 OA
ATOM     22  O   UNL     1      -0.785  10.706  20.212  0.00  0.00    +0.000 OA
ENDBRANCH  13  20
ENDBRANCH   1  16
TORSDOF 3
ENDMDL
MODEL 5
REMARK VINA RESULT:      -7.6      0.203      1.473
REMARK  Name = 
REMARK  4 active torsions:
REMARK  status: ('A' for Active; 'I' for Inactive)
REMARK    1  A    between atoms: C_1  and  S_2
REMARK    2  A    between atoms: S_2  and  C_5
REMARK    3  A    between atoms: C_8  and  N_9
REMARK    4  A    between atoms: C_13  and  C_14
REMARK                            x       y       z     vdW  Elec       q    Type
REMARK                         _______ _______ _______ _____ _____    ______ ____
ROOT
ATOM      1  N   UNL     1       2.944   4.972  18.184  0.00  0.00    +0.000 N 
ATOM      2  N   UNL     1       2.239   3.857  17.885  0.00  0.00    +0.000 NA
ATOM      3  N   UNL     1       2.929   3.239  16.940  0.00  0.00    +0.000 NA
ATOM      4  N   UNL     1       4.130   3.861  16.724  0.00  0.00    +0.000 NA
ATOM      5  C   UNL     1       4.190   4.874  17.573  0.00  0.00    +0.000 A 
ENDROOT
BRANCH   5   6
ATOM      6  C   UNL     1       5.409   5.612  17.918  0.00  0.00    +0.000 A 
ATOM      7  C   UNL     1       5.790   6.731  17.162  0.00  0.00    +0.000 A 
ATOM      8  C   UNL     1       6.996   7.392  17.431  0.00  0.00    +0.000 A 
ATOM      9  C   UNL     1       7.814   6.936  18.458  0.00  0.00    +0.000 A 
ATOM     10  F   UNL     1       8.977   7.553  18.703  0.00  0.00    +0.000 F 
ATOM     11  C   UNL     1       7.460   5.837  19.222  0.00  0.00    +0.000 A 
ATOM     12  C   UNL     1       6.272   5.167  18.937  0.00  0.00    +0.000 A 
ENDBRANCH   5   6
BRANCH   1  16
ATOM     13  C   UNL     1       1.404   7.990  20.667  0.00  0.00    +0.000 A 
ATOM     14  C   UNL     1       1.415   6.662  21.110  0.00  0.00    +0.000 A 
ATOM     15  C   UNL     1       1.901   5.660  20.271  0.00  0.00    +0.000 A 
ATOM     16  C   UNL     1       2.397   5.989  19.002  0.00  0.00    +0.000 A 
ATOM     17  C   UNL     1       2.360   7.322  18.557  0.00  0.00    +0.000 A 
ATOM     18  C   UNL     1       1.857   8.324  19.390  0.00  0.00    +0.000 A 
BRANCH  13  20
ATOM     19  C   UNL     1       0.717  10.685  20.674  0.00  0.00    +0.000 C 
ATOM     20  S   UNL     1       0.773   9.267  21.733  0.00  0.00    +0.000 S 
ATOM     21  O   UNL     1       1.763   9.505  22.760  0.00  0.00    +0.000 OA
ATOM     22  O   UNL     1      -0.592   8.904  22.079  0.00  0.00    +0.000 OA
ENDBRANCH  13  20
ENDBRANCH   1  16
TORSDOF 3
ENDMDL
MODEL 6
REMARK VINA RESULT:      -7.6      0.370      1.099
REMARK  Name = 
REMARK  4 active torsions:
REMARK  status: ('A' for Active; 'I' for Inactive)
REMARK    1  A    between atoms: C_1  and  S_2
REMARK    2  A    between atoms: S_2  and  C_5
REMARK    3  A    between atoms: C_8  and  N_9
REMARK    4  A    between atoms: C_13  and  C_14
REMARK                            x       y       z     vdW  Elec       q    Type
REMARK                         _______ _______ _______ _____ _____    ______ ____
ROOT
ATOM      1  N   UNL     1       3.015   4.594  18.397  0.00  0.00    +0.000 N 
ATOM      2  N   UNL     1       2.317   3.443  18.266  0.00  0.00    +0.000 NA
ATOM      3  N   UNL     1       2.983   2.718  17.382  0.00  0.00    +0.000 NA
ATOM      4  N   UNL     1       4.166   3.321  17.046  0.00  0.00    +0.000 NA
ATOM      5  C   UNL     1       4.240   4.433  17.758  0.00  0.00    +0.000 A 
ENDROOT
BRANCH   5   6
ATOM      6  C   UNL     1       5.459   5.222  17.963  0.00  0.00    +0.000 A 
ATOM      7  C   UNL     1       6.269   4.986  19.084  0.00  0.00    +0.000 A 
ATOM      8  C   UNL     1       7.390   5.790  19.332  0.00  0.00    +0.000 A 
ATOM      9  C   UNL     1       7.701   6.823  18.456  0.00  0.00    +0.000 A 
ATOM     10  F   UNL     1       8.758   7.606  18.703  0.00  0.00    +0.000 F 
ATOM     11  C   UNL     1       6.921   7.075  17.340  0.00  0.00    +0.000 A 
ATOM     12  C   UNL     1       5.793   6.290  17.108  0.00  0.00    +0.000 A 
ENDBRANCH   5   6
BRANCH   1  16
ATOM     13  C   UNL     1       1.514   7.880  20.540  0.00  0.00    +0.000 A 
ATOM     14  C   UNL     1       1.482   6.603  21.112  0.00  0.00    +0.000 A 
ATOM     15  C   UNL     1       1.955   5.511  20.385  0.00  0.00    +0.000 A 
ATOM     16  C   UNL     1       2.481   5.701  19.099  0.00  0.00    +0.000 A 
ATOM     17  C   UNL     1       2.487   6.984  18.525  0.00  0.00    +0.000 A 
ATOM     18  C   UNL     1       1.996   8.075  19.245  0.00  0.00    +0.000 A 
BRANCH  13  20
ATOM     19  C   UNL     1       0.886  10.575  20.265  0.00  0.00    +0.000 C 
ATOM     20  S   UNL     1       0.898   9.271  21.463  0.00  0.00    +0.000 S 
ATOM     21  O   UNL     1       1.882   9.592  22.474  0.00  0.00    +0.000 OA
ATOM     22  O   UNL     1      -0.478   8.973  21.825  0.00  0.00    +0.000 OA
ENDBRANCH  13  20
ENDBRANCH   1  16
TORSDOF 3
ENDMDL
MODEL 7
REMARK VINA RESULT:      -7.5      0.984      1.782
REMARK  Name = 
REMARK  4 active torsions:
REMARK  status: ('A' for Active; 'I' for Inactive)
REMARK    1  A    between atoms: C_1  and  S_2
REMARK    2  A    between atoms: S_2  and  C_5
REMARK    3  A    between atoms: C_8  and  N_9
REMARK    4  A    between atoms: C_13  and  C_14
REMARK                            x       y       z     vdW  Elec       q    Type
REMARK                         _______ _______ _______ _____ _____    ______ ____
ROOT
ATOM      1  N   UNL     1       2.838   5.383  18.020  0.00  0.00    +0.000 N 
ATOM      2  N   UNL     1       2.063   4.288  17.850  0.00  0.00    +0.000 NA
ATOM      3  N   UNL     1       2.783   3.447  17.124  0.00  0.00    +0.000 NA
ATOM      4  N   UNL     1       4.054   3.923  16.943  0.00  0.00    +0.000 NA
ATOM      5  C   UNL     1       4.124   5.074  17.592  0.00  0.00    +0.000 A 
ENDROOT
BRANCH   5   6
ATOM      6  C   UNL     1       5.367   5.771  17.937  0.00  0.00    +0.000 A 
ATOM      7  C   UNL     1       5.790   6.872  17.177  0.00  0.00    +0.000 A 
ATOM      8  C   UNL     1       7.018   7.491  17.448  0.00  0.00    +0.000 A 
ATOM      9  C   UNL     1       7.816   7.013  18.479  0.00  0.00    +0.000 A 
ATOM     10  F   UNL     1       8.999   7.589  18.725  0.00  0.00    +0.000 F 
ATOM     11  C   UNL     1       7.420   5.931  19.247  0.00  0.00    +0.000 A 
ATOM     12  C   UNL     1       6.210   5.301  18.962  0.00  0.00    +0.000 A 
ENDBRANCH   5   6
BRANCH   1  16
ATOM     13  C   UNL     1       1.363   8.948  19.680  0.00  0.00    +0.000 A 
ATOM     14  C   UNL     1       1.535   7.822  20.492  0.00  0.00    +0.000 A 
ATOM     15  C   UNL     1       1.997   6.632  19.931  0.00  0.00    +0.000 A 
ATOM     16  C   UNL     1       2.310   6.578  18.565  0.00  0.00    +0.000 A 
ATOM     17  C   UNL     1       2.112   7.708  17.754  0.00  0.00    +0.000 A 
ATOM     18  C   UNL     1       1.631   8.894  18.311  0.00  0.00    +0.000 A 
BRANCH  13  20
ATOM     19  C   UNL     1       1.408  11.704  19.310  0.00  0.00    +0.000 C 
ATOM     20  S   UNL     1       0.761  10.463  20.394  0.00  0.00    +0.000 S 
ATOM     21  O   UNL     1       1.390  10.615  21.687  0.00  0.00    +0.000 OA
ATOM     22  O   UNL     1      -0.688  10.455  20.262  0.00  0.00    +0.000 OA
ENDBRANCH  13  20
ENDBRANCH   1  16
TORSDOF 3
ENDMDL
MODEL 8
REMARK VINA RESULT:      -7.5      0.383      1.095
REMARK  Name = 
REMARK  4 active torsions:
REMARK  status: ('A' for Active; 'I' for Inactive)
REMARK    1  A    between atoms: C_1  and  S_2
REMARK    2  A    between atoms: S_2  and  C_5
REMARK    3  A    between atoms: C_8  and  N_9
REMARK    4  A    between atoms: C_13  and  C_14
REMARK                            x       y       z     vdW  Elec       q    Type
REMARK                         _______ _______ _______ _____ _____    ______ ____
ROOT
ATOM      1  N   UNL     1       3.078   4.853  18.241  0.00  0.00    +0.000 N 
ATOM      2  N   UNL     1       2.421   3.707  17.951  0.00  0.00    +0.000 NA
ATOM      3  N   UNL     1       3.112   3.133  16.979  0.00  0.00    +0.000 NA
ATOM      4  N   UNL     1       4.273   3.817  16.734  0.00  0.00    +0.000 NA
ATOM      5  C   UNL     1       4.308   4.823  17.592  0.00  0.00    +0.000 A 
ENDROOT
BRANCH   5   6
ATOM      6  C   UNL     1       5.499   5.619  17.908  0.00  0.00    +0.000 A 
ATOM      7  C   UNL     1       5.834   6.726  17.115  0.00  0.00    +0.000 A 
ATOM      8  C   UNL     1       7.015   7.441  17.358  0.00  0.00    +0.000 A 
ATOM      9  C   UNL     1       7.853   7.052  18.395  0.00  0.00    +0.000 A 
ATOM     10  F   UNL     1       8.991   7.720  18.616  0.00  0.00    +0.000 F 
ATOM     11  C   UNL     1       7.543   5.965  19.196  0.00  0.00    +0.000 A 
ATOM     12  C   UNL     1       6.381   5.240  18.938  0.00  0.00    +0.000 A 
ENDBRANCH   5   6
BRANCH   1  16
ATOM     13  C   UNL     1       1.300   7.766  20.688  0.00  0.00    +0.000 A 
ATOM     14  C   UNL     1       1.896   8.142  19.479  0.00  0.00    +0.000 A 
ATOM     15  C   UNL     1       2.510   7.176  18.684  0.00  0.00    +0.000 A 
ATOM     16  C   UNL     1       2.506   5.833  19.086  0.00  0.00    +0.000 A 
ATOM     17  C   UNL     1       1.926   5.469  20.313  0.00  0.00    +0.000 A 
ATOM     18  C   UNL     1       1.327   6.439  21.119  0.00  0.00    +0.000 A 
BRANCH  13  20
ATOM     19  C   UNL     1       0.124  10.283  20.556  0.00  0.00    +0.000 C 
ATOM     20  S   UNL     1       0.527   9.002  21.709  0.00  0.00    +0.000 S 
ATOM     21  O   UNL     1       1.532   9.507  22.618  0.00  0.00    +0.000 OA
ATOM     22  O   UNL     1      -0.715   8.432  22.209  0.00  0.00    +0.000 OA
ENDBRANCH  13  20
ENDBRANCH   1  16
TORSDOF 3
ENDMDL
MODEL 9
REMARK VINA RESULT:      -7.4      1.024      1.644
REMARK  Name = 
REMARK  4 active torsions:
REMARK  status: ('A' for Active; 'I' for Inactive)
REMARK    1  A    between atoms: C_1  and  S_2
REMARK    2  A    between atoms: S_2  and  C_5
REMARK    3  A    between atoms: C_8  and  N_9
REMARK    4  A    between atoms: C_13  and  C_14
REMARK                            x       y       z     vdW  Elec       q    Type
REMARK                         _______ _______ _______ _____ _____    ______ ____
ROOT
ATOM      1  N   UNL     1       2.790   5.374  18.164  0.00  0.00    +0.000 N 
ATOM      2  N   UNL     1       2.006   4.294  17.944  0.00  0.00    +0.000 NA
ATOM      3  N   UNL     1       2.684   3.523  17.110  0.00  0.00    +0.000 NA
ATOM      4  N   UNL     1       3.943   4.018  16.899  0.00  0.00    +0.000 NA
ATOM      5  C   UNL     1       4.050   5.110  17.639  0.00  0.00    +0.000 A 
ENDROOT
BRANCH   5   6
ATOM      6  C   UNL     1       5.311   5.780  17.972  0.00  0.00    +0.000 A 
ATOM      7  C   UNL     1       5.743   6.879  17.215  0.00  0.00    +0.000 A 
ATOM      8  C   UNL     1       6.986   7.473  17.474  0.00  0.00    +0.000 A 
ATOM      9  C   UNL     1       7.789   6.971  18.490  0.00  0.00    +0.000 A 
ATOM     10  F   UNL     1       8.986   7.523  18.724  0.00  0.00    +0.000 F 
ATOM     11  C   UNL     1       7.384   5.891  19.255  0.00  0.00    +0.000 A 
ATOM     12  C   UNL     1       6.159   5.286  18.981  0.00  0.00    +0.000 A 
ENDBRANCH   5   6
BRANCH   1  16
ATOM     13  C   UNL     1       1.230   8.748  20.121  0.00  0.00    +0.000 A 
ATOM     14  C   UNL     1       1.603   8.834  18.775  0.00  0.00    +0.000 A 
ATOM     15  C   UNL     1       2.147   7.720  18.137  0.00  0.00    +0.000 A 
ATOM     16  C   UNL     1       2.294   6.515  18.839  0.00  0.00    +0.000 A 
ATOM     17  C   UNL     1       1.939   6.445  20.197  0.00  0.00    +0.000 A 
ATOM     18  C   UNL     1       1.411   7.566  20.841  0.00  0.00    +0.000 A 
BRANCH  13  20
ATOM     19  C   UNL     1      -0.048   9.514  22.469  0.00  0.00    +0.000 C 
ATOM     20  S   UNL     1       0.548  10.174  20.938  0.00  0.00    +0.000 S 
ATOM     21  O   UNL     1      -0.589  10.618  20.161  0.00  0.00    +0.000 OA
ATOM     22  O   UNL     1       1.653  11.073  21.229  0.00  0.00    +0.000 OA
ENDBRANCH  13  20
ENDBRANCH   1  16
TORSDOF 3
ENDMDL
