MODEL 1
REMARK VINA RESULT:      -7.8      0.000      0.000
REMARK  Name = 
REMARK  9 active torsions:
REMARK  status: ('A' for Active; 'I' for Inactive)
REMARK    1  A    between atoms: C_1  and  C_2
REMARK    2  A    between atoms: C_7  and  S_8
REMARK    3  A    between atoms: S_8  and  N_11
REMARK    4  A    between atoms: C_18  and  C_19
REMARK    5  A    between atoms: C_22  and  C_23
REMARK    6  A    between atoms: C_24  and  C_25
REMARK    7  A    between atoms: C_25  and  C_26
REMARK    8  A    between atoms: C_33  and  C_34
REMARK    9  A    between atoms: C_34  and  O_35
REMARK                            x       y       z     vdW  Elec       q    Type
REMARK                         _______ _______ _______ _____ _____    ______ ____
ROOT
ATOM      1  N   UNL     1      -0.816  16.462  21.363  0.00  0.00    +0.000 NA
ATOM      2  C   UNL     1      -1.772  16.583  22.538  0.00  0.00    +0.000 C 
ATOM      3  C   UNL     1      -2.575  15.343  22.948  0.00  0.00    +0.000 C 
ATOM      4  O   UNL     1      -3.286  15.317  23.975  0.00  0.00    +0.000 OA
ATOM      5  N   UNL     1      -2.545  14.292  22.069  0.00  0.00    +0.000 N 
ATOM      6  C   UNL     1      -1.626  14.122  20.950  0.00  0.00    +0.000 C 
ATOM      7  C   UNL     1      -1.415  15.505  20.321  0.00  0.00    +0.000 C 
ATOM      8  C   UNL     1      -2.421  12.770  20.602  0.00  0.00    +0.000 C 
ATOM      9  C   UNL     1      -2.929  12.864  22.158  0.00  0.00    +0.000 C 
ENDROOT
BRANCH   8  10
ATOM     10  C   UNL     1      -1.289  11.531  20.077  0.00  0.00    +0.000 A 
ATOM     11  C   UNL     1      -0.473  10.775  20.956  0.00  0.00    +0.000 A 
ATOM     12  C   UNL     1       0.518   9.819  20.520  0.00  0.00    +0.000 A 
ATOM     13  C   UNL     1       0.761   9.542  19.166  0.00  0.00    +0.000 A 
ATOM     14  C   UNL     1       0.002  10.315  18.275  0.00  0.00    +0.000 A 
ATOM     15  C   UNL     1      -0.986  11.274  18.717  0.00  0.00    +0.000 A 
BRANCH  13  16
ATOM     16  C   UNL     1       1.720   8.489  18.712  0.00  0.00    +0.000 C 
ATOM     17  C   UNL     1       2.501   7.508  18.355  0.00  0.00    +0.000 C 
BRANCH  17  18
ATOM     18  C   UNL     1       3.412   6.364  17.940  0.00  0.00    +0.000 C 
BRANCH  18  19
ATOM     19  C   UNL     1       2.940   5.040  18.535  0.00  0.00    +0.000 C 
ATOM     20  C   UNL     1       2.162   5.221  19.836  0.00  0.00    +0.000 C 
ATOM     21  C   UNL     1       1.445   3.889  20.015  0.00  0.00    +0.000 C 
ATOM     22  C   UNL     1       1.194   3.360  18.604  0.00  0.00    +0.000 C 
ATOM     23  C   UNL     1       1.935   4.296  17.655  0.00  0.00    +0.000 C 
ENDBRANCH  18  19
ENDBRANCH  17  18
ENDBRANCH  13  16
ENDBRANCH   8  10
BRANCH   1  24
ATOM     24  S   UNL     1       0.880  16.261  21.752  0.00  0.00    +0.000 S 
ATOM     25  O   UNL     1       0.954  15.454  22.956  0.00  0.00    +0.000 OA
ATOM     26  O   UNL     1       1.481  17.571  21.711  0.00  0.00    +0.000 OA
BRANCH  24  33
ATOM     27  C   UNL     1       1.604  17.182  18.759  0.00  0.00    +0.000 C 
ATOM     28  C   UNL     1       2.007  15.808  19.161  0.00  0.00    +0.000 A 
ATOM     29  C   UNL     1       2.648  15.002  18.201  0.00  0.00    +0.000 A 
ATOM     30  C   UNL     1       2.844  13.637  18.404  0.00  0.00    +0.000 A 
ATOM     31  C   UNL     1       2.358  13.066  19.561  0.00  0.00    +0.000 A 
ATOM     32  C   UNL     1       1.773  13.862  20.569  0.00  0.00    +0.000 A 
ATOM     33  C   UNL     1       1.659  15.267  20.428  0.00  0.00    +0.000 A 
ENDBRANCH  24  33
ENDBRANCH   1  24
BRANCH   9  34
ATOM     34  C   UNL     1      -4.310  12.776  22.847  0.00  0.00    +0.000 C 
BRANCH  34  35
ATOM     35  O   UNL     1      -4.204  12.214  24.151  0.00  0.00    +0.000 OA
ATOM     36  H   UNL     1      -5.027  11.713  24.308  0.00  0.00    +0.000 HD
ENDBRANCH  34  35
ENDBRANCH   9  34
TORSDOF 8
ENDMDL
MODEL 2
REMARK VINA RESULT:      -7.4      7.114      9.322
REMARK  Name = 
REMARK  9 active torsions:
REMARK  status: ('A' for Active; 'I' for Inactive)
REMARK    1  A    between atoms: C_1  and  C_2
REMARK    2  A    between atoms: C_7  and  S_8
REMARK    3  A    between atoms: S_8  and  N_11
REMARK    4  A    between atoms: C_18  and  C_19
REMARK    5  A    between atoms: C_22  and  C_23
REMARK    6  A    between atoms: C_24  and  C_25
REMARK    7  A    between atoms: C_25  and  C_26
REMARK    8  A    between atoms: C_33  and  C_34
REMARK    9  A    between atoms: C_34  and  O_35
REMARK                            x       y       z     vdW  Elec       q    Type
REMARK                         _______ _______ _______ _____ _____    ______ ____
ROOT
ATOM      1  N   UNL     1       8.466  16.414  22.489  0.00  0.00    +0.000 NA
ATOM      2  C   UNL     1       8.615  17.685  21.669  0.00  0.00    +0.000 C 
ATOM      3  C   UNL     1       9.090  17.558  20.217  0.00  0.00    +0.000 C 
ATOM      4  O   UNL     1       9.120  18.532  19.435  0.00  0.00    +0.000 OA
ATOM      5  N   UNL     1       9.574  16.329  19.850  0.00  0.00    +0.000 N 
ATOM      6  C   UNL     1       9.427  15.081  20.590  0.00  0.00    +0.000 C 
ATOM      7  C   UNL     1       9.563  15.418  22.081  0.00  0.00    +0.000 C 
ATOM      8  C   UNL     1      10.314  14.387  19.446  0.00  0.00    +0.000 C 
ATOM      9  C   UNL     1       9.880  15.689  18.549  0.00  0.00    +0.000 C 
ENDROOT
BRANCH   8  10
ATOM     10  C   UNL     1       9.689  12.780  19.098  0.00  0.00    +0.000 A 
ATOM     11  C   UNL     1       9.993  11.626  19.863  0.00  0.00    +0.000 A 
ATOM     12  C   UNL     1       9.550  10.292  19.528  0.00  0.00    +0.000 A 
ATOM     13  C   UNL     1       8.761  10.015  18.401  0.00  0.00    +0.000 A 
ATOM     14  C   UNL     1       8.489  11.135  17.600  0.00  0.00    +0.000 A 
ATOM     15  C   UNL     1       8.939  12.466  17.938  0.00  0.00    +0.000 A 
BRANCH  13  16
ATOM     16  C   UNL     1       8.225   8.653  18.100  0.00  0.00    +0.000 C 
ATOM     17  C   UNL     1       7.700   7.504  17.777  0.00  0.00    +0.000 C 
BRANCH  17  18
ATOM     18  C   UNL     1       7.089   6.165  17.399  0.00  0.00    +0.000 C 
BRANCH  18  19
ATOM     19  C   UNL     1       5.640   6.068  17.872  0.00  0.00    +0.000 C 
ATOM     20  C   UNL     1       4.752   5.294  16.901  0.00  0.00    +0.000 C 
ATOM     21  C   UNL     1       3.521   4.956  17.731  0.00  0.00    +0.000 C 
ATOM     22  C   UNL     1       4.014   4.827  19.171  0.00  0.00    +0.000 C 
ATOM     23  C   UNL     1       5.471   5.278  19.170  0.00  0.00    +0.000 C 
ENDBRANCH  18  19
ENDBRANCH  17  18
ENDBRANCH  13  16
ENDBRANCH   8  10
BRANCH   1  24
ATOM     24  S   UNL     1       6.841  15.786  22.668  0.00  0.00    +0.000 S 
ATOM     25  O   UNL     1       6.330  15.521  21.336  0.00  0.00    +0.000 OA
ATOM     26  O   UNL     1       6.139  16.678  23.558  0.00  0.00    +0.000 OA
BRANCH  24  33
ATOM     27  C   UNL     1       8.147  15.112  25.527  0.00  0.00    +0.000 C 
ATOM     28  C   UNL     1       7.475  13.996  24.810  0.00  0.00    +0.000 A 
ATOM     29  C   UNL     1       7.482  12.725  25.415  0.00  0.00    +0.000 A 
ATOM     30  C   UNL     1       7.095  11.581  24.719  0.00  0.00    +0.000 A 
ATOM     31  C   UNL     1       6.736  11.704  23.394  0.00  0.00    +0.000 A 
ATOM     32  C   UNL     1       6.655  12.974  22.783  0.00  0.00    +0.000 A 
ATOM     33  C   UNL     1       6.944  14.160  23.502  0.00  0.00    +0.000 A 
ENDBRANCH  24  33
ENDBRANCH   1  24
BRANCH   9  34
ATOM     34  C   UNL     1      10.657  16.705  17.681  0.00  0.00    +0.000 C 
BRANCH  34  35
ATOM     35  O   UNL     1      10.323  16.571  16.303  0.00  0.00    +0.000 OA
ATOM     36  H   UNL     1      10.836  17.248  15.823  0.00  0.00    +0.000 HD
ENDBRANCH  34  35
ENDBRANCH   9  34
TORSDOF 8
ENDMDL
MODEL 3
REMARK VINA RESULT:      -7.4      2.979      5.618
REMARK  Name = 
REMARK  9 active torsions:
REMARK  status: ('A' for Active; 'I' for Inactive)
REMARK    1  A    between atoms: C_1  and  C_2
REMARK    2  A    between atoms: C_7  and  S_8
REMARK    3  A    between atoms: S_8  and  N_11
REMARK    4  A    between atoms: C_18  and  C_19
REMARK    5  A    between atoms: C_22  and  C_23
REMARK    6  A    between atoms: C_24  and  C_25
REMARK    7  A    between atoms: C_25  and  C_26
REMARK    8  A    between atoms: C_33  and  C_34
REMARK    9  A    between atoms: C_34  and  O_35
REMARK                            x       y       z     vdW  Elec       q    Type
REMARK                         _______ _______ _______ _____ _____    ______ ____
ROOT
ATOM      1  N   UNL     1      -5.195  13.664  21.894  0.00  0.00    +0.000 NA
ATOM      2  C   UNL     1      -4.876  15.136  22.099  0.00  0.00    +0.000 C 
ATOM      3  C   UNL     1      -3.421  15.528  22.382  0.00  0.00    +0.000 C 
ATOM      4  O   UNL     1      -3.048  16.719  22.438  0.00  0.00    +0.000 OA
ATOM      5  N   UNL     1      -2.566  14.495  22.667  0.00  0.00    +0.000 N 
ATOM      6  C   UNL     1      -2.821  13.074  22.458  0.00  0.00    +0.000 C 
ATOM      7  C   UNL     1      -4.293  12.820  22.807  0.00  0.00    +0.000 C 
ATOM      8  C   UNL     1      -1.381  12.798  23.114  0.00  0.00    +0.000 C 
ATOM      9  C   UNL     1      -1.092  14.368  22.739  0.00  0.00    +0.000 C 
ENDROOT
BRANCH   8  10
ATOM     10  C   UNL     1      -0.579  11.485  22.262  0.00  0.00    +0.000 A 
ATOM     11  C   UNL     1      -0.395  10.186  22.797  0.00  0.00    +0.000 A 
ATOM     12  C   UNL     1       0.340   9.133  22.134  0.00  0.00    +0.000 A 
ATOM     13  C   UNL     1       0.941   9.303  20.878  0.00  0.00    +0.000 A 
ATOM     14  C   UNL     1       0.816  10.597  20.350  0.00  0.00    +0.000 A 
ATOM     15  C   UNL     1       0.084  11.648  21.020  0.00  0.00    +0.000 A 
BRANCH  13  16
ATOM     16  C   UNL     1       1.623   8.191  20.147  0.00  0.00    +0.000 C 
ATOM     17  C   UNL     1       2.236   7.183  19.592  0.00  0.00    +0.000 C 
BRANCH  17  18
ATOM     18  C   UNL     1       2.950   6.008  18.945  0.00  0.00    +0.000 C 
BRANCH  18  19
ATOM     19  C   UNL     1       2.361   4.680  19.414  0.00  0.00    +0.000 C 
ATOM     20  C   UNL     1       3.431   3.654  19.779  0.00  0.00    +0.000 C 
ATOM     21  C   UNL     1       2.672   2.616  20.595  0.00  0.00    +0.000 C 
ATOM     22  C   UNL     1       1.544   3.377  21.288  0.00  0.00    +0.000 C 
ATOM     23  C   UNL     1       1.559   4.790  20.712  0.00  0.00    +0.000 C 
ENDBRANCH  18  19
ENDBRANCH  17  18
ENDBRANCH  13  16
ENDBRANCH   8  10
BRANCH   1  24
ATOM     24  S   UNL     1      -5.384  13.129  20.238  0.00  0.00    +0.000 S 
ATOM     25  O   UNL     1      -4.058  12.837  19.724  0.00  0.00    +0.000 OA
ATOM     26  O   UNL     1      -6.230  14.092  19.576  0.00  0.00    +0.000 OA
BRANCH  24  33
ATOM     27  C   UNL     1      -5.639  10.988  17.854  0.00  0.00    +0.000 C 
ATOM     28  C   UNL     1      -6.260  10.628  19.157  0.00  0.00    +0.000 A 
ATOM     29  C   UNL     1      -6.935   9.396  19.246  0.00  0.00    +0.000 A 
ATOM     30  C   UNL     1      -7.743   9.082  20.338  0.00  0.00    +0.000 A 
ATOM     31  C   UNL     1      -7.910  10.026  21.329  0.00  0.00    +0.000 A 
ATOM     32  C   UNL     1      -7.191  11.241  21.296  0.00  0.00    +0.000 A 
ATOM     33  C   UNL     1      -6.284  11.536  20.249  0.00  0.00    +0.000 A 
ENDBRANCH  24  33
ENDBRANCH   1  24
BRANCH   9  34
ATOM     34  C   UNL     1      -0.540  15.578  23.526  0.00  0.00    +0.000 C 
BRANCH  34  35
ATOM     35  O   UNL     1       0.844  15.784  23.256  0.00  0.00    +0.000 OA
ATOM     36  H   UNL     1       0.953  16.734  23.064  0.00  0.00    +0.000 HD
ENDBRANCH  34  35
ENDBRANCH   9  34
TORSDOF 8
ENDMDL
MODEL 4
REMARK VINA RESULT:      -7.3      2.003      2.827
REMARK  Name = 
REMARK  9 active torsions:
REMARK  status: ('A' for Active; 'I' for Inactive)
REMARK    1  A    between atoms: C_1  and  C_2
REMARK    2  A    between atoms: C_7  and  S_8
REMARK    3  A    between atoms: S_8  and  N_11
REMARK    4  A    between atoms: C_18  and  C_19
REMARK    5  A    between atoms: C_22  and  C_23
REMARK    6  A    between atoms: C_24  and  C_25
REMARK    7  A    between atoms: C_25  and  C_26
REMARK    8  A    between atoms: C_33  and  C_34
REMARK    9  A    between atoms: C_34  and  O_35
REMARK                            x       y       z     vdW  Elec       q    Type
REMARK                         _______ _______ _______ _____ _____    ______ ____
ROOT
ATOM      1  N   UNL     1      -0.620  14.974  19.982  0.00  0.00    +0.000 NA
ATOM      2  C   UNL     1      -0.970  15.233  21.439  0.00  0.00    +0.000 C 
ATOM      3  C   UNL     1      -1.057  14.031  22.386  0.00  0.00    +0.000 C 
ATOM      4  O   UNL     1      -1.213  14.161  23.619  0.00  0.00    +0.000 OA
ATOM      5  N   UNL     1      -1.049  12.796  21.790  0.00  0.00    +0.000 N 
ATOM      6  C   UNL     1      -0.690  12.501  20.408  0.00  0.00    +0.000 C 
ATOM      7  C   UNL     1      -1.243  13.641  19.542  0.00  0.00    +0.000 C 
ATOM      8  C   UNL     1      -1.051  10.969  20.722  0.00  0.00    +0.000 C 
ATOM      9  C   UNL     1      -0.854  11.414  22.287  0.00  0.00    +0.000 C 
ENDROOT
BRANCH   8  10
ATOM     10  C   UNL     1       0.096   9.908  19.916  0.00  0.00    +0.000 A 
ATOM     11  C   UNL     1       0.862   8.915  20.578  0.00  0.00    +0.000 A 
ATOM     12  C   UNL     1       1.866   8.102  19.932  0.00  0.00    +0.000 A 
ATOM     13  C   UNL     1       2.176   8.219  18.568  0.00  0.00    +0.000 A 
ATOM     14  C   UNL     1       1.467   9.231  17.902  0.00  0.00    +0.000 A 
ATOM     15  C   UNL     1       0.466  10.044  18.555  0.00  0.00    +0.000 A 
BRANCH  13  16
ATOM     16  C   UNL     1       3.148   7.320  17.876  0.00  0.00    +0.000 C 
ATOM     17  C   UNL     1       3.973   6.470  17.332  0.00  0.00    +0.000 C 
BRANCH  17  18
ATOM     18  C   UNL     1       4.935   5.478  16.698  0.00  0.00    +0.000 C 
BRANCH  18  19
ATOM     19  C   UNL     1       4.758   4.083  17.292  0.00  0.00    +0.000 C 
ATOM     20  C   UNL     1       4.945   4.057  18.807  0.00  0.00    +0.000 C 
ATOM     21  C   UNL     1       4.324   2.730  19.223  0.00  0.00    +0.000 C 
ATOM     22  C   UNL     1       3.215   2.454  18.209  0.00  0.00    +0.000 C 
ATOM     23  C   UNL     1       3.345   3.522  17.127  0.00  0.00    +0.000 C 
ENDBRANCH  18  19
ENDBRANCH  17  18
ENDBRANCH  13  16
ENDBRANCH   8  10
BRANCH   1  24
ATOM     24  S   UNL     1       1.040  15.277  19.512  0.00  0.00    +0.000 S 
ATOM     25  O   UNL     1       1.542  14.064  18.896  0.00  0.00    +0.000 OA
ATOM     26  O   UNL     1       1.706  15.847  20.658  0.00  0.00    +0.000 OA
BRANCH  24  33
ATOM     27  C   UNL     1       3.569  16.516  17.963  0.00  0.00    +0.000 C 
ATOM     28  C   UNL     1       2.220  16.965  17.525  0.00  0.00    +0.000 A 
ATOM     29  C   UNL     1       2.147  17.915  16.489  0.00  0.00    +0.000 A 
ATOM     30  C   UNL     1       0.955  18.568  16.178  0.00  0.00    +0.000 A 
ATOM     31  C   UNL     1      -0.163  18.297  16.937  0.00  0.00    +0.000 A 
ATOM     32  C   UNL     1      -0.133  17.299  17.936  0.00  0.00    +0.000 A 
ATOM     33  C   UNL     1       1.040  16.550  18.198  0.00  0.00    +0.000 A 
ENDBRANCH  24  33
ENDBRANCH   1  24
BRANCH   9  34
ATOM     34  C   UNL     1      -1.698  11.239  23.571  0.00  0.00    +0.000 C 
BRANCH  34  35
ATOM     35  O   UNL     1      -3.040  11.672  23.372  0.00  0.00    +0.000 OA
ATOM     36  H   UNL     1      -3.470  11.001  22.809  0.00  0.00    +0.000 HD
ENDBRANCH  34  35
ENDBRANCH   9  34
TORSDOF 8
ENDMDL
MODEL 5
REMARK VINA RESULT:      -7.3      0.890      1.731
REMARK  Name = 
REMARK  9 active torsions:
REMARK  status: ('A' for Active; 'I' for Inactive)
REMARK    1  A    between atoms: C_1  and  C_2
REMARK    2  A    between atoms: C_7  and  S_8
REMARK    3  A    between atoms: S_8  and  N_11
REMARK    4  A    between atoms: C_18  and  C_19
REMARK    5  A    between atoms: C_22  and  C_23
REMARK    6  A    between atoms: C_24  and  C_25
REMARK    7  A    between atoms: C_25  and  C_26
REMARK    8  A    between atoms: C_33  and  C_34
REMARK    9  A    between atoms: C_34  and  O_35
REMARK                            x       y       z     vdW  Elec       q    Type
REMARK                         _______ _______ _______ _____ _____    ______ ____
ROOT
ATOM      1  N   UNL     1      -0.387  16.356  21.085  0.00  0.00    +0.000 NA
ATOM      2  C   UNL     1      -1.325  16.503  22.272  0.00  0.00    +0.000 C 
ATOM      3  C   UNL     1      -2.079  15.259  22.756  0.00  0.00    +0.000 C 
ATOM      4  O   UNL     1      -2.770  15.260  23.797  0.00  0.00    +0.000 OA
ATOM      5  N   UNL     1      -2.031  14.169  21.927  0.00  0.00    +0.000 N 
ATOM      6  C   UNL     1      -1.128  13.974  20.799  0.00  0.00    +0.000 C 
ATOM      7  C   UNL     1      -0.974  15.333  20.101  0.00  0.00    +0.000 C 
ATOM      8  C   UNL     1      -1.884  12.583  20.531  0.00  0.00    +0.000 C 
ATOM      9  C   UNL     1      -2.366  12.735  22.091  0.00  0.00    +0.000 C 
ENDROOT
BRANCH   8  10
ATOM     10  C   UNL     1      -0.722  11.357  20.042  0.00  0.00    +0.000 A 
ATOM     11  C   UNL     1      -0.216  11.222  18.725  0.00  0.00    +0.000 A 
ATOM     12  C   UNL     1       0.671  10.163  18.303  0.00  0.00    +0.000 A 
ATOM     13  C   UNL     1       1.124   9.160  19.174  0.00  0.00    +0.000 A 
ATOM     14  C   UNL     1       0.595   9.242  20.471  0.00  0.00    +0.000 A 
ATOM     15  C   UNL     1      -0.296  10.302  20.887  0.00  0.00    +0.000 A 
BRANCH  13  16
ATOM     16  C   UNL     1       2.112   8.115  18.766  0.00  0.00    +0.000 C 
ATOM     17  C   UNL     1       2.921   7.187  18.336  0.00  0.00    +0.000 C 
BRANCH  17  18
ATOM     18  C   UNL     1       3.863   6.104  17.836  0.00  0.00    +0.000 C 
BRANCH  18  19
ATOM     19  C   UNL     1       3.101   4.827  17.491  0.00  0.00    +0.000 C 
ATOM     20  C   UNL     1       3.922   3.564  17.739  0.00  0.00    +0.000 C 
ATOM     21  C   UNL     1       2.879   2.454  17.751  0.00  0.00    +0.000 C 
ATOM     22  C   UNL     1       1.595   3.096  18.272  0.00  0.00    +0.000 C 
ATOM     23  C   UNL     1       1.870   4.594  18.367  0.00  0.00    +0.000 C 
ENDBRANCH  18  19
ENDBRANCH  17  18
ENDBRANCH  13  16
ENDBRANCH   8  10
BRANCH   1  24
ATOM     24  S   UNL     1       1.321  16.228  21.450  0.00  0.00    +0.000 S 
ATOM     25  O   UNL     1       1.490  15.092  22.337  0.00  0.00    +0.000 OA
ATOM     26  O   UNL     1       1.768  17.541  21.848  0.00  0.00    +0.000 OA
BRANCH  24  33
ATOM     27  C   UNL     1       2.385  13.342  20.518  0.00  0.00    +0.000 C 
ATOM     28  C   UNL     1       2.559  14.468  19.562  0.00  0.00    +0.000 A 
ATOM     29  C   UNL     1       3.198  14.200  18.337  0.00  0.00    +0.000 A 
ATOM     30  C   UNL     1       3.617  15.225  17.490  0.00  0.00    +0.000 A 
ATOM     31  C   UNL     1       3.431  16.530  17.892  0.00  0.00    +0.000 A 
ATOM     32  C   UNL     1       2.733  16.827  19.083  0.00  0.00    +0.000 A 
ATOM     33  C   UNL     1       2.207  15.801  19.906  0.00  0.00    +0.000 A 
ENDBRANCH  24  33
ENDBRANCH   1  24
BRANCH   9  34
ATOM     34  C   UNL     1      -3.731  12.636  22.810  0.00  0.00    +0.000 C 
BRANCH  34  35
ATOM     35  O   UNL     1      -3.629  11.882  24.014  0.00  0.00    +0.000 OA
ATOM     36  H   UNL     1      -3.660  12.523  24.749  0.00  0.00    +0.000 HD
ENDBRANCH  34  35
ENDBRANCH   9  34
TORSDOF 8
ENDMDL
MODEL 6
REMARK VINA RESULT:      -7.2      3.336      5.668
REMARK  Name = 
REMARK  9 active torsions:
REMARK  status: ('A' for Active; 'I' for Inactive)
REMARK    1  A    between atoms: C_1  and  C_2
REMARK    2  A    between atoms: C_7  and  S_8
REMARK    3  A    between atoms: S_8  and  N_11
REMARK    4  A    between atoms: C_18  and  C_19
REMARK    5  A    between atoms: C_22  and  C_23
REMARK    6  A    between atoms: C_24  and  C_25
REMARK    7  A    between atoms: C_25  and  C_26
REMARK    8  A    between atoms: C_33  and  C_34
REMARK    9  A    between atoms: C_34  and  O_35
REMARK                            x       y       z     vdW  Elec       q    Type
REMARK                         _______ _______ _______ _____ _____    ______ ____
ROOT
ATOM      1  N   UNL     1      -6.724  14.445  22.520  0.00  0.00    +0.000 NA
ATOM      2  C   UNL     1      -6.538  15.629  23.454  0.00  0.00    +0.000 C 
ATOM      3  C   UNL     1      -5.185  15.792  24.156  0.00  0.00    +0.000 C 
ATOM      4  O   UNL     1      -4.903  16.799  24.839  0.00  0.00    +0.000 OA
ATOM      5  N   UNL     1      -4.334  14.721  24.071  0.00  0.00    +0.000 N 
ATOM      6  C   UNL     1      -4.458  13.582  23.169  0.00  0.00    +0.000 C 
ATOM      7  C   UNL     1      -5.951  13.239  23.073  0.00  0.00    +0.000 C 
ATOM      8  C   UNL     1      -3.146  12.980  23.872  0.00  0.00    +0.000 C 
ATOM      9  C   UNL     1      -2.891  14.528  24.348  0.00  0.00    +0.000 C 
ENDROOT
BRANCH   8  10
ATOM     10  C   UNL     1      -2.124  12.208  22.667  0.00  0.00    +0.000 A 
ATOM     11  C   UNL     1      -2.186  12.484  21.277  0.00  0.00    +0.000 A 
ATOM     12  C   UNL     1      -1.408  11.788  20.278  0.00  0.00    +0.000 A 
ATOM     13  C   UNL     1      -0.501  10.766  20.598  0.00  0.00    +0.000 A 
ATOM     14  C   UNL     1      -0.460  10.440  21.962  0.00  0.00    +0.000 A 
ATOM     15  C   UNL     1      -1.244  11.136  22.957  0.00  0.00    +0.000 A 
BRANCH  13  16
ATOM     16  C   UNL     1       0.372  10.107  19.580  0.00  0.00    +0.000 C 
ATOM     17  C   UNL     1       1.203   9.538  18.751  0.00  0.00    +0.000 C 
BRANCH  17  18
ATOM     18  C   UNL     1       2.172   8.876  17.786  0.00  0.00    +0.000 C 
BRANCH  18  19
ATOM     19  C   UNL     1       2.351   7.396  18.115  0.00  0.00    +0.000 C 
ATOM     20  C   UNL     1       3.711   6.854  17.681  0.00  0.00    +0.000 C 
ATOM     21  C   UNL     1       3.843   5.550  18.458  0.00  0.00    +0.000 C 
ATOM     22  C   UNL     1       3.062   5.758  19.754  0.00  0.00    +0.000 C 
ATOM     23  C   UNL     1       2.343   7.097  19.614  0.00  0.00    +0.000 C 
ENDBRANCH  18  19
ENDBRANCH  17  18
ENDBRANCH  13  16
ENDBRANCH   8  10
BRANCH   1  24
ATOM     24  S   UNL     1      -6.579  14.772  20.805  0.00  0.00    +0.000 S 
ATOM     25  O   UNL     1      -5.240  15.280  20.575  0.00  0.00    +0.000 OA
ATOM     26  O   UNL     1      -7.733  15.548  20.424  0.00  0.00    +0.000 OA
BRANCH  24  33
ATOM     27  C   UNL     1      -6.744  14.303  17.630  0.00  0.00    +0.000 C 
ATOM     28  C   UNL     1      -6.664  13.092  18.490  0.00  0.00    +0.000 A 
ATOM     29  C   UNL     1      -6.695  11.833  17.860  0.00  0.00    +0.000 A 
ATOM     30  C   UNL     1      -6.866  10.655  18.586  0.00  0.00    +0.000 A 
ATOM     31  C   UNL     1      -7.050  10.741  19.950  0.00  0.00    +0.000 A 
ATOM     32  C   UNL     1      -6.955  11.984  20.614  0.00  0.00    +0.000 A 
ATOM     33  C   UNL     1      -6.677  13.180  19.908  0.00  0.00    +0.000 A 
ENDBRANCH  24  33
ENDBRANCH   1  24
BRANCH   9  34
ATOM     34  C   UNL     1      -2.566  15.197  25.703  0.00  0.00    +0.000 C 
BRANCH  34  35
ATOM     35  O   UNL     1      -1.950  16.468  25.518  0.00  0.00    +0.000 OA
ATOM     36  H   UNL     1      -1.944  16.906  26.390  0.00  0.00    +0.000 HD
ENDBRANCH  34  35
ENDBRANCH   9  34
TORSDOF 8
ENDMDL
MODEL 7
REMARK VINA RESULT:      -7.2      1.680      2.384
REMARK  Name = 
REMARK  9 active torsions:
REMARK  status: ('A' for Active; 'I' for Inactive)
REMARK    1  A    between atoms: C_1  and  C_2
REMARK    2  A    between atoms: C_7  and  S_8
REMARK    3  A    between atoms: S_8  and  N_11
REMARK    4  A    between atoms: C_18  and  C_19
REMARK    5  A    between atoms: C_22  and  C_23
REMARK    6  A    between atoms: C_24  and  C_25
REMARK    7  A    between atoms: C_25  and  C_26
REMARK    8  A    between atoms: C_33  and  C_34
REMARK    9  A    between atoms: C_34  and  O_35
REMARK                            x       y       z     vdW  Elec       q    Type
REMARK                         _______ _______ _______ _____ _____    ______ ____
ROOT
ATOM      1  N   UNL     1       0.071  15.953  21.525  0.00  0.00    +0.000 NA
ATOM      2  C   UNL     1      -0.679  16.040  22.844  0.00  0.00    +0.000 C 
ATOM      3  C   UNL     1      -1.379  14.778  23.363  0.00  0.00    +0.000 C 
ATOM      4  O   UNL     1      -1.910  14.724  24.492  0.00  0.00    +0.000 OA
ATOM      5  N   UNL     1      -1.474  13.738  22.475  0.00  0.00    +0.000 N 
ATOM      6  C   UNL     1      -0.750  13.601  21.217  0.00  0.00    +0.000 C 
ATOM      7  C   UNL     1      -0.673  14.996  20.582  0.00  0.00    +0.000 C 
ATOM      8  C   UNL     1      -1.564  12.236  20.985  0.00  0.00    +0.000 C 
ATOM      9  C   UNL     1      -1.809  12.300  22.605  0.00  0.00    +0.000 C 
ENDROOT
BRANCH   8  10
ATOM     10  C   UNL     1      -0.511  11.028  20.262  0.00  0.00    +0.000 A 
ATOM     11  C   UNL     1       0.174  10.027  20.996  0.00  0.00    +0.000 A 
ATOM     12  C   UNL     1       1.106   9.090  20.414  0.00  0.00    +0.000 A 
ATOM     13  C   UNL     1       1.418   9.080  19.046  0.00  0.00    +0.000 A 
ATOM     14  C   UNL     1       0.792  10.095  18.306  0.00  0.00    +0.000 A 
ATOM     15  C   UNL     1      -0.137  11.033  18.895  0.00  0.00    +0.000 A 
BRANCH  13  16
ATOM     16  C   UNL     1       2.310   8.056  18.424  0.00  0.00    +0.000 C 
ATOM     17  C   UNL     1       3.067   7.105  17.950  0.00  0.00    +0.000 C 
BRANCH  17  18
ATOM     18  C   UNL     1       3.949   5.997  17.398  0.00  0.00    +0.000 C 
BRANCH  18  19
ATOM     19  C   UNL     1       5.353   6.063  17.993  0.00  0.00    +0.000 C 
ATOM     20  C   UNL     1       6.115   4.747  17.859  0.00  0.00    +0.000 C 
ATOM     21  C   UNL     1       7.565   5.143  18.104  0.00  0.00    +0.000 C 
ATOM     22  C   UNL     1       7.690   6.584  17.614  0.00  0.00    +0.000 C 
ATOM     23  C   UNL     1       6.276   7.049  17.275  0.00  0.00    +0.000 C 
ENDBRANCH  18  19
ENDBRANCH  17  18
ENDBRANCH  13  16
ENDBRANCH   8  10
BRANCH   1  24
ATOM     24  S   UNL     1       1.812  15.785  21.627  0.00  0.00    +0.000 S 
ATOM     25  O   UNL     1       2.087  14.497  22.237  0.00  0.00    +0.000 OA
ATOM     26  O   UNL     1       2.320  16.999  22.218  0.00  0.00    +0.000 OA
BRANCH  24  33
ATOM     27  C   UNL     1       1.489  17.935  19.259  0.00  0.00    +0.000 C 
ATOM     28  C   UNL     1       2.340  16.746  18.983  0.00  0.00    +0.000 A 
ATOM     29  C   UNL     1       2.917  16.632  17.704  0.00  0.00    +0.000 A 
ATOM     30  C   UNL     1       3.524  15.452  17.278  0.00  0.00    +0.000 A 
ATOM     31  C   UNL     1       3.517  14.364  18.124  0.00  0.00    +0.000 A 
ATOM     32  C   UNL     1       3.005  14.472  19.436  0.00  0.00    +0.000 A 
ATOM     33  C   UNL     1       2.479  15.692  19.925  0.00  0.00    +0.000 A 
ENDBRANCH  24  33
ENDBRANCH   1  24
BRANCH   9  34
ATOM     34  C   UNL     1      -3.056  12.175  23.511  0.00  0.00    +0.000 C 
BRANCH  34  35
ATOM     35  O   UNL     1      -4.258  12.267  22.752  0.00  0.00    +0.000 OA
ATOM     36  H   UNL     1      -4.994  12.273  23.393  0.00  0.00    +0.000 HD
ENDBRANCH  34  35
ENDBRANCH   9  34
TORSDOF 8
ENDMDL
MODEL 8
REMARK VINA RESULT:      -7.2      3.018      5.712
REMARK  Name = 
REMARK  9 active torsions:
REMARK  status: ('A' for Active; 'I' for Inactive)
REMARK    1  A    between atoms: C_1  and  C_2
REMARK    2  A    between atoms: C_7  and  S_8
REMARK    3  A    between atoms: S_8  and  N_11
REMARK    4  A    between atoms: C_18  and  C_19
REMARK    5  A    between atoms: C_22  and  C_23
REMARK    6  A    between atoms: C_24  and  C_25
REMARK    7  A    between atoms: C_25  and  C_26
REMARK    8  A    between atoms: C_33  and  C_34
REMARK    9  A    between atoms: C_34  and  O_35
REMARK                            x       y       z     vdW  Elec       q    Type
REMARK                         _______ _______ _______ _____ _____    ______ ____
ROOT
ATOM      1  N   UNL     1      -4.999  14.025  21.511  0.00  0.00    +0.000 NA
ATOM      2  C   UNL     1      -4.510  15.464  21.512  0.00  0.00    +0.000 C 
ATOM      3  C   UNL     1      -3.032  15.726  21.822  0.00  0.00    +0.000 C 
ATOM      4  O   UNL     1      -2.519  16.861  21.722  0.00  0.00    +0.000 OA
ATOM      5  N   UNL     1      -2.323  14.659  22.309  0.00  0.00    +0.000 N 
ATOM      6  C   UNL     1      -2.740  13.262  22.299  0.00  0.00    +0.000 C 
ATOM      7  C   UNL     1      -4.247  13.235  22.592  0.00  0.00    +0.000 C 
ATOM      8  C   UNL     1      -1.375  12.928  23.075  0.00  0.00    +0.000 C 
ATOM      9  C   UNL     1      -0.880  14.376  22.489  0.00  0.00    +0.000 C 
ENDROOT
BRANCH   8  10
ATOM     10  C   UNL     1      -0.704  11.415  22.479  0.00  0.00    +0.000 A 
ATOM     11  C   UNL     1      -0.762  10.187  23.185  0.00  0.00    +0.000 A 
ATOM     12  C   UNL     1      -0.136   8.965  22.737  0.00  0.00    +0.000 A 
ATOM     13  C   UNL     1       0.592   8.880  21.540  0.00  0.00    +0.000 A 
ATOM     14  C   UNL     1       0.706  10.096  20.848  0.00  0.00    +0.000 A 
ATOM     15  C   UNL     1       0.082  11.317  21.305  0.00  0.00    +0.000 A 
BRANCH  13  16
ATOM     16  C   UNL     1       1.163   7.598  21.027  0.00  0.00    +0.000 C 
ATOM     17  C   UNL     1       1.741   6.501  20.623  0.00  0.00    +0.000 C 
BRANCH  17  18
ATOM     18  C   UNL     1       2.414   5.222  20.151  0.00  0.00    +0.000 C 
BRANCH  18  19
ATOM     19  C   UNL     1       3.178   5.449  18.849  0.00  0.00    +0.000 C 
ATOM     20  C   UNL     1       3.008   6.865  18.303  0.00  0.00    +0.000 C 
ATOM     21  C   UNL     1       4.143   7.002  17.297  0.00  0.00    +0.000 C 
ATOM     22  C   UNL     1       5.269   6.112  17.819  0.00  0.00    +0.000 C 
ATOM     23  C   UNL     1       4.695   5.339  19.002  0.00  0.00    +0.000 C 
ENDBRANCH  18  19
ENDBRANCH  17  18
ENDBRANCH  13  16
ENDBRANCH   8  10
BRANCH   1  24
ATOM     24  S   UNL     1      -5.181  13.264  19.944  0.00  0.00    +0.000 S 
ATOM     25  O   UNL     1      -3.868  12.803  19.532  0.00  0.00    +0.000 OA
ATOM     26  O   UNL     1      -5.930  14.176  19.115  0.00  0.00    +0.000 OA
BRANCH  24  33
ATOM     27  C   UNL     1      -5.667  10.897  17.824  0.00  0.00    +0.000 C 
ATOM     28  C   UNL     1      -6.279  10.736  19.170  0.00  0.00    +0.000 A 
ATOM     29  C   UNL     1      -7.047   9.581  19.411  0.00  0.00    +0.000 A 
ATOM     30  C   UNL     1      -7.848   9.459  20.546  0.00  0.00    +0.000 A 
ATOM     31  C   UNL     1      -7.913  10.518  21.425  0.00  0.00    +0.000 A 
ATOM     32  C   UNL     1      -7.102  11.659  21.242  0.00  0.00    +0.000 A 
ATOM     33  C   UNL     1      -6.203  11.760  20.153  0.00  0.00    +0.000 A 
ENDBRANCH  24  33
ENDBRANCH   1  24
BRANCH   9  34
ATOM     34  C   UNL     1      -0.218  15.623  23.119  0.00  0.00    +0.000 C 
BRANCH  34  35
ATOM     35  O   UNL     1      -0.405  15.651  24.530  0.00  0.00    +0.000 OA
ATOM     36  H   UNL     1      -1.286  16.038  24.688  0.00  0.00    +0.000 HD
ENDBRANCH  34  35
ENDBRANCH   9  34
TORSDOF 8
ENDMDL
MODEL 9
REMARK VINA RESULT:      -7.2      6.448     11.202
REMARK  Name = 
REMARK  9 active torsions:
REMARK  status: ('A' for Active; 'I' for Inactive)
REMARK    1  A    between atoms: C_1  and  C_2
REMARK    2  A    between atoms: C_7  and  S_8
REMARK    3  A    between atoms: S_8  and  N_11
REMARK    4  A    between atoms: C_18  and  C_19
REMARK    5  A    between atoms: C_22  and  C_23
REMARK    6  A    between atoms: C_24  and  C_25
REMARK    7  A    between atoms: C_25  and  C_26
REMARK    8  A    between atoms: C_33  and  C_34
REMARK    9  A    between atoms: C_34  and  O_35
REMARK                            x       y       z     vdW  Elec       q    Type
REMARK                         _______ _______ _______ _____ _____    ______ ____
ROOT
ATOM      1  N   UNL     1       5.999   4.654  17.322  0.00  0.00    +0.000 NA
ATOM      2  C   UNL     1       5.325   3.320  17.051  0.00  0.00    +0.000 C 
ATOM      3  C   UNL     1       3.859   3.152  17.468  0.00  0.00    +0.000 C 
ATOM      4  O   UNL     1       3.192   2.138  17.172  0.00  0.00    +0.000 OA
ATOM      5  N   UNL     1       3.347   4.138  18.270  0.00  0.00    +0.000 N 
ATOM      6  C   UNL     1       3.945   5.443  18.531  0.00  0.00    +0.000 C 
ATOM      7  C   UNL     1       5.461   5.234  18.639  0.00  0.00    +0.000 C 
ATOM      8  C   UNL     1       2.713   5.723  19.522  0.00  0.00    +0.000 C 
ATOM      9  C   UNL     1       1.977   4.523  18.682  0.00  0.00    +0.000 C 
ENDROOT
BRANCH   8  10
ATOM     10  C   UNL     1       2.199   7.398  19.376  0.00  0.00    +0.000 A 
ATOM     11  C   UNL     1       1.552   8.124  20.408  0.00  0.00    +0.000 A 
ATOM     12  C   UNL     1       1.052   9.471  20.259  0.00  0.00    +0.000 A 
ATOM     13  C   UNL     1       1.169  10.197  19.064  0.00  0.00    +0.000 A 
ATOM     14  C   UNL     1       1.760   9.481  18.012  0.00  0.00    +0.000 A 
ATOM     15  C   UNL     1       2.254   8.131  18.165  0.00  0.00    +0.000 A 
BRANCH  13  16
ATOM     16  C   UNL     1       0.735  11.621  18.933  0.00  0.00    +0.000 C 
ATOM     17  C   UNL     1       0.270  12.834  18.816  0.00  0.00    +0.000 C 
BRANCH  17  18
ATOM     18  C   UNL     1      -0.273  14.247  18.679  0.00  0.00    +0.000 C 
BRANCH  18  19
ATOM     19  C   UNL     1       0.776  15.281  19.081  0.00  0.00    +0.000 C 
ATOM     20  C   UNL     1       2.154  14.986  18.492  0.00  0.00    +0.000 C 
ATOM     21  C   UNL     1       2.901  16.304  18.647  0.00  0.00    +0.000 C 
ATOM     22  C   UNL     1       1.837  17.397  18.561  0.00  0.00    +0.000 C 
ATOM     23  C   UNL     1       0.488  16.685  18.550  0.00  0.00    +0.000 C 
ENDBRANCH  18  19
ENDBRANCH  17  18
ENDBRANCH  13  16
ENDBRANCH   8  10
BRANCH   1  24
ATOM     24  S   UNL     1       6.137   5.750  15.963  0.00  0.00    +0.000 S 
ATOM     25  O   UNL     1       7.454   6.357  16.029  0.00  0.00    +0.000 OA
ATOM     26  O   UNL     1       4.951   6.571  15.959  0.00  0.00    +0.000 OA
BRANCH  24  33
ATOM     27  C   UNL     1       8.326   5.704  13.609  0.00  0.00    +0.000 C 
ATOM     28  C   UNL     1       7.183   4.761  13.488  0.00  0.00    +0.000 A 
ATOM     29  C   UNL     1       7.124   3.940  12.346  0.00  0.00    +0.000 A 
ATOM     30  C   UNL     1       5.981   3.206  12.031  0.00  0.00    +0.000 A 
ATOM     31  C   UNL     1       4.874   3.328  12.842  0.00  0.00    +0.000 A 
ATOM     32  C   UNL     1       4.929   4.090  14.029  0.00  0.00    +0.000 A 
ATOM     33  C   UNL     1       6.113   4.759  14.424  0.00  0.00    +0.000 A 
ENDBRANCH  24  33
ENDBRANCH   1  24
BRANCH   9  34
ATOM     34  C   UNL     1       1.214   3.240  19.083  0.00  0.00    +0.000 C 
BRANCH  34  35
ATOM     35  O   UNL     1       0.489   3.426  20.295  0.00  0.00    +0.000 OA
ATOM     36  H   UNL     1       0.518   4.380  20.495  0.00  0.00    +0.000 HD
ENDBRANCH  34  35
ENDBRANCH   9  34
TORSDOF 8
ENDMDL
