MODEL 1
REMARK VINA RESULT:      -8.5      0.000      0.000
REMARK  Name = 
REMARK  10 active torsions:
REMARK  status: ('A' for Active; 'I' for Inactive)
REMARK    1  A    between atoms: C_1  and  C_2
REMARK    2  A    between atoms: C_2  and  C_3
REMARK    3  A    between atoms: C_10  and  S_11
REMARK    4  A    between atoms: S_11  and  N_14
REMARK    5  A    between atoms: N_14  and  C_15
REMARK    6  A    between atoms: C_15  and  C_16
REMARK    7  A    between atoms: C_16  and  C_17
REMARK    8  A    between atoms: N_19  and  C_20
REMARK    9  A    between atoms: C_20  and  C_21
REMARK   10  A    between atoms: C_20  and  C_22
REMARK                            x       y       z     vdW  Elec       q    Type
REMARK                         _______ _______ _______ _____ _____    ______ ____
ROOT
ATOM      1  S   UNL     1       2.389   3.628  20.308  0.00  0.00    +0.000 S 
ATOM      2  O   UNL     1       1.104   3.423  19.674  0.00  0.00    +0.000 OA
ATOM      3  O   UNL     1       2.985   2.641  21.177  0.00  0.00    +0.000 OA
ENDROOT
BRANCH   1  11
ATOM      4  C   UNL     1       6.702   4.929  14.843  0.00  0.00    +0.000 C 
ATOM      5  O   UNL     1       7.726   5.413  14.348  0.00  0.00    +0.000 OA
ATOM      6  N   UNL     1       6.437   5.072  16.192  0.00  0.00    +0.000 N 
ATOM      7  C   UNL     1       7.324   5.924  17.001  0.00  0.00    +0.000 C 
ATOM      8  C   UNL     1       6.864   5.831  18.455  0.00  0.00    +0.000 C 
ATOM      9  C   UNL     1       5.581   5.076  18.321  0.00  0.00    +0.000 A 
ATOM     10  C   UNL     1       4.689   4.784  19.345  0.00  0.00    +0.000 A 
ATOM     11  C   UNL     1       3.575   4.001  19.035  0.00  0.00    +0.000 A 
ATOM     12  C   UNL     1       3.375   3.515  17.736  0.00  0.00    +0.000 A 
ATOM     13  C   UNL     1       4.290   3.818  16.720  0.00  0.00    +0.000 A 
ATOM     14  C   UNL     1       5.388   4.613  17.012  0.00  0.00    +0.000 A 
BRANCH   4  16
ATOM     15  C   UNL     1       6.324   3.644  12.695  0.00  0.00    +0.000 C 
ATOM     16  C   UNL     1       5.707   4.189  13.973  0.00  0.00    +0.000 C 
ENDBRANCH   4  16
ENDBRANCH   1  11
BRANCH   1  17
ATOM     17  N   UNL     1       2.298   5.075  21.174  0.00  0.00    +0.000 NA
ATOM     18  H   UNL     1       3.175   5.239  21.681  0.00  0.00    +0.000 HD
BRANCH  17  19
ATOM     19  C   UNL     1       1.779   6.262  20.464  0.00  0.00    +0.000 C 
BRANCH  19  20
ATOM     20  C   UNL     1       0.998   7.170  21.413  0.00  0.00    +0.000 C 
BRANCH  20  21
ATOM     21  C   UNL     1       1.062   8.617  20.966  0.00  0.00    +0.000 C 
ATOM     22  O   UNL     1       1.079   9.557  21.764  0.00  0.00    +0.000 OA
ATOM     23  N   UNL     1       1.090   8.795  19.602  0.00  0.00    +0.000 N 
ATOM     24  H   UNL     1       0.947   8.001  18.992  0.00  0.00    +0.000 HD
BRANCH  23  25
ATOM     25  C   UNL     1       1.096  10.125  19.006  0.00  0.00    +0.000 C 
ATOM     26  C   UNL     1       2.019  10.157  17.788  0.00  0.00    +0.000 C 
BRANCH  25  27
ATOM     27  C   UNL     1      -0.326  10.576  18.722  0.00  0.00    +0.000 A 
ATOM     28  C   UNL     1      -1.026  10.001  17.646  0.00  0.00    +0.000 A 
ATOM     29  C   UNL     1      -2.346  10.365  17.373  0.00  0.00    +0.000 A 
ATOM     30  C   UNL     1      -2.983  11.318  18.163  0.00  0.00    +0.000 A 
ATOM     31  C   UNL     1      -2.298  11.913  19.219  0.00  0.00    +0.000 A 
ATOM     32  C   UNL     1      -0.977  11.552  19.492  0.00  0.00    +0.000 A 
ENDBRANCH  25  27
ENDBRANCH  23  25
ENDBRANCH  20  21
ENDBRANCH  19  20
ENDBRANCH  17  19
ENDBRANCH   1  17
TORSDOF 8
ENDMDL
MODEL 2
REMARK VINA RESULT:      -8.5      0.492      1.001
REMARK  Name = 
REMARK  10 active torsions:
REMARK  status: ('A' for Active; 'I' for Inactive)
REMARK    1  A    between atoms: C_1  and  C_2
REMARK    2  A    between atoms: C_2  and  C_3
REMARK    3  A    between atoms: C_10  and  S_11
REMARK    4  A    between atoms: S_11  and  N_14
REMARK    5  A    between atoms: N_14  and  C_15
REMARK    6  A    between atoms: C_15  and  C_16
REMARK    7  A    between atoms: C_16  and  C_17
REMARK    8  A    between atoms: N_19  and  C_20
REMARK    9  A    between atoms: C_20  and  C_21
REMARK   10  A    between atoms: C_20  and  C_22
REMARK                            x       y       z     vdW  Elec       q    Type
REMARK                         _______ _______ _______ _____ _____    ______ ____
ROOT
ATOM      1  S   UNL     1       2.312   4.249  20.268  0.00  0.00    +0.000 S 
ATOM      2  O   UNL     1       1.020   4.145  19.626  0.00  0.00    +0.000 OA
ATOM      3  O   UNL     1       2.806   3.237  21.173  0.00  0.00    +0.000 OA
ENDROOT
BRANCH   1  11
ATOM      4  C   UNL     1       6.812   4.876  14.834  0.00  0.00    +0.000 C 
ATOM      5  O   UNL     1       7.838   5.320  14.310  0.00  0.00    +0.000 OA
ATOM      6  N   UNL     1       6.484   5.212  16.135  0.00  0.00    +0.000 N 
ATOM      7  C   UNL     1       7.306   6.211  16.837  0.00  0.00    +0.000 C 
ATOM      8  C   UNL     1       6.788   6.321  18.269  0.00  0.00    +0.000 C 
ATOM      9  C   UNL     1       5.537   5.504  18.205  0.00  0.00    +0.000 A 
ATOM     10  C   UNL     1       4.612   5.335  19.228  0.00  0.00    +0.000 A 
ATOM     11  C   UNL     1       3.539   4.471  18.999  0.00  0.00    +0.000 A 
ATOM     12  C   UNL     1       3.411   3.786  17.783  0.00  0.00    +0.000 A 
ATOM     13  C   UNL     1       4.359   3.968  16.768  0.00  0.00    +0.000 A 
ATOM     14  C   UNL     1       5.416   4.840  16.975  0.00  0.00    +0.000 A 
BRANCH   4  16
ATOM     15  C   UNL     1       6.371   3.693  12.640  0.00  0.00    +0.000 C 
ATOM     16  C   UNL     1       5.880   3.974  14.052  0.00  0.00    +0.000 C 
ENDBRANCH   4  16
ENDBRANCH   1  11
BRANCH   1  17
ATOM     17  N   UNL     1       2.349   5.723  21.090  0.00  0.00    +0.000 NA
ATOM     18  H   UNL     1       3.319   5.984  21.304  0.00  0.00    +0.000 HD
BRANCH  17  19
ATOM     19  C   UNL     1       1.531   6.826  20.548  0.00  0.00    +0.000 C 
BRANCH  19  20
ATOM     20  C   UNL     1       1.163   7.826  21.643  0.00  0.00    +0.000 C 
BRANCH  20  21
ATOM     21  C   UNL     1       0.949   9.214  21.071  0.00  0.00    +0.000 C 
ATOM     22  O   UNL     1       0.647  10.180  21.774  0.00  0.00    +0.000 OA
ATOM     23  N   UNL     1       1.112   9.303  19.708  0.00  0.00    +0.000 N 
ATOM     24  H   UNL     1       1.236   8.461  19.163  0.00  0.00    +0.000 HD
BRANCH  23  25
ATOM     25  C   UNL     1       0.890  10.554  18.994  0.00  0.00    +0.000 C 
ATOM     26  C   UNL     1       1.901  10.704  17.858  0.00  0.00    +0.000 C 
BRANCH  25  27
ATOM     27  C   UNL     1      -0.560  10.654  18.554  0.00  0.00    +0.000 A 
ATOM     28  C   UNL     1      -1.399  11.602  19.167  0.00  0.00    +0.000 A 
ATOM     29  C   UNL     1      -2.730  11.747  18.768  0.00  0.00    +0.000 A 
ATOM     30  C   UNL     1      -3.246  10.938  17.759  0.00  0.00    +0.000 A 
ATOM     31  C   UNL     1      -2.435   9.980  17.156  0.00  0.00    +0.000 A 
ATOM     32  C   UNL     1      -1.105   9.832  17.556  0.00  0.00    +0.000 A 
ENDBRANCH  25  27
ENDBRANCH  23  25
ENDBRANCH  20  21
ENDBRANCH  19  20
ENDBRANCH  17  19
ENDBRANCH   1  17
TORSDOF 8
ENDMDL
MODEL 3
REMARK VINA RESULT:      -8.4      1.033      1.493
REMARK  Name = 
REMARK  10 active torsions:
REMARK  status: ('A' for Active; 'I' for Inactive)
REMARK    1  A    between atoms: C_1  and  C_2
REMARK    2  A    between atoms: C_2  and  C_3
REMARK    3  A    between atoms: C_10  and  S_11
REMARK    4  A    between atoms: S_11  and  N_14
REMARK    5  A    between atoms: N_14  and  C_15
REMARK    6  A    between atoms: C_15  and  C_16
REMARK    7  A    between atoms: C_16  and  C_17
REMARK    8  A    between atoms: N_19  and  C_20
REMARK    9  A    between atoms: C_20  and  C_21
REMARK   10  A    between atoms: C_20  and  C_22
REMARK                            x       y       z     vdW  Elec       q    Type
REMARK                         _______ _______ _______ _____ _____    ______ ____
ROOT
ATOM      1  S   UNL     1       2.315   4.249  20.507  0.00  0.00    +0.000 S 
ATOM      2  O   UNL     1       1.053   3.898  19.892  0.00  0.00    +0.000 OA
ATOM      3  O   UNL     1       2.932   3.427  21.522  0.00  0.00    +0.000 OA
ENDROOT
BRANCH   1  11
ATOM      4  C   UNL     1       6.644   5.028  14.956  0.00  0.00    +0.000 C 
ATOM      5  O   UNL     1       7.705   5.394  14.438  0.00  0.00    +0.000 OA
ATOM      6  N   UNL     1       6.420   5.211  16.308  0.00  0.00    +0.000 N 
ATOM      7  C   UNL     1       7.409   5.969  17.093  0.00  0.00    +0.000 C 
ATOM      8  C   UNL     1       6.968   5.938  18.554  0.00  0.00    +0.000 C 
ATOM      9  C   UNL     1       5.609   5.325  18.451  0.00  0.00    +0.000 A 
ATOM     10  C   UNL     1       4.709   5.140  19.493  0.00  0.00    +0.000 A 
ATOM     11  C   UNL     1       3.511   4.480  19.211  0.00  0.00    +0.000 A 
ATOM     12  C   UNL     1       3.236   4.007  17.920  0.00  0.00    +0.000 A 
ATOM     13  C   UNL     1       4.160   4.200  16.885  0.00  0.00    +0.000 A 
ATOM     14  C   UNL     1       5.343   4.874  17.150  0.00  0.00    +0.000 A 
BRANCH   4  16
ATOM     15  C   UNL     1       6.107   3.467  13.036  0.00  0.00    +0.000 C 
ATOM     16  C   UNL     1       5.559   4.392  14.111  0.00  0.00    +0.000 C 
ENDBRANCH   4  16
ENDBRANCH   1  11
BRANCH   1  17
ATOM     17  N   UNL     1       2.149   5.802  21.148  0.00  0.00    +0.000 NA
ATOM     18  H   UNL     1       3.073   6.228  21.284  0.00  0.00    +0.000 HD
BRANCH  17  19
ATOM     19  C   UNL     1       1.157   6.696  20.517  0.00  0.00    +0.000 C 
BRANCH  19  20
ATOM     20  C   UNL     1       1.606   8.155  20.595  0.00  0.00    +0.000 C 
BRANCH  20  21
ATOM     21  C   UNL     1       0.433   9.078  20.858  0.00  0.00    +0.000 C 
ATOM     22  O   UNL     1      -0.287   8.967  21.852  0.00  0.00    +0.000 OA
ATOM     23  N   UNL     1       0.234  10.040  19.895  0.00  0.00    +0.000 N 
ATOM     24  H   UNL     1       0.771  10.009  19.039  0.00  0.00    +0.000 HD
BRANCH  23  25
ATOM     25  C   UNL     1      -0.884  10.973  19.969  0.00  0.00    +0.000 C 
ATOM     26  C   UNL     1      -0.377  12.388  20.247  0.00  0.00    +0.000 C 
BRANCH  25  27
ATOM     27  C   UNL     1      -1.746  10.854  18.724  0.00  0.00    +0.000 A 
ATOM     28  C   UNL     1      -2.907  11.640  18.616  0.00  0.00    +0.000 A 
ATOM     29  C   UNL     1      -3.708  11.584  17.473  0.00  0.00    +0.000 A 
ATOM     30  C   UNL     1      -3.367  10.732  16.426  0.00  0.00    +0.000 A 
ATOM     31  C   UNL     1      -2.232   9.932  16.525  0.00  0.00    +0.000 A 
ATOM     32  C   UNL     1      -1.432   9.985  17.668  0.00  0.00    +0.000 A 
ENDBRANCH  25  27
ENDBRANCH  23  25
ENDBRANCH  20  21
ENDBRANCH  19  20
ENDBRANCH  17  19
ENDBRANCH   1  17
TORSDOF 8
ENDMDL
MODEL 4
REMARK VINA RESULT:      -8.1      1.430      2.110
REMARK  Name = 
REMARK  10 active torsions:
REMARK  status: ('A' for Active; 'I' for Inactive)
REMARK    1  A    between atoms: C_1  and  C_2
REMARK    2  A    between atoms: C_2  and  C_3
REMARK    3  A    between atoms: C_10  and  S_11
REMARK    4  A    between atoms: S_11  and  N_14
REMARK    5  A    between atoms: N_14  and  C_15
REMARK    6  A    between atoms: C_15  and  C_16
REMARK    7  A    between atoms: C_16  and  C_17
REMARK    8  A    between atoms: N_19  and  C_20
REMARK    9  A    between atoms: C_20  and  C_21
REMARK   10  A    between atoms: C_20  and  C_22
REMARK                            x       y       z     vdW  Elec       q    Type
REMARK                         _______ _______ _______ _____ _____    ______ ____
ROOT
ATOM      1  S   UNL     1       2.388   3.902  20.277  0.00  0.00    +0.000 S 
ATOM      2  O   UNL     1       1.117   3.631  19.641  0.00  0.00    +0.000 OA
ATOM      3  O   UNL     1       2.988   2.987  21.221  0.00  0.00    +0.000 OA
ENDROOT
BRANCH   1  11
ATOM      4  C   UNL     1       6.767   4.902  14.801  0.00  0.00    +0.000 C 
ATOM      5  O   UNL     1       7.786   5.375  14.288  0.00  0.00    +0.000 OA
ATOM      6  N   UNL     1       6.473   5.140  16.131  0.00  0.00    +0.000 N 
ATOM      7  C   UNL     1       7.322   6.076  16.887  0.00  0.00    +0.000 C 
ATOM      8  C   UNL     1       6.838   6.081  18.335  0.00  0.00    +0.000 C 
ATOM      9  C   UNL     1       5.578   5.283  18.238  0.00  0.00    +0.000 A 
ATOM     10  C   UNL     1       4.675   5.045  19.267  0.00  0.00    +0.000 A 
ATOM     11  C   UNL     1       3.588   4.210  19.000  0.00  0.00    +0.000 A 
ATOM     12  C   UNL     1       3.425   3.621  17.739  0.00  0.00    +0.000 A 
ATOM     13  C   UNL     1       4.350   3.870  16.718  0.00  0.00    +0.000 A 
ATOM     14  C   UNL     1       5.422   4.716  16.966  0.00  0.00    +0.000 A 
BRANCH   4  16
ATOM     15  C   UNL     1       6.378   3.674  12.621  0.00  0.00    +0.000 C 
ATOM     16  C   UNL     1       5.808   4.070  13.975  0.00  0.00    +0.000 C 
ENDBRANCH   4  16
ENDBRANCH   1  11
BRANCH   1  17
ATOM     17  N   UNL     1       2.259   5.402  21.042  0.00  0.00    +0.000 NA
ATOM     18  H   UNL     1       3.190   5.748  21.302  0.00  0.00    +0.000 HD
BRANCH  17  19
ATOM     19  C   UNL     1       1.393   6.417  20.408  0.00  0.00    +0.000 C 
BRANCH  19  20
ATOM     20  C   UNL     1       1.590   7.788  21.055  0.00  0.00    +0.000 C 
BRANCH  20  21
ATOM     21  C   UNL     1       1.117   8.900  20.141  0.00  0.00    +0.000 C 
ATOM     22  O   UNL     1       1.686   9.175  19.083  0.00  0.00    +0.000 OA
ATOM     23  N   UNL     1       0.011   9.581  20.593  0.00  0.00    +0.000 N 
ATOM     24  H   UNL     1      -0.341   9.402  21.524  0.00  0.00    +0.000 HD
BRANCH  23  25
ATOM     25  C   UNL     1      -0.539  10.716  19.861  0.00  0.00    +0.000 C 
ATOM     26  C   UNL     1      -1.435  10.229  18.722  0.00  0.00    +0.000 C 
BRANCH  25  27
ATOM     27  C   UNL     1      -1.219  11.677  20.820  0.00  0.00    +0.000 A 
ATOM     28  C   UNL     1      -0.756  11.765  22.145  0.00  0.00    +0.000 A 
ATOM     29  C   UNL     1      -1.333  12.660  23.049  0.00  0.00    +0.000 A 
ATOM     30  C   UNL     1      -2.389  13.472  22.646  0.00  0.00    +0.000 A 
ATOM     31  C   UNL     1      -2.874  13.382  21.343  0.00  0.00    +0.000 A 
ATOM     32  C   UNL     1      -2.300  12.486  20.439  0.00  0.00    +0.000 A 
ENDBRANCH  25  27
ENDBRANCH  23  25
ENDBRANCH  20  21
ENDBRANCH  19  20
ENDBRANCH  17  19
ENDBRANCH   1  17
TORSDOF 8
ENDMDL
MODEL 5
REMARK VINA RESULT:      -8.1      1.668      2.329
REMARK  Name = 
REMARK  10 active torsions:
REMARK  status: ('A' for Active; 'I' for Inactive)
REMARK    1  A    between atoms: C_1  and  C_2
REMARK    2  A    between atoms: C_2  and  C_3
REMARK    3  A    between atoms: C_10  and  S_11
REMARK    4  A    between atoms: S_11  and  N_14
REMARK    5  A    between atoms: N_14  and  C_15
REMARK    6  A    between atoms: C_15  and  C_16
REMARK    7  A    between atoms: C_16  and  C_17
REMARK    8  A    between atoms: N_19  and  C_20
REMARK    9  A    between atoms: C_20  and  C_21
REMARK   10  A    between atoms: C_20  and  C_22
REMARK                            x       y       z     vdW  Elec       q    Type
REMARK                         _______ _______ _______ _____ _____    ______ ____
ROOT
ATOM      1  S   UNL     1       1.773   4.691  20.369  0.00  0.00    +0.000 S 
ATOM      2  O   UNL     1       0.742   3.815  19.856  0.00  0.00    +0.000 OA
ATOM      3  O   UNL     1       2.343   4.522  21.685  0.00  0.00    +0.000 OA
ENDROOT
BRANCH   1  11
ATOM      4  C   UNL     1       6.716   4.667  15.297  0.00  0.00    +0.000 C 
ATOM      5  O   UNL     1       7.875   4.823  14.898  0.00  0.00    +0.000 OA
ATOM      6  N   UNL     1       6.395   4.874  16.625  0.00  0.00    +0.000 N 
ATOM      7  C   UNL     1       7.427   5.413  17.527  0.00  0.00    +0.000 C 
ATOM      8  C   UNL     1       6.841   5.452  18.937  0.00  0.00    +0.000 C 
ATOM      9  C   UNL     1       5.406   5.121  18.681  0.00  0.00    +0.000 A 
ATOM     10  C   UNL     1       4.386   5.105  19.624  0.00  0.00    +0.000 A 
ATOM     11  C   UNL     1       3.118   4.698  19.204  0.00  0.00    +0.000 A 
ATOM     12  C   UNL     1       2.889   4.304  17.879  0.00  0.00    +0.000 A 
ATOM     13  C   UNL     1       3.934   4.323  16.946  0.00  0.00    +0.000 A 
ATOM     14  C   UNL     1       5.192   4.747  17.347  0.00  0.00    +0.000 A 
BRANCH   4  16
ATOM     15  C   UNL     1       6.155   3.658  13.044  0.00  0.00    +0.000 C 
ATOM     16  C   UNL     1       5.620   4.268  14.330  0.00  0.00    +0.000 C 
ENDBRANCH   4  16
ENDBRANCH   1  11
BRANCH   1  17
ATOM     17  N   UNL     1       1.185   6.271  20.273  0.00  0.00    +0.000 NA
ATOM     18  H   UNL     1       0.481   6.431  21.003  0.00  0.00    +0.000 HD
BRANCH  17  19
ATOM     19  C   UNL     1       2.174   7.359  20.137  0.00  0.00    +0.000 C 
BRANCH  19  20
ATOM     20  C   UNL     1       2.238   7.867  18.697  0.00  0.00    +0.000 C 
BRANCH  20  21
ATOM     21  C   UNL     1       1.563   9.216  18.560  0.00  0.00    +0.000 C 
ATOM     22  O   UNL     1       2.094  10.167  17.981  0.00  0.00    +0.000 OA
ATOM     23  N   UNL     1       0.318   9.296  19.139  0.00  0.00    +0.000 N 
ATOM     24  H   UNL     1      -0.018   8.531  19.709  0.00  0.00    +0.000 HD
BRANCH  23  25
ATOM     25  C   UNL     1      -0.443  10.539  19.144  0.00  0.00    +0.000 C 
ATOM     26  C   UNL     1      -1.645  10.430  18.207  0.00  0.00    +0.000 C 
BRANCH  25  27
ATOM     27  C   UNL     1      -0.798  10.928  20.569  0.00  0.00    +0.000 A 
ATOM     28  C   UNL     1      -1.537  12.103  20.796  0.00  0.00    +0.000 A 
ATOM     29  C   UNL     1      -1.911  12.477  22.088  0.00  0.00    +0.000 A 
ATOM     30  C   UNL     1      -1.542  11.690  23.175  0.00  0.00    +0.000 A 
ATOM     31  C   UNL     1      -0.792  10.534  22.970  0.00  0.00    +0.000 A 
ATOM     32  C   UNL     1      -0.415  10.160  21.679  0.00  0.00    +0.000 A 
ENDBRANCH  25  27
ENDBRANCH  23  25
ENDBRANCH  20  21
ENDBRANCH  19  20
ENDBRANCH  17  19
ENDBRANCH   1  17
TORSDOF 8
ENDMDL
MODEL 6
REMARK VINA RESULT:      -7.9      2.242      8.759
REMARK  Name = 
REMARK  10 active torsions:
REMARK  status: ('A' for Active; 'I' for Inactive)
REMARK    1  A    between atoms: C_1  and  C_2
REMARK    2  A    between atoms: C_2  and  C_3
REMARK    3  A    between atoms: C_10  and  S_11
REMARK    4  A    between atoms: S_11  and  N_14
REMARK    5  A    between atoms: N_14  and  C_15
REMARK    6  A    between atoms: C_15  and  C_16
REMARK    7  A    between atoms: C_16  and  C_17
REMARK    8  A    between atoms: N_19  and  C_20
REMARK    9  A    between atoms: C_20  and  C_21
REMARK   10  A    between atoms: C_20  and  C_22
REMARK                            x       y       z     vdW  Elec       q    Type
REMARK                         _______ _______ _______ _____ _____    ______ ____
ROOT
ATOM      1  S   UNL     1       2.886   6.524  18.392  0.00  0.00    +0.000 S 
ATOM      2  O   UNL     1       1.962   5.620  17.742  0.00  0.00    +0.000 OA
ATOM      3  O   UNL     1       4.039   7.067  17.712  0.00  0.00    +0.000 OA
ENDROOT
BRANCH   1  11
ATOM      4  C   UNL     1      -0.963  12.129  20.376  0.00  0.00    +0.000 C 
ATOM      5  O   UNL     1      -1.539  12.814  21.227  0.00  0.00    +0.000 OA
ATOM      6  N   UNL     1      -0.301  10.969  20.735  0.00  0.00    +0.000 N 
ATOM      7  C   UNL     1      -0.410  10.495  22.125  0.00  0.00    +0.000 C 
ATOM      8  C   UNL     1       0.482   9.264  22.269  0.00  0.00    +0.000 C 
ATOM      9  C   UNL     1       0.875   9.003  20.851  0.00  0.00    +0.000 A 
ATOM     10  C   UNL     1       1.626   7.929  20.390  0.00  0.00    +0.000 A 
ATOM     11  C   UNL     1       1.953   7.896  19.033  0.00  0.00    +0.000 A 
ATOM     12  C   UNL     1       1.547   8.923  18.169  0.00  0.00    +0.000 A 
ATOM     13  C   UNL     1       0.795   9.999  18.657  0.00  0.00    +0.000 A 
ATOM     14  C   UNL     1       0.446  10.030  19.998  0.00  0.00    +0.000 A 
BRANCH   4  16
ATOM     15  C   UNL     1      -0.155  13.773  18.628  0.00  0.00    +0.000 C 
ATOM     16  C   UNL     1      -0.991  12.536  18.917  0.00  0.00    +0.000 C 
ENDBRANCH   4  16
ENDBRANCH   1  11
BRANCH   1  17
ATOM     17  N   UNL     1       3.439   5.759  19.792  0.00  0.00    +0.000 NA
ATOM     18  H   UNL     1       3.276   6.356  20.610  0.00  0.00    +0.000 HD
BRANCH  17  19
ATOM     19  C   UNL     1       3.060   4.345  19.990  0.00  0.00    +0.000 C 
BRANCH  19  20
ATOM     20  C   UNL     1       4.227   3.413  19.665  0.00  0.00    +0.000 C 
BRANCH  20  21
ATOM     21  C   UNL     1       5.407   4.183  19.109  0.00  0.00    +0.000 C 
ATOM     22  O   UNL     1       6.178   4.823  19.827  0.00  0.00    +0.000 OA
ATOM     23  N   UNL     1       5.542   4.117  17.742  0.00  0.00    +0.000 N 
ATOM     24  H   UNL     1       4.814   3.686  17.188  0.00  0.00    +0.000 HD
BRANCH  23  25
ATOM     25  C   UNL     1       6.593   4.847  17.043  0.00  0.00    +0.000 C 
ATOM     26  C   UNL     1       7.959   4.512  17.639  0.00  0.00    +0.000 C 
BRANCH  25  27
ATOM     27  C   UNL     1       6.490   4.603  15.547  0.00  0.00    +0.000 A 
ATOM     28  C   UNL     1       7.512   5.074  14.704  0.00  0.00    +0.000 A 
ATOM     29  C   UNL     1       7.470   4.841  13.327  0.00  0.00    +0.000 A 
ATOM     30  C   UNL     1       6.401   4.146  12.771  0.00  0.00    +0.000 A 
ATOM     31  C   UNL     1       5.369   3.691  13.589  0.00  0.00    +0.000 A 
ATOM     32  C   UNL     1       5.409   3.925  14.965  0.00  0.00    +0.000 A 
ENDBRANCH  25  27
ENDBRANCH  23  25
ENDBRANCH  20  21
ENDBRANCH  19  20
ENDBRANCH  17  19
ENDBRANCH   1  17
TORSDOF 8
ENDMDL
MODEL 7
REMARK VINA RESULT:      -7.9      2.224      8.165
REMARK  Name = 
REMARK  10 active torsions:
REMARK  status: ('A' for Active; 'I' for Inactive)
REMARK    1  A    between atoms: C_1  and  C_2
REMARK    2  A    between atoms: C_2  and  C_3
REMARK    3  A    between atoms: C_10  and  S_11
REMARK    4  A    between atoms: S_11  and  N_14
REMARK    5  A    between atoms: N_14  and  C_15
REMARK    6  A    between atoms: C_15  and  C_16
REMARK    7  A    between atoms: C_16  and  C_17
REMARK    8  A    between atoms: N_19  and  C_20
REMARK    9  A    between atoms: C_20  and  C_21
REMARK   10  A    between atoms: C_20  and  C_22
REMARK                            x       y       z     vdW  Elec       q    Type
REMARK                         _______ _______ _______ _____ _____    ______ ____
ROOT
ATOM      1  S   UNL     1       2.401   4.597  20.344  0.00  0.00    +0.000 S 
ATOM      2  O   UNL     1       3.763   4.469  19.871  0.00  0.00    +0.000 OA
ATOM      3  O   UNL     1       1.993   4.140  21.652  0.00  0.00    +0.000 OA
ENDROOT
BRANCH   1  11
ATOM      4  C   UNL     1       0.451  11.406  20.404  0.00  0.00    +0.000 C 
ATOM      5  O   UNL     1       0.332  12.515  19.872  0.00  0.00    +0.000 OA
ATOM      6  N   UNL     1       1.006  10.347  19.709  0.00  0.00    +0.000 N 
ATOM      7  C   UNL     1       1.575  10.598  18.374  0.00  0.00    +0.000 C 
ATOM      8  C   UNL     1       2.028   9.257  17.801  0.00  0.00    +0.000 C 
ATOM      9  C   UNL     1       1.870   8.351  18.979  0.00  0.00    +0.000 A 
ATOM     10  C   UNL     1       2.228   7.010  19.039  0.00  0.00    +0.000 A 
ATOM     11  C   UNL     1       1.933   6.308  20.210  0.00  0.00    +0.000 A 
ATOM     12  C   UNL     1       1.283   6.936  21.281  0.00  0.00    +0.000 A 
ATOM     13  C   UNL     1       0.926   8.288  21.197  0.00  0.00    +0.000 A 
ATOM     14  C   UNL     1       1.235   9.000  20.048  0.00  0.00    +0.000 A 
BRANCH   4  16
ATOM     15  C   UNL     1      -1.150  12.087  22.243  0.00  0.00    +0.000 C 
ATOM     16  C   UNL     1       0.012  11.193  21.839  0.00  0.00    +0.000 C 
ENDBRANCH   4  16
ENDBRANCH   1  11
BRANCH   1  17
ATOM     17  N   UNL     1       1.401   3.844  19.211  0.00  0.00    +0.000 NA
ATOM     18  H   UNL     1       0.798   4.537  18.755  0.00  0.00    +0.000 HD
BRANCH  17  19
ATOM     19  C   UNL     1       2.029   2.883  18.281  0.00  0.00    +0.000 C 
BRANCH  19  20
ATOM     20  C   UNL     1       2.596   3.597  17.055  0.00  0.00    +0.000 C 
BRANCH  20  21
ATOM     21  C   UNL     1       4.089   3.368  16.926  0.00  0.00    +0.000 C 
ATOM     22  O   UNL     1       4.673   2.457  17.516  0.00  0.00    +0.000 OA
ATOM     23  N   UNL     1       4.737   4.263  16.107  0.00  0.00    +0.000 N 
ATOM     24  H   UNL     1       4.237   5.065  15.748  0.00  0.00    +0.000 HD
BRANCH  23  25
ATOM     25  C   UNL     1       6.182   4.216  15.918  0.00  0.00    +0.000 C 
ATOM     26  C   UNL     1       6.534   4.463  14.451  0.00  0.00    +0.000 C 
BRANCH  25  27
ATOM     27  C   UNL     1       6.866   5.162  16.890  0.00  0.00    +0.000 A 
ATOM     28  C   UNL     1       6.937   6.532  16.579  0.00  0.00    +0.000 A 
ATOM     29  C   UNL     1       7.528   7.438  17.462  0.00  0.00    +0.000 A 
ATOM     30  C   UNL     1       8.068   6.988  18.663  0.00  0.00    +0.000 A 
ATOM     31  C   UNL     1       8.025   5.632  18.977  0.00  0.00    +0.000 A 
ATOM     32  C   UNL     1       7.436   4.724  18.094  0.00  0.00    +0.000 A 
ENDBRANCH  25  27
ENDBRANCH  23  25
ENDBRANCH  20  21
ENDBRANCH  19  20
ENDBRANCH  17  19
ENDBRANCH   1  17
TORSDOF 8
ENDMDL
MODEL 8
REMARK VINA RESULT:      -7.9      2.320      8.518
REMARK  Name = 
REMARK  10 active torsions:
REMARK  status: ('A' for Active; 'I' for Inactive)
REMARK    1  A    between atoms: C_1  and  C_2
REMARK    2  A    between atoms: C_2  and  C_3
REMARK    3  A    between atoms: C_10  and  S_11
REMARK    4  A    between atoms: S_11  and  N_14
REMARK    5  A    between atoms: N_14  and  C_15
REMARK    6  A    between atoms: C_15  and  C_16
REMARK    7  A    between atoms: C_16  and  C_17
REMARK    8  A    between atoms: N_19  and  C_20
REMARK    9  A    between atoms: C_20  and  C_21
REMARK   10  A    between atoms: C_20  and  C_22
REMARK                            x       y       z     vdW  Elec       q    Type
REMARK                         _______ _______ _______ _____ _____    ______ ____
ROOT
ATOM      1  S   UNL     1       2.735   6.223  18.995  0.00  0.00    +0.000 S 
ATOM      2  O   UNL     1       2.817   6.293  17.552  0.00  0.00    +0.000 OA
ATOM      3  O   UNL     1       3.899   6.008  19.823  0.00  0.00    +0.000 OA
ENDROOT
BRANCH   1  11
ATOM      4  C   UNL     1      -0.470  12.299  20.719  0.00  0.00    +0.000 C 
ATOM      5  O   UNL     1      -1.048  13.042  21.519  0.00  0.00    +0.000 OA
ATOM      6  N   UNL     1      -0.044  11.042  21.107  0.00  0.00    +0.000 N 
ATOM      7  C   UNL     1      -0.410  10.554  22.447  0.00  0.00    +0.000 C 
ATOM      8  C   UNL     1       0.261   9.196  22.649  0.00  0.00    +0.000 C 
ATOM      9  C   UNL     1       0.799   8.916  21.283  0.00  0.00    +0.000 A 
ATOM     10  C   UNL     1       1.438   7.751  20.875  0.00  0.00    +0.000 A 
ATOM     11  C   UNL     1       1.938   7.705  19.572  0.00  0.00    +0.000 A 
ATOM     12  C   UNL     1       1.811   8.804  18.712  0.00  0.00    +0.000 A 
ATOM     13  C   UNL     1       1.168   9.970  19.146  0.00  0.00    +0.000 A 
ATOM     14  C   UNL     1       0.648  10.019  20.431  0.00  0.00    +0.000 A 
BRANCH   4  16
ATOM     15  C   UNL     1      -1.386  12.383  18.360  0.00  0.00    +0.000 C 
ATOM     16  C   UNL     1      -0.238  12.744  19.289  0.00  0.00    +0.000 C 
ENDBRANCH   4  16
ENDBRANCH   1  11
BRANCH   1  17
ATOM     17  N   UNL     1       1.615   5.019  19.378  0.00  0.00    +0.000 NA
ATOM     18  H   UNL     1       0.727   5.194  18.893  0.00  0.00    +0.000 HD
BRANCH  17  19
ATOM     19  C   UNL     1       2.073   3.616  19.313  0.00  0.00    +0.000 C 
BRANCH  19  20
ATOM     20  C   UNL     1       2.165   3.136  17.865  0.00  0.00    +0.000 C 
BRANCH  20  21
ATOM     21  C   UNL     1       3.604   2.908  17.451  0.00  0.00    +0.000 C 
ATOM     22  O   UNL     1       4.235   1.900  17.774  0.00  0.00    +0.000 OA
ATOM     23  N   UNL     1       4.150   3.919  16.695  0.00  0.00    +0.000 N 
ATOM     24  H   UNL     1       3.635   4.780  16.564  0.00  0.00    +0.000 HD
BRANCH  23  25
ATOM     25  C   UNL     1       5.541   3.882  16.261  0.00  0.00    +0.000 C 
ATOM     26  C   UNL     1       5.628   4.026  14.742  0.00  0.00    +0.000 C 
BRANCH  25  27
ATOM     27  C   UNL     1       6.356   4.907  17.031  0.00  0.00    +0.000 A 
ATOM     28  C   UNL     1       6.391   6.238  16.576  0.00  0.00    +0.000 A 
ATOM     29  C   UNL     1       7.101   7.216  17.275  0.00  0.00    +0.000 A 
ATOM     30  C   UNL     1       7.797   6.878  18.432  0.00  0.00    +0.000 A 
ATOM     31  C   UNL     1       7.790   5.562  18.885  0.00  0.00    +0.000 A 
ATOM     32  C   UNL     1       7.082   4.581  18.186  0.00  0.00    +0.000 A 
ENDBRANCH  25  27
ENDBRANCH  23  25
ENDBRANCH  20  21
ENDBRANCH  19  20
ENDBRANCH  17  19
ENDBRANCH   1  17
TORSDOF 8
ENDMDL
MODEL 9
REMARK VINA RESULT:      -7.9      2.240      8.091
REMARK  Name = 
REMARK  10 active torsions:
REMARK  status: ('A' for Active; 'I' for Inactive)
REMARK    1  A    between atoms: C_1  and  C_2
REMARK    2  A    between atoms: C_2  and  C_3
REMARK    3  A    between atoms: C_10  and  S_11
REMARK    4  A    between atoms: S_11  and  N_14
REMARK    5  A    between atoms: N_14  and  C_15
REMARK    6  A    between atoms: C_15  and  C_16
REMARK    7  A    between atoms: C_16  and  C_17
REMARK    8  A    between atoms: N_19  and  C_20
REMARK    9  A    between atoms: C_20  and  C_21
REMARK   10  A    between atoms: C_20  and  C_22
REMARK                            x       y       z     vdW  Elec       q    Type
REMARK                         _______ _______ _______ _____ _____    ______ ____
ROOT
ATOM      1  S   UNL     1       3.636   3.230  18.870  0.00  0.00    +0.000 S 
ATOM      2  O   UNL     1       2.997   2.284  19.759  0.00  0.00    +0.000 OA
ATOM      3  O   UNL     1       3.646   3.054  17.436  0.00  0.00    +0.000 OA
ENDROOT
BRANCH   1  11
ATOM      4  C   UNL     1       0.966   9.506  20.779  0.00  0.00    +0.000 C 
ATOM      5  O   UNL     1       0.619  10.667  20.537  0.00  0.00    +0.000 OA
ATOM      6  N   UNL     1       1.494   8.706  19.782  0.00  0.00    +0.000 N 
ATOM      7  C   UNL     1       1.761   9.304  18.463  0.00  0.00    +0.000 C 
ATOM      8  C   UNL     1       2.246   8.191  17.536  0.00  0.00    +0.000 C 
ATOM      9  C   UNL     1       2.423   7.054  18.491  0.00  0.00    +0.000 A 
ATOM     10  C   UNL     1       2.937   5.799  18.187  0.00  0.00    +0.000 A 
ATOM     11  C   UNL     1       2.957   4.840  19.203  0.00  0.00    +0.000 A 
ATOM     12  C   UNL     1       2.459   5.133  20.480  0.00  0.00    +0.000 A 
ATOM     13  C   UNL     1       1.940   6.403  20.761  0.00  0.00    +0.000 A 
ATOM     14  C   UNL     1       1.936   7.370  19.767  0.00  0.00    +0.000 A 
BRANCH   4  16
ATOM     15  C   UNL     1      -0.360   9.497  22.935  0.00  0.00    +0.000 C 
ATOM     16  C   UNL     1       0.839   8.945  22.181  0.00  0.00    +0.000 C 
ENDBRANCH   4  16
ENDBRANCH   1  11
BRANCH   1  17
ATOM     17  N   UNL     1       5.241   3.387  19.370  0.00  0.00    +0.000 NA
ATOM     18  H   UNL     1       5.824   2.677  18.915  0.00  0.00    +0.000 HD
BRANCH  17  19
ATOM     19  C   UNL     1       5.825   4.744  19.366  0.00  0.00    +0.000 C 
BRANCH  19  20
ATOM     20  C   UNL     1       7.011   4.827  18.407  0.00  0.00    +0.000 C 
BRANCH  20  21
ATOM     21  C   UNL     1       6.616   5.483  17.099  0.00  0.00    +0.000 C 
ATOM     22  O   UNL     1       7.119   6.539  16.709  0.00  0.00    +0.000 OA
ATOM     23  N   UNL     1       5.647   4.811  16.390  0.00  0.00    +0.000 N 
ATOM     24  H   UNL     1       5.178   4.021  16.811  0.00  0.00    +0.000 HD
BRANCH  23  25
ATOM     25  C   UNL     1       5.115   5.336  15.139  0.00  0.00    +0.000 C 
ATOM     26  C   UNL     1       5.160   6.864  15.142  0.00  0.00    +0.000 C 
BRANCH  25  27
ATOM     27  C   UNL     1       5.827   4.695  13.960  0.00  0.00    +0.000 A 
ATOM     28  C   UNL     1       5.190   3.656  13.257  0.00  0.00    +0.000 A 
ATOM     29  C   UNL     1       5.797   3.063  12.148  0.00  0.00    +0.000 A 
ATOM     30  C   UNL     1       7.054   3.491  11.730  0.00  0.00    +0.000 A 
ATOM     31  C   UNL     1       7.707   4.505  12.427  0.00  0.00    +0.000 A 
ATOM     32  C   UNL     1       7.103   5.096  13.538  0.00  0.00    +0.000 A 
ENDBRANCH  25  27
ENDBRANCH  23  25
ENDBRANCH  20  21
ENDBRANCH  19  20
ENDBRANCH  17  19
ENDBRANCH   1  17
TORSDOF 8
ENDMDL
