MODEL 1
REMARK VINA RESULT:      -8.8      0.000      0.000
REMARK  Name = 
REMARK  7 active torsions:
REMARK  status: ('A' for Active; 'I' for Inactive)
REMARK    1  A    between atoms: C_1  and  N_2
REMARK    2  A    between atoms: N_2  and  S_3
REMARK    3  A    between atoms: S_3  and  C_6
REMARK    4  A    between atoms: C_10  and  N_11
REMARK    5  A    between atoms: N_11  and  C_12
REMARK    6  A    between atoms: C_16  and  C_17
REMARK    7  A    between atoms: C_17  and  O_19
REMARK                            x       y       z     vdW  Elec       q    Type
REMARK                         _______ _______ _______ _____ _____    ______ ____
ROOT
ATOM      1  C   UNL     1       2.574   6.182  19.684  0.00  0.00    +0.000 A 
ATOM      2  N   UNL     1       3.653   6.469  18.917  0.00  0.00    +0.000 NA
ATOM      3  C   UNL     1       4.205   5.577  18.104  0.00  0.00    +0.000 A 
ATOM      4  C   UNL     1       5.293   5.987  17.364  0.00  0.00    +0.000 A 
ATOM      5  C   UNL     1       5.909   5.139  16.440  0.00  0.00    +0.000 A 
ATOM      6  C   UNL     1       5.460   3.825  16.286  0.00  0.00    +0.000 A 
ATOM      7  C   UNL     1       4.372   3.384  17.040  0.00  0.00    +0.000 A 
ATOM      8  C   UNL     1       3.739   4.267  17.948  0.00  0.00    +0.000 A 
ATOM      9  C   UNL     1       2.619   3.922  18.757  0.00  0.00    +0.000 A 
ATOM     10  S   UNL     1       1.801   2.394  18.811  0.00  0.00    +0.000 S 
ATOM     11  C   UNL     1       0.692   2.934  19.976  0.00  0.00    +0.000 A 
ATOM     12  C   UNL     1       0.924   4.242  20.333  0.00  0.00    +0.000 A 
ATOM     13  C   UNL     1       2.038   4.853  19.632  0.00  0.00    +0.000 A 
ENDROOT
BRANCH   1  14
ATOM     14  N   UNL     1       2.055   7.195  20.510  0.00  0.00    +0.000 N 
ATOM     15  H   UNL     1       2.136   6.987  21.494  0.00  0.00    +0.000 HD
BRANCH  14  20
ATOM     16  C   UNL     1       0.257  10.505  20.768  0.00  0.00    +0.000 A 
ATOM     17  C   UNL     1       0.349  10.948  19.449  0.00  0.00    +0.000 A 
ATOM     18  C   UNL     1       0.957  10.132  18.506  0.00  0.00    +0.000 A 
ATOM     19  C   UNL     1       1.486   8.892  18.887  0.00  0.00    +0.000 A 
ATOM     20  C   UNL     1       1.448   8.439  20.219  0.00  0.00    +0.000 A 
ATOM     21  C   UNL     1       0.811   9.267  21.159  0.00  0.00    +0.000 A 
BRANCH  16  22
ATOM     22  S   UNL     1      -0.558  11.549  21.958  0.00  0.00    +0.000 S 
ATOM     23  O   UNL     1      -0.431  10.938  23.261  0.00  0.00    +0.000 OA
ATOM     24  O   UNL     1      -1.849  11.902  21.411  0.00  0.00    +0.000 OA
BRANCH  22  26
ATOM     25  C   UNL     1      -0.278  14.237  21.884  0.00  0.00    +0.000 C 
ATOM     26  N   UNL     1       0.383  12.940  21.952  0.00  0.00    +0.000 NA
ATOM     27  H   UNL     1       1.215  12.862  22.535  0.00  0.00    +0.000 HD
ENDBRANCH  22  26
ENDBRANCH  16  22
ENDBRANCH  14  20
ENDBRANCH   1  14
BRANCH   5  28
ATOM     28  C   UNL     1       7.050   5.695  15.678  0.00  0.00    +0.000 C 
ATOM     29  O   UNL     1       7.403   5.247  14.601  0.00  0.00    +0.000 OA
BRANCH  28  30
ATOM     30  O   UNL     1       7.692   6.693  16.316  0.00  0.00    +0.000 OA
ATOM     31  H   UNL     1       8.658   6.718  16.181  0.00  0.00    +0.000 HD
ENDBRANCH  28  30
ENDBRANCH   5  28
TORSDOF 6
ENDMDL
MODEL 2
REMARK VINA RESULT:      -8.6      1.825      2.133
REMARK  Name = 
REMARK  7 active torsions:
REMARK  status: ('A' for Active; 'I' for Inactive)
REMARK    1  A    between atoms: C_1  and  N_2
REMARK    2  A    between atoms: N_2  and  S_3
REMARK    3  A    between atoms: S_3  and  C_6
REMARK    4  A    between atoms: C_10  and  N_11
REMARK    5  A    between atoms: N_11  and  C_12
REMARK    6  A    between atoms: C_16  and  C_17
REMARK    7  A    between atoms: C_17  and  O_19
REMARK                            x       y       z     vdW  Elec       q    Type
REMARK                         _______ _______ _______ _____ _____    ______ ____
ROOT
ATOM      1  C   UNL     1       2.540   5.876  19.945  0.00  0.00    +0.000 A 
ATOM      2  N   UNL     1       3.644   6.249  19.253  0.00  0.00    +0.000 NA
ATOM      3  C   UNL     1       4.188   5.483  18.315  0.00  0.00    +0.000 A 
ATOM      4  C   UNL     1       5.303   5.972  17.671  0.00  0.00    +0.000 A 
ATOM      5  C   UNL     1       5.916   5.266  16.633  0.00  0.00    +0.000 A 
ATOM      6  C   UNL     1       5.432   4.009  16.259  0.00  0.00    +0.000 A 
ATOM      7  C   UNL     1       4.315   3.487  16.912  0.00  0.00    +0.000 A 
ATOM      8  C   UNL     1       3.687   4.231  17.941  0.00  0.00    +0.000 A 
ATOM      9  C   UNL     1       2.540   3.796  18.663  0.00  0.00    +0.000 A 
ATOM     10  S   UNL     1       1.677   2.307  18.454  0.00  0.00    +0.000 S 
ATOM     11  C   UNL     1       0.559   2.686  19.671  0.00  0.00    +0.000 A 
ATOM     12  C   UNL     1       0.820   3.911  20.241  0.00  0.00    +0.000 A 
ATOM     13  C   UNL     1       1.967   4.591  19.668  0.00  0.00    +0.000 A 
ENDROOT
BRANCH   1  14
ATOM     14  N   UNL     1       2.032   6.758  20.915  0.00  0.00    +0.000 N 
ATOM     15  H   UNL     1       2.191   6.443  21.861  0.00  0.00    +0.000 HD
BRANCH  14  20
ATOM     16  C   UNL     1       0.945  10.233  19.914  0.00  0.00    +0.000 A 
ATOM     17  C   UNL     1      -0.202  10.374  20.694  0.00  0.00    +0.000 A 
ATOM     18  C   UNL     1      -0.562   9.348  21.555  0.00  0.00    +0.000 A 
ATOM     19  C   UNL     1       0.211   8.181  21.619  0.00  0.00    +0.000 A 
ATOM     20  C   UNL     1       1.348   7.992  20.812  0.00  0.00    +0.000 A 
ATOM     21  C   UNL     1       1.712   9.049  19.959  0.00  0.00    +0.000 A 
BRANCH  16  22
ATOM     22  S   UNL     1       1.411  11.574  18.840  0.00  0.00    +0.000 S 
ATOM     23  O   UNL     1       2.308  11.058  17.832  0.00  0.00    +0.000 OA
ATOM     24  O   UNL     1       1.781  12.691  19.680  0.00  0.00    +0.000 OA
BRANCH  22  26
ATOM     25  C   UNL     1      -0.599  13.301  18.304  0.00  0.00    +0.000 C 
ATOM     26  N   UNL     1      -0.033  11.976  18.084  0.00  0.00    +0.000 NA
ATOM     27  H   UNL     1      -0.123  11.571  17.153  0.00  0.00    +0.000 HD
ENDBRANCH  22  26
ENDBRANCH  16  22
ENDBRANCH  14  20
ENDBRANCH   1  14
BRANCH   5  28
ATOM     28  C   UNL     1       7.088   5.900  15.991  0.00  0.00    +0.000 C 
ATOM     29  O   UNL     1       7.566   5.496  14.945  0.00  0.00    +0.000 OA
BRANCH  28  30
ATOM     30  O   UNL     1       7.610   6.918  16.704  0.00  0.00    +0.000 OA
ATOM     31  H   UNL     1       7.234   7.797  16.509  0.00  0.00    +0.000 HD
ENDBRANCH  28  30
ENDBRANCH   5  28
TORSDOF 6
ENDMDL
MODEL 3
REMARK VINA RESULT:      -8.5      1.725      2.215
REMARK  Name = 
REMARK  7 active torsions:
REMARK  status: ('A' for Active; 'I' for Inactive)
REMARK    1  A    between atoms: C_1  and  N_2
REMARK    2  A    between atoms: N_2  and  S_3
REMARK    3  A    between atoms: S_3  and  C_6
REMARK    4  A    between atoms: C_10  and  N_11
REMARK    5  A    between atoms: N_11  and  C_12
REMARK    6  A    between atoms: C_16  and  C_17
REMARK    7  A    between atoms: C_17  and  O_19
REMARK                            x       y       z     vdW  Elec       q    Type
REMARK                         _______ _______ _______ _____ _____    ______ ____
ROOT
ATOM      1  C   UNL     1       3.029   7.787  18.060  0.00  0.00    +0.000 A 
ATOM      2  N   UNL     1       3.901   7.463  17.075  0.00  0.00    +0.000 NA
ATOM      3  C   UNL     1       4.391   6.238  16.934  0.00  0.00    +0.000 A 
ATOM      4  C   UNL     1       5.262   6.024  15.888  0.00  0.00    +0.000 A 
ATOM      5  C   UNL     1       5.789   4.757  15.624  0.00  0.00    +0.000 A 
ATOM      6  C   UNL     1       5.477   3.680  16.458  0.00  0.00    +0.000 A 
ATOM      7  C   UNL     1       4.613   3.880  17.534  0.00  0.00    +0.000 A 
ATOM      8  C   UNL     1       4.063   5.164  17.768  0.00  0.00    +0.000 A 
ATOM      9  C   UNL     1       3.165   5.472  18.830  0.00  0.00    +0.000 A 
ATOM     10  S   UNL     1       2.560   4.384  20.036  0.00  0.00    +0.000 S 
ATOM     11  C   UNL     1       1.636   5.594  20.784  0.00  0.00    +0.000 A 
ATOM     12  C   UNL     1       1.774   6.807  20.151  0.00  0.00    +0.000 A 
ATOM     13  C   UNL     1       2.654   6.769  18.998  0.00  0.00    +0.000 A 
ENDROOT
BRANCH   1  14
ATOM     14  N   UNL     1       2.560   9.111  18.125  0.00  0.00    +0.000 N 
ATOM     15  H   UNL     1       3.230   9.789  17.792  0.00  0.00    +0.000 HD
BRANCH  14  20
ATOM     16  C   UNL     1      -0.119  10.876  20.118  0.00  0.00    +0.000 A 
ATOM     17  C   UNL     1      -1.199  10.770  19.242  0.00  0.00    +0.000 A 
ATOM     18  C   UNL     1      -1.030  10.088  18.045  0.00  0.00    +0.000 A 
ATOM     19  C   UNL     1       0.215   9.534  17.722  0.00  0.00    +0.000 A 
ATOM     20  C   UNL     1       1.334   9.664  18.566  0.00  0.00    +0.000 A 
ATOM     21  C   UNL     1       1.142  10.340  19.783  0.00  0.00    +0.000 A 
BRANCH  16  22
ATOM     22  S   UNL     1      -0.362  11.724  21.664  0.00  0.00    +0.000 S 
ATOM     23  O   UNL     1      -1.781  11.911  21.862  0.00  0.00    +0.000 OA
ATOM     24  O   UNL     1       0.559  12.839  21.694  0.00  0.00    +0.000 OA
BRANCH  22  26
ATOM     25  C   UNL     1      -0.570   9.362  22.963  0.00  0.00    +0.000 C 
ATOM     26  N   UNL     1       0.170  10.607  22.799  0.00  0.00    +0.000 NA
ATOM     27  H   UNL     1       1.186  10.568  22.876  0.00  0.00    +0.000 HD
ENDBRANCH  22  26
ENDBRANCH  16  22
ENDBRANCH  14  20
ENDBRANCH   1  14
BRANCH   5  28
ATOM     28  C   UNL     1       6.690   4.636  14.456  0.00  0.00    +0.000 C 
ATOM     29  O   UNL     1       7.577   5.438  14.222  0.00  0.00    +0.000 OA
BRANCH  28  30
ATOM     30  O   UNL     1       6.393   3.598  13.649  0.00  0.00    +0.000 OA
ATOM     31  H   UNL     1       7.067   3.388  12.977  0.00  0.00    +0.000 HD
ENDBRANCH  28  30
ENDBRANCH   5  28
TORSDOF 6
ENDMDL
MODEL 4
REMARK VINA RESULT:      -8.5      2.521      3.273
REMARK  Name = 
REMARK  7 active torsions:
REMARK  status: ('A' for Active; 'I' for Inactive)
REMARK    1  A    between atoms: C_1  and  N_2
REMARK    2  A    between atoms: N_2  and  S_3
REMARK    3  A    between atoms: S_3  and  C_6
REMARK    4  A    between atoms: C_10  and  N_11
REMARK    5  A    between atoms: N_11  and  C_12
REMARK    6  A    between atoms: C_16  and  C_17
REMARK    7  A    between atoms: C_17  and  O_19
REMARK                            x       y       z     vdW  Elec       q    Type
REMARK                         _______ _______ _______ _____ _____    ______ ____
ROOT
ATOM      1  C   UNL     1       2.918   7.824  17.990  0.00  0.00    +0.000 A 
ATOM      2  N   UNL     1       3.806   7.484  17.025  0.00  0.00    +0.000 NA
ATOM      3  C   UNL     1       4.343   6.273  16.947  0.00  0.00    +0.000 A 
ATOM      4  C   UNL     1       5.226   6.040  15.915  0.00  0.00    +0.000 A 
ATOM      5  C   UNL     1       5.801   4.783  15.716  0.00  0.00    +0.000 A 
ATOM      6  C   UNL     1       5.528   3.738  16.603  0.00  0.00    +0.000 A 
ATOM      7  C   UNL     1       4.652   3.958  17.666  0.00  0.00    +0.000 A 
ATOM      8  C   UNL     1       4.052   5.230  17.834  0.00  0.00    +0.000 A 
ATOM      9  C   UNL     1       3.140   5.558  18.876  0.00  0.00    +0.000 A 
ATOM     10  S   UNL     1       2.571   4.510  20.135  0.00  0.00    +0.000 S 
ATOM     11  C   UNL     1       1.598   5.720  20.819  0.00  0.00    +0.000 A 
ATOM     12  C   UNL     1       1.693   6.904  20.124  0.00  0.00    +0.000 A 
ATOM     13  C   UNL     1       2.579   6.841  18.977  0.00  0.00    +0.000 A 
ENDROOT
BRANCH   1  14
ATOM     14  N   UNL     1       2.399   9.131  17.987  0.00  0.00    +0.000 N 
ATOM     15  H   UNL     1       2.965   9.784  17.465  0.00  0.00    +0.000 HD
BRANCH  14  20
ATOM     16  C   UNL     1      -1.101  10.405  18.611  0.00  0.00    +0.000 A 
ATOM     17  C   UNL     1      -0.999  10.783  19.949  0.00  0.00    +0.000 A 
ATOM     18  C   UNL     1       0.222  10.651  20.594  0.00  0.00    +0.000 A 
ATOM     19  C   UNL     1       1.325  10.126  19.909  0.00  0.00    +0.000 A 
ATOM     20  C   UNL     1       1.240   9.694  18.573  0.00  0.00    +0.000 A 
ATOM     21  C   UNL     1       0.003   9.852  17.926  0.00  0.00    +0.000 A 
BRANCH  16  22
ATOM     22  S   UNL     1      -2.666  10.613  17.788  0.00  0.00    +0.000 S 
ATOM     23  O   UNL     1      -3.343  11.745  18.378  0.00  0.00    +0.000 OA
ATOM     24  O   UNL     1      -3.291   9.312  17.714  0.00  0.00    +0.000 OA
BRANCH  22  26
ATOM     25  C   UNL     1      -2.923  10.434  15.102  0.00  0.00    +0.000 C 
ATOM     26  N   UNL     1      -2.220  11.041  16.226  0.00  0.00    +0.000 NA
ATOM     27  H   UNL     1      -1.947  12.019  16.142  0.00  0.00    +0.000 HD
ENDBRANCH  22  26
ENDBRANCH  16  22
ENDBRANCH  14  20
ENDBRANCH   1  14
BRANCH   5  28
ATOM     28  C   UNL     1       6.711   4.637  14.558  0.00  0.00    +0.000 C 
ATOM     29  O   UNL     1       7.594   5.439  14.308  0.00  0.00    +0.000 OA
BRANCH  28  30
ATOM     30  O   UNL     1       6.428   3.575  13.778  0.00  0.00    +0.000 OA
ATOM     31  H   UNL     1       5.983   3.786  12.935  0.00  0.00    +0.000 HD
ENDBRANCH  28  30
ENDBRANCH   5  28
TORSDOF 6
ENDMDL
MODEL 5
REMARK VINA RESULT:      -8.5      1.055      1.196
REMARK  Name = 
REMARK  7 active torsions:
REMARK  status: ('A' for Active; 'I' for Inactive)
REMARK    1  A    between atoms: C_1  and  N_2
REMARK    2  A    between atoms: N_2  and  S_3
REMARK    3  A    between atoms: S_3  and  C_6
REMARK    4  A    between atoms: C_10  and  N_11
REMARK    5  A    between atoms: N_11  and  C_12
REMARK    6  A    between atoms: C_16  and  C_17
REMARK    7  A    between atoms: C_17  and  O_19
REMARK                            x       y       z     vdW  Elec       q    Type
REMARK                         _______ _______ _______ _____ _____    ______ ____
ROOT
ATOM      1  C   UNL     1       2.518   6.319  19.583  0.00  0.00    +0.000 A 
ATOM      2  N   UNL     1       3.597   6.570  18.804  0.00  0.00    +0.000 NA
ATOM      3  C   UNL     1       4.181   5.628  18.073  0.00  0.00    +0.000 A 
ATOM      4  C   UNL     1       5.265   6.003  17.310  0.00  0.00    +0.000 A 
ATOM      5  C   UNL     1       5.914   5.098  16.468  0.00  0.00    +0.000 A 
ATOM      6  C   UNL     1       5.501   3.764  16.421  0.00  0.00    +0.000 A 
ATOM      7  C   UNL     1       4.417   3.359  17.200  0.00  0.00    +0.000 A 
ATOM      8  C   UNL     1       3.751   4.297  18.025  0.00  0.00    +0.000 A 
ATOM      9  C   UNL     1       2.632   3.991  18.851  0.00  0.00    +0.000 A 
ATOM     10  S   UNL     1       1.854   2.452  19.028  0.00  0.00    +0.000 S 
ATOM     11  C   UNL     1       0.719   3.058  20.133  0.00  0.00    +0.000 A 
ATOM     12  C   UNL     1       0.913   4.398  20.381  0.00  0.00    +0.000 A 
ATOM     13  C   UNL     1       2.018   4.977  19.639  0.00  0.00    +0.000 A 
ENDROOT
BRANCH   1  14
ATOM     14  N   UNL     1       1.964   7.384  20.316  0.00  0.00    +0.000 N 
ATOM     15  H   UNL     1       1.931   7.209  21.310  0.00  0.00    +0.000 HD
BRANCH  14  20
ATOM     16  C   UNL     1       0.531  10.878  20.304  0.00  0.00    +0.000 A 
ATOM     17  C   UNL     1       0.517  11.142  18.935  0.00  0.00    +0.000 A 
ATOM     18  C   UNL     1       0.936  10.155  18.055  0.00  0.00    +0.000 A 
ATOM     19  C   UNL     1       1.383   8.921  18.545  0.00  0.00    +0.000 A 
ATOM     20  C   UNL     1       1.450   8.642  19.922  0.00  0.00    +0.000 A 
ATOM     21  C   UNL     1       1.003   9.644  20.801  0.00  0.00    +0.000 A 
BRANCH  16  22
ATOM     22  S   UNL     1      -0.043  12.142  21.418  0.00  0.00    +0.000 S 
ATOM     23  O   UNL     1      -1.326  12.614  20.948  0.00  0.00    +0.000 OA
ATOM     24  O   UNL     1       1.059  13.050  21.646  0.00  0.00    +0.000 OA
BRANCH  22  26
ATOM     25  C   UNL     1      -1.665  10.960  23.229  0.00  0.00    +0.000 C 
ATOM     26  N   UNL     1      -0.300  11.302  22.849  0.00  0.00    +0.000 NA
ATOM     27  H   UNL     1       0.432  10.623  23.051  0.00  0.00    +0.000 HD
ENDBRANCH  22  26
ENDBRANCH  16  22
ENDBRANCH  14  20
ENDBRANCH   1  14
BRANCH   5  28
ATOM     28  C   UNL     1       7.047   5.618  15.670  0.00  0.00    +0.000 C 
ATOM     29  O   UNL     1       7.377   5.135  14.601  0.00  0.00    +0.000 OA
BRANCH  28  30
ATOM     30  O   UNL     1       7.712   6.626  16.269  0.00  0.00    +0.000 OA
ATOM     31  H   UNL     1       7.158   7.373  16.563  0.00  0.00    +0.000 HD
ENDBRANCH  28  30
ENDBRANCH   5  28
TORSDOF 6
ENDMDL
MODEL 6
REMARK VINA RESULT:      -8.5      1.802      2.225
REMARK  Name = 
REMARK  7 active torsions:
REMARK  status: ('A' for Active; 'I' for Inactive)
REMARK    1  A    between atoms: C_1  and  N_2
REMARK    2  A    between atoms: N_2  and  S_3
REMARK    3  A    between atoms: S_3  and  C_6
REMARK    4  A    between atoms: C_10  and  N_11
REMARK    5  A    between atoms: N_11  and  C_12
REMARK    6  A    between atoms: C_16  and  C_17
REMARK    7  A    between atoms: C_17  and  O_19
REMARK                            x       y       z     vdW  Elec       q    Type
REMARK                         _______ _______ _______ _____ _____    ______ ____
ROOT
ATOM      1  C   UNL     1       2.474   5.927  20.081  0.00  0.00    +0.000 A 
ATOM      2  N   UNL     1       3.572   6.330  19.397  0.00  0.00    +0.000 NA
ATOM      3  C   UNL     1       4.111   5.603  18.426  0.00  0.00    +0.000 A 
ATOM      4  C   UNL     1       5.220   6.121  17.794  0.00  0.00    +0.000 A 
ATOM      5  C   UNL     1       5.828   5.457  16.725  0.00  0.00    +0.000 A 
ATOM      6  C   UNL     1       5.344   4.214  16.306  0.00  0.00    +0.000 A 
ATOM      7  C   UNL     1       4.234   3.664  16.946  0.00  0.00    +0.000 A 
ATOM      8  C   UNL     1       3.612   4.366  18.007  0.00  0.00    +0.000 A 
ATOM      9  C   UNL     1       2.471   3.899  18.719  0.00  0.00    +0.000 A 
ATOM     10  S   UNL     1       1.611   2.416  18.459  0.00  0.00    +0.000 S 
ATOM     11  C   UNL     1       0.500   2.745  19.698  0.00  0.00    +0.000 A 
ATOM     12  C   UNL     1       0.762   3.947  20.313  0.00  0.00    +0.000 A 
ATOM     13  C   UNL     1       1.902   4.652  19.759  0.00  0.00    +0.000 A 
ENDROOT
BRANCH   1  14
ATOM     14  N   UNL     1       1.971   6.769  21.089  0.00  0.00    +0.000 N 
ATOM     15  H   UNL     1       2.143   6.423  22.021  0.00  0.00    +0.000 HD
BRANCH  14  20
ATOM     16  C   UNL     1       0.352   9.980  19.933  0.00  0.00    +0.000 A 
ATOM     17  C   UNL     1      -0.221  10.419  21.126  0.00  0.00    +0.000 A 
ATOM     18  C   UNL     1      -0.024   9.676  22.281  0.00  0.00    +0.000 A 
ATOM     19  C   UNL     1       0.723   8.492  22.236  0.00  0.00    +0.000 A 
ATOM     20  C   UNL     1       1.275   8.001  21.038  0.00  0.00    +0.000 A 
ATOM     21  C   UNL     1       1.085   8.775  19.881  0.00  0.00    +0.000 A 
BRANCH  16  22
ATOM     22  S   UNL     1       0.119  10.963  18.468  0.00  0.00    +0.000 S 
ATOM     23  O   UNL     1      -0.330  12.277  18.869  0.00  0.00    +0.000 OA
ATOM     24  O   UNL     1      -0.630  10.163  17.525  0.00  0.00    +0.000 OA
BRANCH  22  26
ATOM     25  C   UNL     1       2.445  12.314  18.189  0.00  0.00    +0.000 C 
ATOM     26  N   UNL     1       1.677  11.118  17.862  0.00  0.00    +0.000 NA
ATOM     27  H   UNL     1       2.178  10.232  17.815  0.00  0.00    +0.000 HD
ENDBRANCH  22  26
ENDBRANCH  16  22
ENDBRANCH  14  20
ENDBRANCH   1  14
BRANCH   5  28
ATOM     28  C   UNL     1       6.994   6.120  16.100  0.00  0.00    +0.000 C 
ATOM     29  O   UNL     1       7.583   5.651  15.142  0.00  0.00    +0.000 OA
BRANCH  28  30
ATOM     30  O   UNL     1       7.376   7.249  16.729  0.00  0.00    +0.000 OA
ATOM     31  H   UNL     1       7.032   8.076  16.344  0.00  0.00    +0.000 HD
ENDBRANCH  28  30
ENDBRANCH   5  28
TORSDOF 6
ENDMDL
MODEL 7
REMARK VINA RESULT:      -8.3      1.679      2.082
REMARK  Name = 
REMARK  7 active torsions:
REMARK  status: ('A' for Active; 'I' for Inactive)
REMARK    1  A    between atoms: C_1  and  N_2
REMARK    2  A    between atoms: N_2  and  S_3
REMARK    3  A    between atoms: S_3  and  C_6
REMARK    4  A    between atoms: C_10  and  N_11
REMARK    5  A    between atoms: N_11  and  C_12
REMARK    6  A    between atoms: C_16  and  C_17
REMARK    7  A    between atoms: C_17  and  O_19
REMARK                            x       y       z     vdW  Elec       q    Type
REMARK                         _______ _______ _______ _____ _____    ______ ____
ROOT
ATOM      1  C   UNL     1       3.007   7.765  18.097  0.00  0.00    +0.000 A 
ATOM      2  N   UNL     1       3.876   7.449  17.107  0.00  0.00    +0.000 NA
ATOM      3  C   UNL     1       4.365   6.224  16.955  0.00  0.00    +0.000 A 
ATOM      4  C   UNL     1       5.233   6.018  15.905  0.00  0.00    +0.000 A 
ATOM      5  C   UNL     1       5.759   4.754  15.629  0.00  0.00    +0.000 A 
ATOM      6  C   UNL     1       5.450   3.670  16.456  0.00  0.00    +0.000 A 
ATOM      7  C   UNL     1       4.588   3.862  17.536  0.00  0.00    +0.000 A 
ATOM      8  C   UNL     1       4.039   5.144  17.782  0.00  0.00    +0.000 A 
ATOM      9  C   UNL     1       3.145   5.444  18.848  0.00  0.00    +0.000 A 
ATOM     10  S   UNL     1       2.543   4.347  20.048  0.00  0.00    +0.000 S 
ATOM     11  C   UNL     1       1.621   5.550  20.808  0.00  0.00    +0.000 A 
ATOM     12  C   UNL     1       1.757   6.769  20.183  0.00  0.00    +0.000 A 
ATOM     13  C   UNL     1       2.634   6.740  19.028  0.00  0.00    +0.000 A 
ENDROOT
BRANCH   1  14
ATOM     14  N   UNL     1       2.538   9.088  18.174  0.00  0.00    +0.000 N 
ATOM     15  H   UNL     1       3.192   9.765  17.809  0.00  0.00    +0.000 HD
BRANCH  14  20
ATOM     16  C   UNL     1      -0.077  10.793  20.300  0.00  0.00    +0.000 A 
ATOM     17  C   UNL     1      -1.169  10.762  19.433  0.00  0.00    +0.000 A 
ATOM     18  C   UNL     1      -1.030  10.147  18.198  0.00  0.00    +0.000 A 
ATOM     19  C   UNL     1       0.198   9.586  17.826  0.00  0.00    +0.000 A 
ATOM     20  C   UNL     1       1.330   9.641  18.662  0.00  0.00    +0.000 A 
ATOM     21  C   UNL     1       1.168  10.249  19.919  0.00  0.00    +0.000 A 
BRANCH  16  22
ATOM     22  S   UNL     1      -0.282  11.555  21.896  0.00  0.00    +0.000 S 
ATOM     23  O   UNL     1       0.383  12.838  21.876  0.00  0.00    +0.000 OA
ATOM     24  O   UNL     1       0.030  10.557  22.894  0.00  0.00    +0.000 OA
BRANCH  22  26
ATOM     25  C   UNL     1      -2.490  12.448  23.176  0.00  0.00    +0.000 C 
ATOM     26  N   UNL     1      -1.935  11.838  21.973  0.00  0.00    +0.000 NA
ATOM     27  H   UNL     1      -2.338  12.107  21.077  0.00  0.00    +0.000 HD
ENDBRANCH  22  26
ENDBRANCH  16  22
ENDBRANCH  14  20
ENDBRANCH   1  14
BRANCH   5  28
ATOM     28  C   UNL     1       6.657   4.642  14.457  0.00  0.00    +0.000 C 
ATOM     29  O   UNL     1       7.540   5.448  14.225  0.00  0.00    +0.000 OA
BRANCH  28  30
ATOM     30  O   UNL     1       6.361   3.607  13.647  0.00  0.00    +0.000 OA
ATOM     31  H   UNL     1       5.440   3.290  13.697  0.00  0.00    +0.000 HD
ENDBRANCH  28  30
ENDBRANCH   5  28
TORSDOF 6
ENDMDL
MODEL 8
REMARK VINA RESULT:      -8.3      2.248      2.730
REMARK  Name = 
REMARK  7 active torsions:
REMARK  status: ('A' for Active; 'I' for Inactive)
REMARK    1  A    between atoms: C_1  and  N_2
REMARK    2  A    between atoms: N_2  and  S_3
REMARK    3  A    between atoms: S_3  and  C_6
REMARK    4  A    between atoms: C_10  and  N_11
REMARK    5  A    between atoms: N_11  and  C_12
REMARK    6  A    between atoms: C_16  and  C_17
REMARK    7  A    between atoms: C_17  and  O_19
REMARK                            x       y       z     vdW  Elec       q    Type
REMARK                         _______ _______ _______ _____ _____    ______ ____
ROOT
ATOM      1  C   UNL     1       3.180   7.406  18.120  0.00  0.00    +0.000 A 
ATOM      2  N   UNL     1       4.052   7.219  17.100  0.00  0.00    +0.000 NA
ATOM      3  C   UNL     1       4.527   6.021  16.781  0.00  0.00    +0.000 A 
ATOM      4  C   UNL     1       5.399   5.952  15.717  0.00  0.00    +0.000 A 
ATOM      5  C   UNL     1       5.911   4.731  15.270  0.00  0.00    +0.000 A 
ATOM      6  C   UNL     1       5.583   3.547  15.937  0.00  0.00    +0.000 A 
ATOM      7  C   UNL     1       4.718   3.598  17.030  0.00  0.00    +0.000 A 
ATOM      8  C   UNL     1       4.182   4.840  17.449  0.00  0.00    +0.000 A 
ATOM      9  C   UNL     1       3.286   5.002  18.543  0.00  0.00    +0.000 A 
ATOM     10  S   UNL     1       2.663   3.756  19.575  0.00  0.00    +0.000 S 
ATOM     11  C   UNL     1       1.751   4.855  20.491  0.00  0.00    +0.000 A 
ATOM     12  C   UNL     1       1.906   6.146  20.043  0.00  0.00    +0.000 A 
ATOM     13  C   UNL     1       2.790   6.266  18.898  0.00  0.00    +0.000 A 
ENDROOT
BRANCH   1  14
ATOM     14  N   UNL     1       2.727   8.712  18.378  0.00  0.00    +0.000 N 
ATOM     15  H   UNL     1       3.414   9.421  18.168  0.00  0.00    +0.000 HD
BRANCH  14  20
ATOM     16  C   UNL     1      -0.701  10.266  18.681  0.00  0.00    +0.000 A 
ATOM     17  C   UNL     1      -0.943  10.084  20.042  0.00  0.00    +0.000 A 
ATOM     18  C   UNL     1       0.039   9.499  20.828  0.00  0.00    +0.000 A 
ATOM     19  C   UNL     1       1.245   9.081  20.250  0.00  0.00    +0.000 A 
ATOM     20  C   UNL     1       1.498   9.211  18.872  0.00  0.00    +0.000 A 
ATOM     21  C   UNL     1       0.503   9.824  18.092  0.00  0.00    +0.000 A 
BRANCH  16  22
ATOM     22  S   UNL     1      -1.958  11.050  17.694  0.00  0.00    +0.000 S 
ATOM     23  O   UNL     1      -3.079  11.365  18.550  0.00  0.00    +0.000 OA
ATOM     24  O   UNL     1      -2.121  10.259  16.495  0.00  0.00    +0.000 OA
BRANCH  22  26
ATOM     25  C   UNL     1      -0.687  13.365  18.276  0.00  0.00    +0.000 C 
ATOM     26  N   UNL     1      -1.238  12.498  17.241  0.00  0.00    +0.000 NA
ATOM     27  H   UNL     1      -0.734  12.435  16.358  0.00  0.00    +0.000 HD
ENDBRANCH  22  26
ENDBRANCH  16  22
ENDBRANCH  14  20
ENDBRANCH   1  14
BRANCH   5  28
ATOM     28  C   UNL     1       6.814   4.771  14.099  0.00  0.00    +0.000 C 
ATOM     29  O   UNL     1       7.808   5.476  14.057  0.00  0.00    +0.000 OA
BRANCH  28  30
ATOM     30  O   UNL     1       6.398   4.008  13.069  0.00  0.00    +0.000 OA
ATOM     31  H   UNL     1       5.530   3.581  13.193  0.00  0.00    +0.000 HD
ENDBRANCH  28  30
ENDBRANCH   5  28
TORSDOF 6
ENDMDL
MODEL 9
REMARK VINA RESULT:      -8.2      1.385      1.778
REMARK  Name = 
REMARK  7 active torsions:
REMARK  status: ('A' for Active; 'I' for Inactive)
REMARK    1  A    between atoms: C_1  and  N_2
REMARK    2  A    between atoms: N_2  and  S_3
REMARK    3  A    between atoms: S_3  and  C_6
REMARK    4  A    between atoms: C_10  and  N_11
REMARK    5  A    between atoms: N_11  and  C_12
REMARK    6  A    between atoms: C_16  and  C_17
REMARK    7  A    between atoms: C_17  and  O_19
REMARK                            x       y       z     vdW  Elec       q    Type
REMARK                         _______ _______ _______ _____ _____    ______ ____
ROOT
ATOM      1  C   UNL     1       3.042   7.631  18.162  0.00  0.00    +0.000 A 
ATOM      2  N   UNL     1       3.908   7.342  17.161  0.00  0.00    +0.000 NA
ATOM      3  C   UNL     1       4.394   6.122  16.971  0.00  0.00    +0.000 A 
ATOM      4  C   UNL     1       5.258   5.945  15.913  0.00  0.00    +0.000 A 
ATOM      5  C   UNL     1       5.780   4.688  15.599  0.00  0.00    +0.000 A 
ATOM      6  C   UNL     1       5.471   3.581  16.395  0.00  0.00    +0.000 A 
ATOM      7  C   UNL     1       4.613   3.743  17.482  0.00  0.00    +0.000 A 
ATOM      8  C   UNL     1       4.068   5.018  17.768  0.00  0.00    +0.000 A 
ATOM      9  C   UNL     1       3.178   5.289  18.845  0.00  0.00    +0.000 A 
ATOM     10  S   UNL     1       2.577   4.159  20.014  0.00  0.00    +0.000 S 
ATOM     11  C   UNL     1       1.660   5.342  20.812  0.00  0.00    +0.000 A 
ATOM     12  C   UNL     1       1.797   6.578  20.223  0.00  0.00    +0.000 A 
ATOM     13  C   UNL     1       2.671   6.580  19.064  0.00  0.00    +0.000 A 
ENDROOT
BRANCH   1  14
ATOM     14  N   UNL     1       2.577   8.953  18.279  0.00  0.00    +0.000 N 
ATOM     15  H   UNL     1       3.290   9.644  18.101  0.00  0.00    +0.000 HD
BRANCH  14  20
ATOM     16  C   UNL     1      -0.324  10.637  20.015  0.00  0.00    +0.000 A 
ATOM     17  C   UNL     1      -1.294  10.566  19.016  0.00  0.00    +0.000 A 
ATOM     18  C   UNL     1      -0.984   9.932  17.822  0.00  0.00    +0.000 A 
ATOM     19  C   UNL     1       0.292   9.391  17.623  0.00  0.00    +0.000 A 
ATOM     20  C   UNL     1       1.305   9.488  18.596  0.00  0.00    +0.000 A 
ATOM     21  C   UNL     1       0.971  10.115  19.809  0.00  0.00    +0.000 A 
BRANCH  16  22
ATOM     22  S   UNL     1      -0.748  11.424  21.555  0.00  0.00    +0.000 S 
ATOM     23  O   UNL     1      -0.581  10.460  22.619  0.00  0.00    +0.000 OA
ATOM     24  O   UNL     1      -2.000  12.119  21.354  0.00  0.00    +0.000 OA
BRANCH  22  26
ATOM     25  C   UNL     1       0.056  13.959  22.041  0.00  0.00    +0.000 C 
ATOM     26  N   UNL     1       0.447  12.590  21.729  0.00  0.00    +0.000 NA
ATOM     27  H   UNL     1       1.298  12.231  22.160  0.00  0.00    +0.000 HD
ENDBRANCH  22  26
ENDBRANCH  16  22
ENDBRANCH  14  20
ENDBRANCH   1  14
BRANCH   5  28
ATOM     28  C   UNL     1       6.674   4.608  14.422  0.00  0.00    +0.000 C 
ATOM     29  O   UNL     1       7.544   5.431  14.199  0.00  0.00    +0.000 OA
BRANCH  28  30
ATOM     30  O   UNL     1       6.389   3.582  13.595  0.00  0.00    +0.000 OA
ATOM     31  H   UNL     1       6.542   3.757  12.648  0.00  0.00    +0.000 HD
ENDBRANCH  28  30
ENDBRANCH   5  28
TORSDOF 6
ENDMDL
