MODEL 1
REMARK VINA RESULT:      -7.8      0.000      0.000
REMARK  Name = 
REMARK  10 active torsions:
REMARK  status: ('A' for Active; 'I' for Inactive)
REMARK    1  A    between atoms: C_1  and  C_2
REMARK    2  A    between atoms: C_2  and  O_3
REMARK    3  A    between atoms: O_3  and  C_4
REMARK    4  A    between atoms: C_6  and  C_7
REMARK    5  A    between atoms: C_12  and  C_13
REMARK    6  A    between atoms: C_19  and  C_20
REMARK    7  A    between atoms: C_20  and  C_21
REMARK    8  A    between atoms: C_25  and  O_26
REMARK    9  A    between atoms: O_26  and  C_27
REMARK   10  A    between atoms: C_27  and  C_28
REMARK                            x       y       z     vdW  Elec       q    Type
REMARK                         _______ _______ _______ _____ _____    ______ ____
ROOT
ATOM      1  C   UNL     1       1.798   8.900  20.466  0.00  0.00    +0.000 C 
ATOM      2  N   UNL     1       1.185   8.946  21.775  0.00  0.00    +0.000 N 
ATOM      3  C   UNL     1      -0.150   9.111  21.954  0.00  0.00    +0.000 C 
ATOM      4  O   UNL     1      -0.692   8.867  23.026  0.00  0.00    +0.000 OA
ATOM      5  N   UNL     1      -0.836   9.577  20.875  0.00  0.00    +0.000 N 
ATOM      6  C   UNL     1      -0.275   9.950  19.672  0.00  0.00    +0.000 C 
ATOM      7  C   UNL     1       1.042   9.724  19.456  0.00  0.00    +0.000 C 
ATOM      8  H   UNL     1       1.653   8.506  22.555  0.00  0.00    +0.000 HD
ATOM      9  H   UNL     1      -1.828   9.726  21.029  0.00  0.00    +0.000 HD
ENDROOT
BRANCH   1  12
ATOM     10  C   UNL     1       2.766   5.741  18.457  0.00  0.00    +0.000 A 
ATOM     11  C   UNL     1       2.560   7.086  18.806  0.00  0.00    +0.000 A 
ATOM     12  C   UNL     1       1.936   7.450  20.018  0.00  0.00    +0.000 A 
ATOM     13  C   UNL     1       1.494   6.436  20.862  0.00  0.00    +0.000 A 
ATOM     14  C   UNL     1       1.647   5.106  20.498  0.00  0.00    +0.000 A 
ATOM     15  C   UNL     1       2.200   4.738  19.259  0.00  0.00    +0.000 A 
BRANCH  10  16
ATOM     16  O   UNL     1       3.507   5.382  17.358  0.00  0.00    +0.000 OA
BRANCH  16  18
ATOM     17  C   UNL     1       5.523   4.101  16.687  0.00  0.00    +0.000 C 
ATOM     18  C   UNL     1       4.921   5.190  17.571  0.00  0.00    +0.000 C 
ENDBRANCH  16  18
ENDBRANCH  10  16
BRANCH  15  19
ATOM     19  O   UNL     1       2.177   3.423  18.816  0.00  0.00    +0.000 OA
BRANCH  19  20
ATOM     20  C   UNL     1       2.721   2.519  19.778  0.00  0.00    +0.000 C 
BRANCH  20  21
ATOM     21  C   UNL     1       4.068   1.843  19.543  0.00  0.00    +0.000 C 
ATOM     22  N   UNL     1       4.176   1.022  18.470  0.00  0.00    +0.000 N 
ATOM     23  O   UNL     1       5.033   2.048  20.276  0.00  0.00    +0.000 OA
ATOM     24  H   UNL     1       3.364   0.765  17.925  0.00  0.00    +0.000 HD
ATOM     25  H   UNL     1       5.051   0.538  18.337  0.00  0.00    +0.000 HD
ENDBRANCH  20  21
ENDBRANCH  19  20
ENDBRANCH  15  19
ENDBRANCH   1  12
BRANCH   6  26
ATOM     26  C   UNL     1      -1.248  10.435  18.684  0.00  0.00    +0.000 A 
ATOM     27  C   UNL     1      -1.371   9.731  17.476  0.00  0.00    +0.000 A 
ATOM     28  C   UNL     1      -2.334  10.090  16.534  0.00  0.00    +0.000 A 
ATOM     29  C   UNL     1      -3.188  11.157  16.798  0.00  0.00    +0.000 A 
ATOM     30  C   UNL     1      -3.072  11.864  17.997  0.00  0.00    +0.000 A 
ATOM     31  C   UNL     1      -2.108  11.503  18.943  0.00  0.00    +0.000 A 
ENDBRANCH   6  26
BRANCH   7  32
ATOM     32  C   UNL     1       1.772  10.217  18.236  0.00  0.00    +0.000 C 
ATOM     33  C   UNL     1       2.206  11.664  18.144  0.00  0.00    +0.000 C 
ATOM     34  O   UNL     1       1.954   9.491  17.262  0.00  0.00    +0.000 OA
ENDBRANCH   7  32
TORSDOF 8
ENDMDL
MODEL 2
REMARK VINA RESULT:      -7.6      4.311      8.542
REMARK  Name = 
REMARK  10 active torsions:
REMARK  status: ('A' for Active; 'I' for Inactive)
REMARK    1  A    between atoms: C_1  and  C_2
REMARK    2  A    between atoms: C_2  and  O_3
REMARK    3  A    between atoms: O_3  and  C_4
REMARK    4  A    between atoms: C_6  and  C_7
REMARK    5  A    between atoms: C_12  and  C_13
REMARK    6  A    between atoms: C_19  and  C_20
REMARK    7  A    between atoms: C_20  and  C_21
REMARK    8  A    between atoms: C_25  and  O_26
REMARK    9  A    between atoms: O_26  and  C_27
REMARK   10  A    between atoms: C_27  and  C_28
REMARK                            x       y       z     vdW  Elec       q    Type
REMARK                         _______ _______ _______ _____ _____    ______ ____
ROOT
ATOM      1  C   UNL     1      -0.781  12.916  18.734  0.00  0.00    +0.000 C 
ATOM      2  N   UNL     1      -1.900  12.439  17.951  0.00  0.00    +0.000 N 
ATOM      3  C   UNL     1      -2.157  11.119  17.768  0.00  0.00    +0.000 C 
ATOM      4  O   UNL     1      -3.242  10.726  17.356  0.00  0.00    +0.000 OA
ATOM      5  N   UNL     1      -1.131  10.273  18.057  0.00  0.00    +0.000 N 
ATOM      6  C   UNL     1       0.136  10.657  18.442  0.00  0.00    +0.000 C 
ATOM      7  C   UNL     1       0.385  11.963  18.697  0.00  0.00    +0.000 C 
ATOM      8  H   UNL     1      -2.706  13.036  17.827  0.00  0.00    +0.000 HD
ATOM      9  H   UNL     1      -1.324   9.291  17.888  0.00  0.00    +0.000 HD
ENDROOT
BRANCH   1  12
ATOM     10  C   UNL     1      -1.503  12.513  22.512  0.00  0.00    +0.000 A 
ATOM     11  C   UNL     1      -1.170  12.214  21.180  0.00  0.00    +0.000 A 
ATOM     12  C   UNL     1      -1.238  13.189  20.163  0.00  0.00    +0.000 A 
ATOM     13  C   UNL     1      -1.674  14.466  20.501  0.00  0.00    +0.000 A 
ATOM     14  C   UNL     1      -2.054  14.753  21.804  0.00  0.00    +0.000 A 
ATOM     15  C   UNL     1      -2.061  13.767  22.806  0.00  0.00    +0.000 A 
BRANCH  10  16
ATOM     16  O   UNL     1      -1.293  11.618  23.531  0.00  0.00    +0.000 OA
BRANCH  16  18
ATOM     17  C   UNL     1       0.141   9.595  23.455  0.00  0.00    +0.000 C 
ATOM     18  C   UNL     1      -1.217  10.226  23.159  0.00  0.00    +0.000 C 
ENDBRANCH  16  18
ENDBRANCH  10  16
BRANCH  15  19
ATOM     19  O   UNL     1      -2.620  14.005  24.054  0.00  0.00    +0.000 OA
BRANCH  19  20
ATOM     20  C   UNL     1      -4.034  14.190  23.987  0.00  0.00    +0.000 C 
BRANCH  20  21
ATOM     21  C   UNL     1      -4.979  12.994  23.938  0.00  0.00    +0.000 C 
ATOM     22  N   UNL     1      -4.633  11.894  24.651  0.00  0.00    +0.000 N 
ATOM     23  O   UNL     1      -6.029  13.023  23.300  0.00  0.00    +0.000 OA
ATOM     24  H   UNL     1      -3.725  11.822  25.091  0.00  0.00    +0.000 HD
ATOM     25  H   UNL     1      -5.231  11.086  24.584  0.00  0.00    +0.000 HD
ENDBRANCH  20  21
ENDBRANCH  19  20
ENDBRANCH  15  19
ENDBRANCH   1  12
BRANCH   6  26
ATOM     26  C   UNL     1       1.055   9.534  18.673  0.00  0.00    +0.000 A 
ATOM     27  C   UNL     1       1.061   8.935  19.943  0.00  0.00    +0.000 A 
ATOM     28  C   UNL     1       1.846   7.813  20.200  0.00  0.00    +0.000 A 
ATOM     29  C   UNL     1       2.634   7.279  19.184  0.00  0.00    +0.000 A 
ATOM     30  C   UNL     1       2.636   7.870  17.919  0.00  0.00    +0.000 A 
ATOM     31  C   UNL     1       1.845   8.993  17.659  0.00  0.00    +0.000 A 
ENDBRANCH   6  26
BRANCH   7  32
ATOM     32  C   UNL     1       1.762  12.496  18.987  0.00  0.00    +0.000 C 
ATOM     33  C   UNL     1       2.126  12.936  20.389  0.00  0.00    +0.000 C 
ATOM     34  O   UNL     1       2.584  12.667  18.091  0.00  0.00    +0.000 OA
ENDBRANCH   7  32
TORSDOF 8
ENDMDL
MODEL 3
REMARK VINA RESULT:      -7.6      2.506      3.619
REMARK  Name = 
REMARK  10 active torsions:
REMARK  status: ('A' for Active; 'I' for Inactive)
REMARK    1  A    between atoms: C_1  and  C_2
REMARK    2  A    between atoms: C_2  and  O_3
REMARK    3  A    between atoms: O_3  and  C_4
REMARK    4  A    between atoms: C_6  and  C_7
REMARK    5  A    between atoms: C_12  and  C_13
REMARK    6  A    between atoms: C_19  and  C_20
REMARK    7  A    between atoms: C_20  and  C_21
REMARK    8  A    between atoms: C_25  and  O_26
REMARK    9  A    between atoms: O_26  and  C_27
REMARK   10  A    between atoms: C_27  and  C_28
REMARK                            x       y       z     vdW  Elec       q    Type
REMARK                         _______ _______ _______ _____ _____    ______ ____
ROOT
ATOM      1  C   UNL     1       0.872  10.686  18.065  0.00  0.00    +0.000 C 
ATOM      2  N   UNL     1       1.862  11.720  18.277  0.00  0.00    +0.000 N 
ATOM      3  C   UNL     1       1.842  12.544  19.354  0.00  0.00    +0.000 C 
ATOM      4  O   UNL     1       2.818  13.212  19.673  0.00  0.00    +0.000 OA
ATOM      5  N   UNL     1       0.666  12.590  20.039  0.00  0.00    +0.000 N 
ATOM      6  C   UNL     1      -0.492  11.932  19.683  0.00  0.00    +0.000 C 
ATOM      7  C   UNL     1      -0.465  11.052  18.654  0.00  0.00    +0.000 C 
ATOM      8  H   UNL     1       2.772  11.627  17.847  0.00  0.00    +0.000 HD
ATOM      9  H   UNL     1       0.652  13.233  20.824  0.00  0.00    +0.000 HD
ENDROOT
BRANCH   1  12
ATOM     10  C   UNL     1       2.670   7.278  18.392  0.00  0.00    +0.000 A 
ATOM     11  C   UNL     1       2.118   8.445  17.838  0.00  0.00    +0.000 A 
ATOM     12  C   UNL     1       1.388   9.364  18.620  0.00  0.00    +0.000 A 
ATOM     13  C   UNL     1       1.195   9.075  19.968  0.00  0.00    +0.000 A 
ATOM     14  C   UNL     1       1.693   7.898  20.509  0.00  0.00    +0.000 A 
ATOM     15  C   UNL     1       2.356   6.943  19.718  0.00  0.00    +0.000 A 
BRANCH  10  16
ATOM     16  O   UNL     1       3.510   6.461  17.676  0.00  0.00    +0.000 OA
BRANCH  16  18
ATOM     17  C   UNL     1       5.200   6.178  15.883  0.00  0.00    +0.000 C 
ATOM     18  C   UNL     1       4.513   7.115  16.872  0.00  0.00    +0.000 C 
ENDBRANCH  16  18
ENDBRANCH  10  16
BRANCH  15  19
ATOM     19  O   UNL     1       2.681   5.690  20.215  0.00  0.00    +0.000 OA
BRANCH  19  20
ATOM     20  C   UNL     1       1.527   4.953  20.623  0.00  0.00    +0.000 C 
BRANCH  20  21
ATOM     21  C   UNL     1       1.650   3.511  21.103  0.00  0.00    +0.000 C 
ATOM     22  N   UNL     1       1.219   2.534  20.267  0.00  0.00    +0.000 N 
ATOM     23  O   UNL     1       2.142   3.230  22.194  0.00  0.00    +0.000 OA
ATOM     24  H   UNL     1       0.719   2.758  19.417  0.00  0.00    +0.000 HD
ATOM     25  H   UNL     1       1.256   1.583  20.600  0.00  0.00    +0.000 HD
ENDBRANCH  20  21
ENDBRANCH  19  20
ENDBRANCH  15  19
ENDBRANCH   1  12
BRANCH   6  26
ATOM     26  C   UNL     1      -1.619  12.173  20.593  0.00  0.00    +0.000 A 
ATOM     27  C   UNL     1      -1.474  11.802  21.939  0.00  0.00    +0.000 A 
ATOM     28  C   UNL     1      -2.473  12.082  22.870  0.00  0.00    +0.000 A 
ATOM     29  C   UNL     1      -3.629  12.739  22.459  0.00  0.00    +0.000 A 
ATOM     30  C   UNL     1      -3.783  13.110  21.121  0.00  0.00    +0.000 A 
ATOM     31  C   UNL     1      -2.779  12.834  20.188  0.00  0.00    +0.000 A 
ENDBRANCH   6  26
BRANCH   7  32
ATOM     32  C   UNL     1      -1.700  10.391  18.106  0.00  0.00    +0.000 C 
ATOM     33  C   UNL     1      -2.389  10.962  16.885  0.00  0.00    +0.000 C 
ATOM     34  O   UNL     1      -2.223   9.437  18.677  0.00  0.00    +0.000 OA
ENDBRANCH   7  32
TORSDOF 8
ENDMDL
MODEL 4
REMARK VINA RESULT:      -7.5      2.543      3.725
REMARK  Name = 
REMARK  10 active torsions:
REMARK  status: ('A' for Active; 'I' for Inactive)
REMARK    1  A    between atoms: C_1  and  C_2
REMARK    2  A    between atoms: C_2  and  O_3
REMARK    3  A    between atoms: O_3  and  C_4
REMARK    4  A    between atoms: C_6  and  C_7
REMARK    5  A    between atoms: C_12  and  C_13
REMARK    6  A    between atoms: C_19  and  C_20
REMARK    7  A    between atoms: C_20  and  C_21
REMARK    8  A    between atoms: C_25  and  O_26
REMARK    9  A    between atoms: O_26  and  C_27
REMARK   10  A    between atoms: C_27  and  C_28
REMARK                            x       y       z     vdW  Elec       q    Type
REMARK                         _______ _______ _______ _____ _____    ______ ____
ROOT
ATOM      1  C   UNL     1       0.833  10.786  18.102  0.00  0.00    +0.000 C 
ATOM      2  N   UNL     1       1.860  11.790  18.277  0.00  0.00    +0.000 N 
ATOM      3  C   UNL     1       1.901  12.618  19.350  0.00  0.00    +0.000 C 
ATOM      4  O   UNL     1       2.908  13.257  19.633  0.00  0.00    +0.000 OA
ATOM      5  N   UNL     1       0.751  12.702  20.074  0.00  0.00    +0.000 N 
ATOM      6  C   UNL     1      -0.437  12.078  19.759  0.00  0.00    +0.000 C 
ATOM      7  C   UNL     1      -0.472  11.194  18.735  0.00  0.00    +0.000 C 
ATOM      8  H   UNL     1       2.752  11.668  17.817  0.00  0.00    +0.000 HD
ATOM      9  H   UNL     1       0.782  13.348  20.856  0.00  0.00    +0.000 HD
ENDROOT
BRANCH   1  12
ATOM     10  C   UNL     1       2.574   7.345  18.399  0.00  0.00    +0.000 A 
ATOM     11  C   UNL     1       2.041   8.526  17.855  0.00  0.00    +0.000 A 
ATOM     12  C   UNL     1       1.327   9.450  18.646  0.00  0.00    +0.000 A 
ATOM     13  C   UNL     1       1.131   9.154  19.992  0.00  0.00    +0.000 A 
ATOM     14  C   UNL     1       1.609   7.965  20.522  0.00  0.00    +0.000 A 
ATOM     15  C   UNL     1       2.255   7.005  19.723  0.00  0.00    +0.000 A 
BRANCH  10  16
ATOM     16  O   UNL     1       3.398   6.519  17.675  0.00  0.00    +0.000 OA
BRANCH  16  18
ATOM     17  C   UNL     1       5.193   6.320  15.975  0.00  0.00    +0.000 C 
ATOM     18  C   UNL     1       4.587   7.121  17.125  0.00  0.00    +0.000 C 
ENDBRANCH  16  18
ENDBRANCH  10  16
BRANCH  15  19
ATOM     19  O   UNL     1       2.560   5.742  20.210  0.00  0.00    +0.000 OA
BRANCH  19  20
ATOM     20  C   UNL     1       1.390   4.995  20.548  0.00  0.00    +0.000 C 
BRANCH  20  21
ATOM     21  C   UNL     1       1.490   3.533  20.970  0.00  0.00    +0.000 C 
ATOM     22  N   UNL     1       2.209   3.252  22.085  0.00  0.00    +0.000 N 
ATOM     23  O   UNL     1       0.922   2.638  20.347  0.00  0.00    +0.000 OA
ATOM     24  H   UNL     1       2.763   3.963  22.542  0.00  0.00    +0.000 HD
ATOM     25  H   UNL     1       2.315   2.283  22.340  0.00  0.00    +0.000 HD
ENDBRANCH  20  21
ENDBRANCH  19  20
ENDBRANCH  15  19
ENDBRANCH   1  12
BRANCH   6  26
ATOM     26  C   UNL     1      -1.526  12.356  20.705  0.00  0.00    +0.000 A 
ATOM     27  C   UNL     1      -2.645  13.065  20.238  0.00  0.00    +0.000 A 
ATOM     28  C   UNL     1      -3.747  13.286  21.062  0.00  0.00    +0.000 A 
ATOM     29  C   UNL     1      -3.738  12.796  22.365  0.00  0.00    +0.000 A 
ATOM     30  C   UNL     1      -2.630  12.093  22.839  0.00  0.00    +0.000 A 
ATOM     31  C   UNL     1      -1.526  11.867  22.012  0.00  0.00    +0.000 A 
ENDBRANCH   6  26
BRANCH   7  32
ATOM     32  C   UNL     1      -1.744  10.569  18.230  0.00  0.00    +0.000 C 
ATOM     33  C   UNL     1      -2.522  11.226  17.110  0.00  0.00    +0.000 C 
ATOM     34  O   UNL     1      -2.223   9.572  18.765  0.00  0.00    +0.000 OA
ENDBRANCH   7  32
TORSDOF 8
ENDMDL
MODEL 5
REMARK VINA RESULT:      -7.4      4.292      8.583
REMARK  Name = 
REMARK  10 active torsions:
REMARK  status: ('A' for Active; 'I' for Inactive)
REMARK    1  A    between atoms: C_1  and  C_2
REMARK    2  A    between atoms: C_2  and  O_3
REMARK    3  A    between atoms: O_3  and  C_4
REMARK    4  A    between atoms: C_6  and  C_7
REMARK    5  A    between atoms: C_12  and  C_13
REMARK    6  A    between atoms: C_19  and  C_20
REMARK    7  A    between atoms: C_20  and  C_21
REMARK    8  A    between atoms: C_25  and  O_26
REMARK    9  A    between atoms: O_26  and  C_27
REMARK   10  A    between atoms: C_27  and  C_28
REMARK                            x       y       z     vdW  Elec       q    Type
REMARK                         _______ _______ _______ _____ _____    ______ ____
ROOT
ATOM      1  C   UNL     1      -0.484  13.017  18.527  0.00  0.00    +0.000 C 
ATOM      2  N   UNL     1      -1.584  12.632  17.670  0.00  0.00    +0.000 N 
ATOM      3  C   UNL     1      -1.940  11.338  17.471  0.00  0.00    +0.000 C 
ATOM      4  O   UNL     1      -3.023  11.034  16.987  0.00  0.00    +0.000 OA
ATOM      5  N   UNL     1      -1.010  10.410  17.829  0.00  0.00    +0.000 N 
ATOM      6  C   UNL     1       0.256  10.688  18.297  0.00  0.00    +0.000 C 
ATOM      7  C   UNL     1       0.598  11.969  18.568  0.00  0.00    +0.000 C 
ATOM      8  H   UNL     1      -2.326  13.294  17.492  0.00  0.00    +0.000 HD
ATOM      9  H   UNL     1      -1.274   9.447  17.647  0.00  0.00    +0.000 HD
ENDROOT
BRANCH   1  12
ATOM     10  C   UNL     1      -1.340  12.763  22.290  0.00  0.00    +0.000 A 
ATOM     11  C   UNL     1      -0.940  12.416  20.988  0.00  0.00    +0.000 A 
ATOM     12  C   UNL     1      -1.011  13.336  19.921  0.00  0.00    +0.000 A 
ATOM     13  C   UNL     1      -1.519  14.606  20.178  0.00  0.00    +0.000 A 
ATOM     14  C   UNL     1      -1.964  14.937  21.450  0.00  0.00    +0.000 A 
ATOM     15  C   UNL     1      -1.967  14.001  22.499  0.00  0.00    +0.000 A 
BRANCH  10  16
ATOM     16  O   UNL     1      -1.131  11.928  23.359  0.00  0.00    +0.000 OA
BRANCH  16  18
ATOM     17  C   UNL     1      -0.068   9.687  23.320  0.00  0.00    +0.000 C 
ATOM     18  C   UNL     1      -1.332  10.519  23.125  0.00  0.00    +0.000 C 
ENDBRANCH  16  18
ENDBRANCH  10  16
BRANCH  15  19
ATOM     19  O   UNL     1      -2.586  14.271  23.711  0.00  0.00    +0.000 OA
BRANCH  19  20
ATOM     20  C   UNL     1      -4.010  14.259  23.606  0.00  0.00    +0.000 C 
BRANCH  20  21
ATOM     21  C   UNL     1      -4.827  13.105  24.179  0.00  0.00    +0.000 C 
ATOM     22  N   UNL     1      -6.150  13.317  24.384  0.00  0.00    +0.000 N 
ATOM     23  O   UNL     1      -4.321  12.012  24.425  0.00  0.00    +0.000 OA
ATOM     24  H   UNL     1      -6.552  14.239  24.284  0.00  0.00    +0.000 HD
ATOM     25  H   UNL     1      -6.683  12.573  24.805  0.00  0.00    +0.000 HD
ENDBRANCH  20  21
ENDBRANCH  19  20
ENDBRANCH  15  19
ENDBRANCH   1  12
BRANCH   6  26
ATOM     26  C   UNL     1       1.059   9.493  18.591  0.00  0.00    +0.000 A 
ATOM     27  C   UNL     1       1.888   8.987  17.576  0.00  0.00    +0.000 A 
ATOM     28  C   UNL     1       2.737   7.909  17.818  0.00  0.00    +0.000 A 
ATOM     29  C   UNL     1       2.766   7.328  19.082  0.00  0.00    +0.000 A 
ATOM     30  C   UNL     1       1.944   7.823  20.097  0.00  0.00    +0.000 A 
ATOM     31  C   UNL     1       1.095   8.907  19.856  0.00  0.00    +0.000 A 
ENDBRANCH   6  26
BRANCH   7  32
ATOM     32  C   UNL     1       1.992  12.386  18.951  0.00  0.00    +0.000 C 
ATOM     33  C   UNL     1       2.286  12.852  20.361  0.00  0.00    +0.000 C 
ATOM     34  O   UNL     1       2.894  12.441  18.118  0.00  0.00    +0.000 OA
ENDBRANCH   7  32
TORSDOF 8
ENDMDL
MODEL 6
REMARK VINA RESULT:      -7.4      1.172      2.188
REMARK  Name = 
REMARK  10 active torsions:
REMARK  status: ('A' for Active; 'I' for Inactive)
REMARK    1  A    between atoms: C_1  and  C_2
REMARK    2  A    between atoms: C_2  and  O_3
REMARK    3  A    between atoms: O_3  and  C_4
REMARK    4  A    between atoms: C_6  and  C_7
REMARK    5  A    between atoms: C_12  and  C_13
REMARK    6  A    between atoms: C_19  and  C_20
REMARK    7  A    between atoms: C_20  and  C_21
REMARK    8  A    between atoms: C_25  and  O_26
REMARK    9  A    between atoms: O_26  and  C_27
REMARK   10  A    between atoms: C_27  and  C_28
REMARK                            x       y       z     vdW  Elec       q    Type
REMARK                         _______ _______ _______ _____ _____    ______ ____
ROOT
ATOM      1  C   UNL     1       1.727   9.017  20.447  0.00  0.00    +0.000 C 
ATOM      2  N   UNL     1       1.051   8.875  21.718  0.00  0.00    +0.000 N 
ATOM      3  C   UNL     1      -0.300   8.898  21.836  0.00  0.00    +0.000 C 
ATOM      4  O   UNL     1      -0.865   8.498  22.848  0.00  0.00    +0.000 OA
ATOM      5  N   UNL     1      -0.977   9.405  20.770  0.00  0.00    +0.000 N 
ATOM      6  C   UNL     1      -0.398   9.948  19.642  0.00  0.00    +0.000 C 
ATOM      7  C   UNL     1       0.943   9.866  19.479  0.00  0.00    +0.000 C 
ATOM      8  H   UNL     1       1.523   8.403  22.477  0.00  0.00    +0.000 HD
ATOM      9  H   UNL     1      -1.985   9.446  20.882  0.00  0.00    +0.000 HD
ENDROOT
BRANCH   1  12
ATOM     10  C   UNL     1       1.857   5.186  19.936  0.00  0.00    +0.000 A 
ATOM     11  C   UNL     1       1.663   6.445  20.528  0.00  0.00    +0.000 A 
ATOM     12  C   UNL     1       2.025   7.639  19.869  0.00  0.00    +0.000 A 
ATOM     13  C   UNL     1       2.615   7.545  18.613  0.00  0.00    +0.000 A 
ATOM     14  C   UNL     1       2.858   6.302  18.045  0.00  0.00    +0.000 A 
ATOM     15  C   UNL     1       2.568   5.108  18.728  0.00  0.00    +0.000 A 
BRANCH  10  16
ATOM     16  O   UNL     1       1.368   4.035  20.501  0.00  0.00    +0.000 OA
BRANCH  16  18
ATOM     17  C   UNL     1       2.970   2.357  21.379  0.00  0.00    +0.000 C 
ATOM     18  C   UNL     1       2.060   3.547  21.669  0.00  0.00    +0.000 C 
ENDBRANCH  16  18
ENDBRANCH  10  16
BRANCH  15  19
ATOM     19  O   UNL     1       2.985   3.877  18.244  0.00  0.00    +0.000 OA
BRANCH  19  20
ATOM     20  C   UNL     1       4.152   3.982  17.428  0.00  0.00    +0.000 C 
BRANCH  20  21
ATOM     21  C   UNL     1       5.543   4.026  18.053  0.00  0.00    +0.000 C 
ATOM     22  N   UNL     1       6.602   4.130  17.214  0.00  0.00    +0.000 N 
ATOM     23  O   UNL     1       5.707   3.995  19.271  0.00  0.00    +0.000 OA
ATOM     24  H   UNL     1       6.485   4.050  16.213  0.00  0.00    +0.000 HD
ATOM     25  H   UNL     1       7.525   4.113  17.621  0.00  0.00    +0.000 HD
ENDBRANCH  20  21
ENDBRANCH  19  20
ENDBRANCH  15  19
ENDBRANCH   1  12
BRANCH   6  26
ATOM     26  C   UNL     1      -1.367  10.439  18.653  0.00  0.00    +0.000 A 
ATOM     27  C   UNL     1      -1.472   9.753  17.432  0.00  0.00    +0.000 A 
ATOM     28  C   UNL     1      -2.430  10.116  16.487  0.00  0.00    +0.000 A 
ATOM     29  C   UNL     1      -3.295  11.172  16.759  0.00  0.00    +0.000 A 
ATOM     30  C   UNL     1      -3.197  11.862  17.969  0.00  0.00    +0.000 A 
ATOM     31  C   UNL     1      -2.239  11.495  18.919  0.00  0.00    +0.000 A 
ENDBRANCH   6  26
BRANCH   7  32
ATOM     32  C   UNL     1       1.678  10.545  18.356  0.00  0.00    +0.000 C 
ATOM     33  C   UNL     1       1.998  12.022  18.439  0.00  0.00    +0.000 C 
ATOM     34  O   UNL     1       1.955   9.946  17.319  0.00  0.00    +0.000 OA
ENDBRANCH   7  32
TORSDOF 8
ENDMDL
MODEL 7
REMARK VINA RESULT:      -7.3      4.238      8.731
REMARK  Name = 
REMARK  10 active torsions:
REMARK  status: ('A' for Active; 'I' for Inactive)
REMARK    1  A    between atoms: C_1  and  C_2
REMARK    2  A    between atoms: C_2  and  O_3
REMARK    3  A    between atoms: O_3  and  C_4
REMARK    4  A    between atoms: C_6  and  C_7
REMARK    5  A    between atoms: C_12  and  C_13
REMARK    6  A    between atoms: C_19  and  C_20
REMARK    7  A    between atoms: C_20  and  C_21
REMARK    8  A    between atoms: C_25  and  O_26
REMARK    9  A    between atoms: O_26  and  C_27
REMARK   10  A    between atoms: C_27  and  C_28
REMARK                            x       y       z     vdW  Elec       q    Type
REMARK                         _______ _______ _______ _____ _____    ______ ____
ROOT
ATOM      1  C   UNL     1      -0.684  12.870  18.697  0.00  0.00    +0.000 C 
ATOM      2  N   UNL     1      -1.821  12.396  17.938  0.00  0.00    +0.000 N 
ATOM      3  C   UNL     1      -2.100  11.078  17.782  0.00  0.00    +0.000 C 
ATOM      4  O   UNL     1      -3.196  10.693  17.392  0.00  0.00    +0.000 OA
ATOM      5  N   UNL     1      -1.082  10.222  18.069  0.00  0.00    +0.000 N 
ATOM      6  C   UNL     1       0.196  10.593  18.429  0.00  0.00    +0.000 C 
ATOM      7  C   UNL     1       0.468  11.899  18.658  0.00  0.00    +0.000 C 
ATOM      8  H   UNL     1      -2.620  13.003  17.816  0.00  0.00    +0.000 HD
ATOM      9  H   UNL     1      -1.292   9.240  17.920  0.00  0.00    +0.000 HD
ENDROOT
BRANCH   1  12
ATOM     10  C   UNL     1      -1.367  12.535  22.489  0.00  0.00    +0.000 A 
ATOM     11  C   UNL     1      -1.059  12.210  21.157  0.00  0.00    +0.000 A 
ATOM     12  C   UNL     1      -1.115  13.173  20.127  0.00  0.00    +0.000 A 
ATOM     13  C   UNL     1      -1.515  14.465  20.454  0.00  0.00    +0.000 A 
ATOM     14  C   UNL     1      -1.870  14.778  21.758  0.00  0.00    +0.000 A 
ATOM     15  C   UNL     1      -1.889  13.806  22.773  0.00  0.00    +0.000 A 
BRANCH  10  16
ATOM     16  O   UNL     1      -1.166  11.648  23.517  0.00  0.00    +0.000 OA
BRANCH  16  18
ATOM     17  C   UNL     1       0.173   9.561  23.442  0.00  0.00    +0.000 C 
ATOM     18  C   UNL     1      -1.162  10.248  23.168  0.00  0.00    +0.000 C 
ENDBRANCH  16  18
ENDBRANCH  10  16
BRANCH  15  19
ATOM     19  O   UNL     1      -2.425  14.075  24.024  0.00  0.00    +0.000 OA
BRANCH  19  20
ATOM     20  C   UNL     1      -2.181  15.419  24.441  0.00  0.00    +0.000 C 
BRANCH  20  21
ATOM     21  C   UNL     1      -1.007  15.754  25.353  0.00  0.00    +0.000 C 
ATOM     22  N   UNL     1      -1.207  15.658  26.691  0.00  0.00    +0.000 N 
ATOM     23  O   UNL     1       0.092  16.075  24.904  0.00  0.00    +0.000 OA
ATOM     24  H   UNL     1      -2.130  15.499  27.070  0.00  0.00    +0.000 HD
ATOM     25  H   UNL     1      -0.447  15.923  27.298  0.00  0.00    +0.000 HD
ENDBRANCH  20  21
ENDBRANCH  19  20
ENDBRANCH  15  19
ENDBRANCH   1  12
BRANCH   6  26
ATOM     26  C   UNL     1       1.102   9.461  18.666  0.00  0.00    +0.000 A 
ATOM     27  C   UNL     1       1.107   8.872  19.940  0.00  0.00    +0.000 A 
ATOM     28  C   UNL     1       1.879   7.743  20.203  0.00  0.00    +0.000 A 
ATOM     29  C   UNL     1       2.655   7.190  19.188  0.00  0.00    +0.000 A 
ATOM     30  C   UNL     1       2.658   7.770  17.917  0.00  0.00    +0.000 A 
ATOM     31  C   UNL     1       1.880   8.901  17.652  0.00  0.00    +0.000 A 
ENDBRANCH   6  26
BRANCH   7  32
ATOM     32  C   UNL     1       1.856  12.416  18.920  0.00  0.00    +0.000 C 
ATOM     33  C   UNL     1       2.206  13.006  20.269  0.00  0.00    +0.000 C 
ATOM     34  O   UNL     1       2.704  12.452  18.031  0.00  0.00    +0.000 OA
ENDBRANCH   7  32
TORSDOF 8
ENDMDL
MODEL 8
REMARK VINA RESULT:      -7.3      2.714      4.426
REMARK  Name = 
REMARK  10 active torsions:
REMARK  status: ('A' for Active; 'I' for Inactive)
REMARK    1  A    between atoms: C_1  and  C_2
REMARK    2  A    between atoms: C_2  and  O_3
REMARK    3  A    between atoms: O_3  and  C_4
REMARK    4  A    between atoms: C_6  and  C_7
REMARK    5  A    between atoms: C_12  and  C_13
REMARK    6  A    between atoms: C_19  and  C_20
REMARK    7  A    between atoms: C_20  and  C_21
REMARK    8  A    between atoms: C_25  and  O_26
REMARK    9  A    between atoms: O_26  and  C_27
REMARK   10  A    between atoms: C_27  and  C_28
REMARK                            x       y       z     vdW  Elec       q    Type
REMARK                         _______ _______ _______ _____ _____    ______ ____
ROOT
ATOM      1  C   UNL     1      -0.612  10.203  19.566  0.00  0.00    +0.000 C 
ATOM      2  N   UNL     1      -1.602  10.109  18.515  0.00  0.00    +0.000 N 
ATOM      3  C   UNL     1      -1.659  10.986  17.481  0.00  0.00    +0.000 C 
ATOM      4  O   UNL     1      -2.300  10.743  16.465  0.00  0.00    +0.000 OA
ATOM      5  N   UNL     1      -0.976  12.149  17.657  0.00  0.00    +0.000 N 
ATOM      6  C   UNL     1      -0.309  12.518  18.806  0.00  0.00    +0.000 C 
ATOM      7  C   UNL     1      -0.183  11.625  19.816  0.00  0.00    +0.000 C 
ATOM      8  H   UNL     1      -2.032   9.215  18.320  0.00  0.00    +0.000 HD
ATOM      9  H   UNL     1      -1.050  12.811  16.891  0.00  0.00    +0.000 HD
ENDROOT
BRANCH   1  12
ATOM     10  C   UNL     1       2.090   7.441  19.746  0.00  0.00    +0.000 A 
ATOM     11  C   UNL     1       1.058   8.321  20.113  0.00  0.00    +0.000 A 
ATOM     12  C   UNL     1       0.576   9.309  19.229  0.00  0.00    +0.000 A 
ATOM     13  C   UNL     1       1.170   9.418  17.975  0.00  0.00    +0.000 A 
ATOM     14  C   UNL     1       2.225   8.587  17.627  0.00  0.00    +0.000 A 
ATOM     15  C   UNL     1       2.759   7.652  18.531  0.00  0.00    +0.000 A 
BRANCH  10  16
ATOM     16  O   UNL     1       2.457   6.383  20.539  0.00  0.00    +0.000 OA
BRANCH  16  18
ATOM     17  C   UNL     1       2.113   4.040  21.278  0.00  0.00    +0.000 C 
ATOM     18  C   UNL     1       1.526   5.284  20.616  0.00  0.00    +0.000 C 
ENDBRANCH  16  18
ENDBRANCH  10  16
BRANCH  15  19
ATOM     19  O   UNL     1       3.929   6.960  18.252  0.00  0.00    +0.000 OA
BRANCH  19  20
ATOM     20  C   UNL     1       3.676   5.688  17.653  0.00  0.00    +0.000 C 
BRANCH  20  21
ATOM     21  C   UNL     1       4.470   4.455  18.071  0.00  0.00    +0.000 C 
ATOM     22  N   UNL     1       4.695   3.508  17.128  0.00  0.00    +0.000 N 
ATOM     23  O   UNL     1       4.915   4.326  19.210  0.00  0.00    +0.000 OA
ATOM     24  H   UNL     1       4.246   3.554  16.224  0.00  0.00    +0.000 HD
ATOM     25  H   UNL     1       5.180   2.670  17.413  0.00  0.00    +0.000 HD
ENDBRANCH  20  21
ENDBRANCH  19  20
ENDBRANCH  15  19
ENDBRANCH   1  12
BRANCH   6  26
ATOM     26  C   UNL     1       0.330  13.839  18.728  0.00  0.00    +0.000 A 
ATOM     27  C   UNL     1      -0.448  14.969  19.026  0.00  0.00    +0.000 A 
ATOM     28  C   UNL     1       0.119  16.241  19.053  0.00  0.00    +0.000 A 
ATOM     29  C   UNL     1       1.477  16.392  18.783  0.00  0.00    +0.000 A 
ATOM     30  C   UNL     1       2.258  15.274  18.484  0.00  0.00    +0.000 A 
ATOM     31  C   UNL     1       1.690  13.997  18.461  0.00  0.00    +0.000 A 
ENDBRANCH   6  26
BRANCH   7  32
ATOM     32  C   UNL     1       0.403  11.976  21.156  0.00  0.00    +0.000 C 
ATOM     33  C   UNL     1      -0.482  12.527  22.253  0.00  0.00    +0.000 C 
ATOM     34  O   UNL     1       1.613  11.908  21.363  0.00  0.00    +0.000 OA
ENDBRANCH   7  32
TORSDOF 8
ENDMDL
MODEL 9
REMARK VINA RESULT:      -7.2      2.769      4.501
REMARK  Name = 
REMARK  10 active torsions:
REMARK  status: ('A' for Active; 'I' for Inactive)
REMARK    1  A    between atoms: C_1  and  C_2
REMARK    2  A    between atoms: C_2  and  O_3
REMARK    3  A    between atoms: O_3  and  C_4
REMARK    4  A    between atoms: C_6  and  C_7
REMARK    5  A    between atoms: C_12  and  C_13
REMARK    6  A    between atoms: C_19  and  C_20
REMARK    7  A    between atoms: C_20  and  C_21
REMARK    8  A    between atoms: C_25  and  O_26
REMARK    9  A    between atoms: O_26  and  C_27
REMARK   10  A    between atoms: C_27  and  C_28
REMARK                            x       y       z     vdW  Elec       q    Type
REMARK                         _______ _______ _______ _____ _____    ______ ____
ROOT
ATOM      1  C   UNL     1      -0.680  10.417  19.560  0.00  0.00    +0.000 C 
ATOM      2  N   UNL     1      -1.643  10.353  18.483  0.00  0.00    +0.000 N 
ATOM      3  C   UNL     1      -1.635  11.220  17.439  0.00  0.00    +0.000 C 
ATOM      4  O   UNL     1      -2.257  10.993  16.408  0.00  0.00    +0.000 OA
ATOM      5  N   UNL     1      -0.908  12.356  17.623  0.00  0.00    +0.000 N 
ATOM      6  C   UNL     1      -0.259  12.709  18.787  0.00  0.00    +0.000 C 
ATOM      7  C   UNL     1      -0.199  11.824  19.809  0.00  0.00    +0.000 C 
ATOM      8  H   UNL     1      -2.105   9.476  18.285  0.00  0.00    +0.000 HD
ATOM      9  H   UNL     1      -0.934  13.012  16.849  0.00  0.00    +0.000 HD
ENDROOT
BRANCH   1  12
ATOM     10  C   UNL     1       1.928   7.578  19.866  0.00  0.00    +0.000 A 
ATOM     11  C   UNL     1       0.925   8.506  20.192  0.00  0.00    +0.000 A 
ATOM     12  C   UNL     1       0.479   9.472  19.266  0.00  0.00    +0.000 A 
ATOM     13  C   UNL     1       1.080   9.510  18.011  0.00  0.00    +0.000 A 
ATOM     14  C   UNL     1       2.108   8.630  17.702  0.00  0.00    +0.000 A 
ATOM     15  C   UNL     1       2.608   7.716  18.646  0.00  0.00    +0.000 A 
BRANCH  10  16
ATOM     16  O   UNL     1       2.257   6.541  20.703  0.00  0.00    +0.000 OA
BRANCH  16  18
ATOM     17  C   UNL     1       2.173   4.112  21.199  0.00  0.00    +0.000 C 
ATOM     18  C   UNL     1       1.513   5.317  20.535  0.00  0.00    +0.000 C 
ENDBRANCH  16  18
ENDBRANCH  10  16
BRANCH  15  19
ATOM     19  O   UNL     1       3.755   6.974  18.401  0.00  0.00    +0.000 OA
BRANCH  19  20
ATOM     20  C   UNL     1       3.528   5.920  17.464  0.00  0.00    +0.000 C 
BRANCH  20  21
ATOM     21  C   UNL     1       3.843   4.472  17.825  0.00  0.00    +0.000 C 
ATOM     22  N   UNL     1       5.067   4.210  18.345  0.00  0.00    +0.000 N 
ATOM     23  O   UNL     1       3.017   3.573  17.679  0.00  0.00    +0.000 OA
ATOM     24  H   UNL     1       5.787   4.919  18.370  0.00  0.00    +0.000 HD
ATOM     25  H   UNL     1       5.295   3.247  18.542  0.00  0.00    +0.000 HD
ENDBRANCH  20  21
ENDBRANCH  19  20
ENDBRANCH  15  19
ENDBRANCH   1  12
BRANCH   6  26
ATOM     26  C   UNL     1       0.436  14.002  18.714  0.00  0.00    +0.000 A 
ATOM     27  C   UNL     1       1.811  13.998  18.431  0.00  0.00    +0.000 A 
ATOM     28  C   UNL     1       2.510  15.192  18.264  0.00  0.00    +0.000 A 
ATOM     29  C   UNL     1       1.834  16.404  18.377  0.00  0.00    +0.000 A 
ATOM     30  C   UNL     1       0.467  16.418  18.660  0.00  0.00    +0.000 A 
ATOM     31  C   UNL     1      -0.235  15.220  18.824  0.00  0.00    +0.000 A 
ENDBRANCH   6  26
BRANCH   7  32
ATOM     32  C   UNL     1       0.365  12.165  21.161  0.00  0.00    +0.000 C 
ATOM     33  C   UNL     1      -0.532  12.745  22.234  0.00  0.00    +0.000 C 
ATOM     34  O   UNL     1       1.566  12.064  21.397  0.00  0.00    +0.000 OA
ENDBRANCH   7  32
TORSDOF 8
ENDMDL
