MODEL 1
REMARK VINA RESULT:      -8.7      0.000      0.000
REMARK  Name = 
REMARK  7 active torsions:
REMARK  status: ('A' for Active; 'I' for Inactive)
REMARK    1  A    between atoms: C_1  and  O_2
REMARK    2  A    between atoms: O_2  and  C_3
REMARK    3  A    between atoms: C_7  and  N_8
REMARK    4  A    between atoms: N_8  and  C_9
REMARK    5  A    between atoms: C_16  and  N_17
REMARK    6  A    between atoms: N_20  and  C_21
REMARK    7  A    between atoms: C_25  and  C_26
REMARK                            x       y       z     vdW  Elec       q    Type
REMARK                         _______ _______ _______ _____ _____    ______ ____
ROOT
ATOM      1  C   UNL     1       6.852   6.117  16.805  0.00  0.00    +0.000 A 
ATOM      2  N   UNL     1       7.779   6.046  17.771  0.00  0.00    +0.000 NA
ATOM      3  C   UNL     1       7.468   5.120  18.677  0.00  0.00    +0.000 A 
ATOM      4  N   UNL     1       6.275   4.517  18.745  0.00  0.00    +0.000 NA
ATOM      5  C   UNL     1       5.275   5.115  18.081  0.00  0.00    +0.000 A 
ATOM      6  C   UNL     1       3.980   4.771  18.415  0.00  0.00    +0.000 A 
ATOM      7  C   UNL     1       2.893   5.648  18.290  0.00  0.00    +0.000 A 
ATOM      8  C   UNL     1       3.045   6.964  17.894  0.00  0.00    +0.000 A 
ATOM      9  C   UNL     1       4.340   7.220  17.314  0.00  0.00    +0.000 A 
ATOM     10  C   UNL     1       5.470   6.177  17.230  0.00  0.00    +0.000 A 
ENDROOT
BRANCH   8  11
ATOM     11  N   UNL     1       1.958   7.941  18.186  0.00  0.00    +0.000 N 
ATOM     12  C   UNL     1       1.578   8.402  19.504  0.00  0.00    +0.000 C 
ATOM     13  O   UNL     1       1.991   7.886  20.535  0.00  0.00    +0.000 OA
ATOM     14  N   UNL     1       0.666   9.488  19.535  0.00  0.00    +0.000 N 
ATOM     15  H   UNL     1       1.441   8.293  17.395  0.00  0.00    +0.000 HD
ATOM     16  H   UNL     1       0.417   9.921  18.659  0.00  0.00    +0.000 HD
BRANCH  14  17
ATOM     17  C   UNL     1       0.074  10.119  20.727  0.00  0.00    +0.000 A 
ATOM     18  C   UNL     1      -0.201   9.454  21.930  0.00  0.00    +0.000 A 
ATOM     19  C   UNL     1      -0.801  10.104  23.036  0.00  0.00    +0.000 A 
ATOM     20  C   UNL     1      -1.153  11.452  22.979  0.00  0.00    +0.000 A 
ATOM     21  C   UNL     1      -0.891  12.163  21.813  0.00  0.00    +0.000 A 
ATOM     22  C   UNL     1      -0.277  11.499  20.701  0.00  0.00    +0.000 A 
BRANCH  21  23
ATOM     23  C   UNL     1      -1.248  13.565  21.699  0.00  0.00    +0.000 C 
ATOM     24  N   UNL     1      -1.491  14.699  21.677  0.00  0.00    +0.000 NA
ENDBRANCH  21  23
ENDBRANCH  14  17
ENDBRANCH   8  11
BRANCH   1  25
ATOM     25  N   UNL     1       7.389   5.251  15.765  0.00  0.00    +0.000 N 
ATOM     26  H   UNL     1       7.552   4.381  16.281  0.00  0.00    +0.000 HD
BRANCH  25  31
ATOM     27  C   UNL     1       5.937   3.575  12.689  0.00  0.00    +0.000 A 
ATOM     28  C   UNL     1       6.708   4.191  11.704  0.00  0.00    +0.000 A 
ATOM     29  C   UNL     1       7.708   5.100  12.048  0.00  0.00    +0.000 A 
ATOM     30  C   UNL     1       7.937   5.455  13.382  0.00  0.00    +0.000 A 
ATOM     31  C   UNL     1       7.155   4.921  14.399  0.00  0.00    +0.000 A 
ATOM     32  C   UNL     1       6.175   3.924  14.033  0.00  0.00    +0.000 A 
BRANCH  27  34
ATOM     33  C   UNL     1       4.098   3.099  11.174  0.00  0.00    +0.000 C 
ATOM     34  O   UNL     1       5.036   2.694  12.159  0.00  0.00    +0.000 OA
ENDBRANCH  27  34
ENDBRANCH  25  31
ENDBRANCH   1  25
TORSDOF 6
ENDMDL
MODEL 2
REMARK VINA RESULT:      -8.2      4.912      7.870
REMARK  Name = 
REMARK  7 active torsions:
REMARK  status: ('A' for Active; 'I' for Inactive)
REMARK    1  A    between atoms: C_1  and  O_2
REMARK    2  A    between atoms: O_2  and  C_3
REMARK    3  A    between atoms: C_7  and  N_8
REMARK    4  A    between atoms: N_8  and  C_9
REMARK    5  A    between atoms: C_16  and  N_17
REMARK    6  A    between atoms: N_20  and  C_21
REMARK    7  A    between atoms: C_25  and  C_26
REMARK                            x       y       z     vdW  Elec       q    Type
REMARK                         _______ _______ _______ _____ _____    ______ ____
ROOT
ATOM      1  C   UNL     1       4.949   5.494  16.236  0.00  0.00    +0.000 A 
ATOM      2  N   UNL     1       5.272   5.100  14.995  0.00  0.00    +0.000 NA
ATOM      3  C   UNL     1       6.212   4.155  15.012  0.00  0.00    +0.000 A 
ATOM      4  N   UNL     1       6.911   3.823  16.104  0.00  0.00    +0.000 NA
ATOM      5  C   UNL     1       6.879   4.704  17.114  0.00  0.00    +0.000 A 
ATOM      6  C   UNL     1       7.856   4.610  18.086  0.00  0.00    +0.000 A 
ATOM      7  C   UNL     1       8.323   5.711  18.818  0.00  0.00    +0.000 A 
ATOM      8  C   UNL     1       7.896   7.001  18.567  0.00  0.00    +0.000 A 
ATOM      9  C   UNL     1       6.713   7.042  17.746  0.00  0.00    +0.000 A 
ATOM     10  C   UNL     1       6.046   5.797  17.129  0.00  0.00    +0.000 A 
ENDROOT
BRANCH   8  11
ATOM     11  N   UNL     1       8.716   8.145  19.058  0.00  0.00    +0.000 N 
ATOM     12  C   UNL     1       8.707   9.482  18.501  0.00  0.00    +0.000 C 
ATOM     13  O   UNL     1       8.161   9.758  17.441  0.00  0.00    +0.000 OA
ATOM     14  N   UNL     1       9.400  10.465  19.254  0.00  0.00    +0.000 N 
ATOM     15  H   UNL     1       9.335   7.961  19.833  0.00  0.00    +0.000 HD
ATOM     16  H   UNL     1       9.768  10.197  20.154  0.00  0.00    +0.000 HD
BRANCH  14  17
ATOM     17  C   UNL     1       9.597  11.881  18.901  0.00  0.00    +0.000 A 
ATOM     18  C   UNL     1      10.328  12.334  17.794  0.00  0.00    +0.000 A 
ATOM     19  C   UNL     1      10.512  13.712  17.519  0.00  0.00    +0.000 A 
ATOM     20  C   UNL     1       9.969  14.693  18.348  0.00  0.00    +0.000 A 
ATOM     21  C   UNL     1       9.224  14.298  19.453  0.00  0.00    +0.000 A 
ATOM     22  C   UNL     1       9.037  12.903  19.720  0.00  0.00    +0.000 A 
BRANCH  21  23
ATOM     23  C   UNL     1       8.647  15.280  20.352  0.00  0.00    +0.000 C 
ATOM     24  N   UNL     1       8.160  16.106  21.005  0.00  0.00    +0.000 NA
ENDBRANCH  21  23
ENDBRANCH  14  17
ENDBRANCH   8  11
BRANCH   1  25
ATOM     25  N   UNL     1       3.791   4.672  16.555  0.00  0.00    +0.000 N 
ATOM     26  H   UNL     1       4.070   3.762  16.177  0.00  0.00    +0.000 HD
BRANCH  25  31
ATOM     27  C   UNL     1       1.921   5.162  19.816  0.00  0.00    +0.000 A 
ATOM     28  C   UNL     1       1.133   4.011  19.807  0.00  0.00    +0.000 A 
ATOM     29  C   UNL     1       1.248   3.079  18.777  0.00  0.00    +0.000 A 
ATOM     30  C   UNL     1       2.120   3.290  17.702  0.00  0.00    +0.000 A 
ATOM     31  C   UNL     1       2.880   4.450  17.627  0.00  0.00    +0.000 A 
ATOM     32  C   UNL     1       2.806   5.369  18.740  0.00  0.00    +0.000 A 
BRANCH  27  34
ATOM     33  C   UNL     1       1.492   7.334  20.818  0.00  0.00    +0.000 C 
ATOM     34  O   UNL     1       1.690   5.932  20.922  0.00  0.00    +0.000 OA
ENDBRANCH  27  34
ENDBRANCH  25  31
ENDBRANCH   1  25
TORSDOF 6
ENDMDL
MODEL 3
REMARK VINA RESULT:      -8.2      1.005      1.040
REMARK  Name = 
REMARK  7 active torsions:
REMARK  status: ('A' for Active; 'I' for Inactive)
REMARK    1  A    between atoms: C_1  and  O_2
REMARK    2  A    between atoms: O_2  and  C_3
REMARK    3  A    between atoms: C_7  and  N_8
REMARK    4  A    between atoms: N_8  and  C_9
REMARK    5  A    between atoms: C_16  and  N_17
REMARK    6  A    between atoms: N_20  and  C_21
REMARK    7  A    between atoms: C_25  and  C_26
REMARK                            x       y       z     vdW  Elec       q    Type
REMARK                         _______ _______ _______ _____ _____    ______ ____
ROOT
ATOM      1  C   UNL     1       6.228   6.089  16.938  0.00  0.00    +0.000 A 
ATOM      2  N   UNL     1       7.286   6.208  17.753  0.00  0.00    +0.000 NA
ATOM      3  C   UNL     1       7.116   5.512  18.877  0.00  0.00    +0.000 A 
ATOM      4  N   UNL     1       5.949   4.971  19.246  0.00  0.00    +0.000 NA
ATOM      5  C   UNL     1       4.859   5.434  18.617  0.00  0.00    +0.000 A 
ATOM      6  C   UNL     1       3.629   5.207  19.201  0.00  0.00    +0.000 A 
ATOM      7  C   UNL     1       2.530   6.063  19.041  0.00  0.00    +0.000 A 
ATOM      8  C   UNL     1       2.615   7.255  18.347  0.00  0.00    +0.000 A 
ATOM      9  C   UNL     1       3.810   7.343  17.545  0.00  0.00    +0.000 A 
ATOM     10  C   UNL     1       4.923   6.277  17.533  0.00  0.00    +0.000 A 
ENDROOT
BRANCH   8  11
ATOM     11  N   UNL     1       1.577   8.301  18.568  0.00  0.00    +0.000 N 
ATOM     12  C   UNL     1       1.311   8.965  19.826  0.00  0.00    +0.000 C 
ATOM     13  O   UNL     1       1.792   8.595  20.889  0.00  0.00    +0.000 OA
ATOM     14  N   UNL     1       0.429  10.075  19.761  0.00  0.00    +0.000 N 
ATOM     15  H   UNL     1       1.007   8.550  17.773  0.00  0.00    +0.000 HD
ATOM     16  H   UNL     1       0.122  10.380  18.850  0.00  0.00    +0.000 HD
BRANCH  14  17
ATOM     17  C   UNL     1      -0.054  10.895  20.884  0.00  0.00    +0.000 A 
ATOM     18  C   UNL     1      -0.912  10.439  21.895  0.00  0.00    +0.000 A 
ATOM     19  C   UNL     1      -1.371  11.282  22.937  0.00  0.00    +0.000 A 
ATOM     20  C   UNL     1      -0.988  12.621  23.006  0.00  0.00    +0.000 A 
ATOM     21  C   UNL     1      -0.127  13.121  22.035  0.00  0.00    +0.000 A 
ATOM     22  C   UNL     1       0.338  12.260  20.988  0.00  0.00    +0.000 A 
BRANCH  21  23
ATOM     23  C   UNL     1       0.293  14.510  22.056  0.00  0.00    +0.000 C 
ATOM     24  N   UNL     1       0.705  15.594  22.062  0.00  0.00    +0.000 NA
ENDBRANCH  21  23
ENDBRANCH  14  17
ENDBRANCH   8  11
BRANCH   1  25
ATOM     25  N   UNL     1       6.612   5.002  16.050  0.00  0.00    +0.000 N 
ATOM     26  H   UNL     1       6.134   4.203  16.478  0.00  0.00    +0.000 HD
BRANCH  25  31
ATOM     27  C   UNL     1       6.143   3.408  12.642  0.00  0.00    +0.000 A 
ATOM     28  C   UNL     1       7.081   4.139  11.913  0.00  0.00    +0.000 A 
ATOM     29  C   UNL     1       7.876   5.099  12.538  0.00  0.00    +0.000 A 
ATOM     30  C   UNL     1       7.726   5.389  13.899  0.00  0.00    +0.000 A 
ATOM     31  C   UNL     1       6.763   4.738  14.658  0.00  0.00    +0.000 A 
ATOM     32  C   UNL     1       6.000   3.693  14.014  0.00  0.00    +0.000 A 
BRANCH  27  34
ATOM     33  C   UNL     1       6.187   1.448  11.207  0.00  0.00    +0.000 C 
ATOM     34  O   UNL     1       5.489   2.494  11.864  0.00  0.00    +0.000 OA
ENDBRANCH  27  34
ENDBRANCH  25  31
ENDBRANCH   1  25
TORSDOF 6
ENDMDL
MODEL 4
REMARK VINA RESULT:      -8.2      2.041      2.881
REMARK  Name = 
REMARK  7 active torsions:
REMARK  status: ('A' for Active; 'I' for Inactive)
REMARK    1  A    between atoms: C_1  and  O_2
REMARK    2  A    between atoms: O_2  and  C_3
REMARK    3  A    between atoms: C_7  and  N_8
REMARK    4  A    between atoms: N_8  and  C_9
REMARK    5  A    between atoms: C_16  and  N_17
REMARK    6  A    between atoms: N_20  and  C_21
REMARK    7  A    between atoms: C_25  and  C_26
REMARK                            x       y       z     vdW  Elec       q    Type
REMARK                         _______ _______ _______ _____ _____    ______ ____
ROOT
ATOM      1  C   UNL     1       4.691   4.090  18.600  0.00  0.00    +0.000 A 
ATOM      2  N   UNL     1       5.215   3.017  19.211  0.00  0.00    +0.000 NA
ATOM      3  C   UNL     1       4.271   2.139  19.548  0.00  0.00    +0.000 A 
ATOM      4  N   UNL     1       2.960   2.403  19.504  0.00  0.00    +0.000 NA
ATOM      5  C   UNL     1       2.623   3.699  19.432  0.00  0.00    +0.000 A 
ATOM      6  C   UNL     1       1.329   4.051  19.762  0.00  0.00    +0.000 A 
ATOM      7  C   UNL     1       0.983   5.298  20.301  0.00  0.00    +0.000 A 
ATOM      8  C   UNL     1       1.929   6.254  20.620  0.00  0.00    +0.000 A 
ATOM      9  C   UNL     1       3.217   5.973  20.039  0.00  0.00    +0.000 A 
ATOM     10  C   UNL     1       3.541   4.702  19.231  0.00  0.00    +0.000 A 
ENDROOT
BRANCH   8  11
ATOM     11  N   UNL     1       1.563   7.351  21.560  0.00  0.00    +0.000 N 
ATOM     12  C   UNL     1       0.872   8.571  21.197  0.00  0.00    +0.000 C 
ATOM     13  O   UNL     1       0.686   8.910  20.036  0.00  0.00    +0.000 OA
ATOM     14  N   UNL     1       0.436   9.376  22.281  0.00  0.00    +0.000 N 
ATOM     15  H   UNL     1       1.835   7.232  22.524  0.00  0.00    +0.000 HD
ATOM     16  H   UNL     1       0.551   9.012  23.215  0.00  0.00    +0.000 HD
BRANCH  14  17
ATOM     17  C   UNL     1      -0.238  10.682  22.204  0.00  0.00    +0.000 A 
ATOM     18  C   UNL     1       0.195  11.760  21.419  0.00  0.00    +0.000 A 
ATOM     19  C   UNL     1      -0.477  13.008  21.406  0.00  0.00    +0.000 A 
ATOM     20  C   UNL     1      -1.612  13.226  22.187  0.00  0.00    +0.000 A 
ATOM     21  C   UNL     1      -2.091  12.185  22.975  0.00  0.00    +0.000 A 
ATOM     22  C   UNL     1      -1.410  10.924  22.976  0.00  0.00    +0.000 A 
BRANCH  21  23
ATOM     23  C   UNL     1      -3.263  12.365  23.813  0.00  0.00    +0.000 C 
ATOM     24  N   UNL     1      -4.149  12.506  24.548  0.00  0.00    +0.000 NA
ENDBRANCH  21  23
ENDBRANCH  14  17
ENDBRANCH   8  11
BRANCH   1  25
ATOM     25  N   UNL     1       4.816   3.762  17.188  0.00  0.00    +0.000 N 
ATOM     26  H   UNL     1       3.836   3.729  16.893  0.00  0.00    +0.000 HD
BRANCH  25  31
ATOM     27  C   UNL     1       6.084   3.916  13.618  0.00  0.00    +0.000 A 
ATOM     28  C   UNL     1       7.198   4.735  13.802  0.00  0.00    +0.000 A 
ATOM     29  C   UNL     1       7.545   5.187  15.075  0.00  0.00    +0.000 A 
ATOM     30  C   UNL     1       6.765   4.872  16.193  0.00  0.00    +0.000 A 
ATOM     31  C   UNL     1       5.609   4.115  16.058  0.00  0.00    +0.000 A 
ATOM     32  C   UNL     1       5.305   3.590  14.746  0.00  0.00    +0.000 A 
BRANCH  27  34
ATOM     33  C   UNL     1       4.667   3.141  11.802  0.00  0.00    +0.000 C 
ATOM     34  O   UNL     1       5.928   3.550  12.310  0.00  0.00    +0.000 OA
ENDBRANCH  27  34
ENDBRANCH  25  31
ENDBRANCH   1  25
TORSDOF 6
ENDMDL
MODEL 5
REMARK VINA RESULT:      -8.2      2.641      4.188
REMARK  Name = 
REMARK  7 active torsions:
REMARK  status: ('A' for Active; 'I' for Inactive)
REMARK    1  A    between atoms: C_1  and  O_2
REMARK    2  A    between atoms: O_2  and  C_3
REMARK    3  A    between atoms: C_7  and  N_8
REMARK    4  A    between atoms: N_8  and  C_9
REMARK    5  A    between atoms: C_16  and  N_17
REMARK    6  A    between atoms: N_20  and  C_21
REMARK    7  A    between atoms: C_25  and  C_26
REMARK                            x       y       z     vdW  Elec       q    Type
REMARK                         _______ _______ _______ _____ _____    ______ ____
ROOT
ATOM      1  C   UNL     1       3.370   3.863  19.230  0.00  0.00    +0.000 A 
ATOM      2  N   UNL     1       2.465   2.937  18.879  0.00  0.00    +0.000 NA
ATOM      3  C   UNL     1       1.695   3.364  17.878  0.00  0.00    +0.000 A 
ATOM      4  N   UNL     1       1.668   4.632  17.450  0.00  0.00    +0.000 NA
ATOM      5  C   UNL     1       2.191   5.545  18.280  0.00  0.00    +0.000 A 
ATOM      6  C   UNL     1       1.858   6.870  18.079  0.00  0.00    +0.000 A 
ATOM      7  C   UNL     1       1.805   7.817  19.112  0.00  0.00    +0.000 A 
ATOM      8  C   UNL     1       2.006   7.479  20.437  0.00  0.00    +0.000 A 
ATOM      9  C   UNL     1       2.595   6.173  20.590  0.00  0.00    +0.000 A 
ATOM     10  C   UNL     1       2.882   5.211  19.421  0.00  0.00    +0.000 A 
ENDROOT
BRANCH   8  11
ATOM     11  N   UNL     1       1.525   8.403  21.503  0.00  0.00    +0.000 N 
ATOM     12  C   UNL     1       0.663   9.547  21.294  0.00  0.00    +0.000 C 
ATOM     13  O   UNL     1       0.395   9.984  20.183  0.00  0.00    +0.000 OA
ATOM     14  N   UNL     1       0.158  10.158  22.471  0.00  0.00    +0.000 N 
ATOM     15  H   UNL     1       1.842   8.216  22.442  0.00  0.00    +0.000 HD
ATOM     16  H   UNL     1       0.351   9.712  23.355  0.00  0.00    +0.000 HD
BRANCH  14  17
ATOM     17  C   UNL     1      -0.690  11.358  22.556  0.00  0.00    +0.000 A 
ATOM     18  C   UNL     1      -0.367  12.606  22.004  0.00  0.00    +0.000 A 
ATOM     19  C   UNL     1      -1.208  13.738  22.143  0.00  0.00    +0.000 A 
ATOM     20  C   UNL     1      -2.410  13.664  22.846  0.00  0.00    +0.000 A 
ATOM     21  C   UNL     1      -2.784  12.446  23.404  0.00  0.00    +0.000 A 
ATOM     22  C   UNL     1      -1.932  11.304  23.252  0.00  0.00    +0.000 A 
BRANCH  21  23
ATOM     23  C   UNL     1      -4.020  12.320  24.154  0.00  0.00    +0.000 C 
ATOM     24  N   UNL     1      -4.984  12.143  24.776  0.00  0.00    +0.000 NA
ENDBRANCH  21  23
ENDBRANCH  14  17
ENDBRANCH   8  11
BRANCH   1  25
ATOM     25  N   UNL     1       4.549   3.482  18.466  0.00  0.00    +0.000 N 
ATOM     26  H   UNL     1       4.360   2.495  18.267  0.00  0.00    +0.000 HD
BRANCH  25  31
ATOM     27  C   UNL     1       7.025   5.694  16.636  0.00  0.00    +0.000 A 
ATOM     28  C   UNL     1       7.004   5.080  15.384  0.00  0.00    +0.000 A 
ATOM     29  C   UNL     1       6.163   3.995  15.138  0.00  0.00    +0.000 A 
ATOM     30  C   UNL     1       5.354   3.462  16.148  0.00  0.00    +0.000 A 
ATOM     31  C   UNL     1       5.384   3.994  17.431  0.00  0.00    +0.000 A 
ATOM     32  C   UNL     1       6.202   5.165  17.649  0.00  0.00    +0.000 A 
BRANCH  27  34
ATOM     33  C   UNL     1       7.578   7.930  17.408  0.00  0.00    +0.000 C 
ATOM     34  O   UNL     1       7.884   6.758  16.670  0.00  0.00    +0.000 OA
ENDBRANCH  27  34
ENDBRANCH  25  31
ENDBRANCH   1  25
TORSDOF 6
ENDMDL
MODEL 6
REMARK VINA RESULT:      -8.1      5.267      8.644
REMARK  Name = 
REMARK  7 active torsions:
REMARK  status: ('A' for Active; 'I' for Inactive)
REMARK    1  A    between atoms: C_1  and  O_2
REMARK    2  A    between atoms: O_2  and  C_3
REMARK    3  A    between atoms: C_7  and  N_8
REMARK    4  A    between atoms: N_8  and  C_9
REMARK    5  A    between atoms: C_16  and  N_17
REMARK    6  A    between atoms: N_20  and  C_21
REMARK    7  A    between atoms: C_25  and  C_26
REMARK                            x       y       z     vdW  Elec       q    Type
REMARK                         _______ _______ _______ _____ _____    ______ ____
ROOT
ATOM      1  C   UNL     1       4.597   5.000  16.450  0.00  0.00    +0.000 A 
ATOM      2  N   UNL     1       4.971   4.253  15.400  0.00  0.00    +0.000 NA
ATOM      3  C   UNL     1       6.141   3.654  15.621  0.00  0.00    +0.000 A 
ATOM      4  N   UNL     1       6.947   3.953  16.646  0.00  0.00    +0.000 NA
ATOM      5  C   UNL     1       6.705   5.118  17.266  0.00  0.00    +0.000 A 
ATOM      6  C   UNL     1       7.704   5.652  18.055  0.00  0.00    +0.000 A 
ATOM      7  C   UNL     1       7.866   7.029  18.267  0.00  0.00    +0.000 A 
ATOM      8  C   UNL     1       7.079   7.972  17.633  0.00  0.00    +0.000 A 
ATOM      9  C   UNL     1       5.903   7.397  17.031  0.00  0.00    +0.000 A 
ATOM     10  C   UNL     1       5.596   5.887  17.006  0.00  0.00    +0.000 A 
ENDROOT
BRANCH   8  11
ATOM     11  N   UNL     1       7.557   9.382  17.556  0.00  0.00    +0.000 N 
ATOM     12  C   UNL     1       8.708   9.916  18.252  0.00  0.00    +0.000 C 
ATOM     13  O   UNL     1       9.299   9.302  19.130  0.00  0.00    +0.000 OA
ATOM     14  N   UNL     1       9.106  11.223  17.868  0.00  0.00    +0.000 N 
ATOM     15  H   UNL     1       7.019  10.012  16.980  0.00  0.00    +0.000 HD
ATOM     16  H   UNL     1       8.630  11.651  17.089  0.00  0.00    +0.000 HD
BRANCH  14  17
ATOM     17  C   UNL     1      10.200  12.024  18.442  0.00  0.00    +0.000 A 
ATOM     18  C   UNL     1      10.966  11.650  19.555  0.00  0.00    +0.000 A 
ATOM     19  C   UNL     1      11.988  12.476  20.085  0.00  0.00    +0.000 A 
ATOM     20  C   UNL     1      12.282  13.716  19.518  0.00  0.00    +0.000 A 
ATOM     21  C   UNL     1      11.561  14.130  18.404  0.00  0.00    +0.000 A 
ATOM     22  C   UNL     1      10.534  13.285  17.870  0.00  0.00    +0.000 A 
BRANCH  21  23
ATOM     23  C   UNL     1      11.822  15.416  17.784  0.00  0.00    +0.000 C 
ATOM     24  N   UNL     1      12.007  16.411  17.217  0.00  0.00    +0.000 NA
ENDBRANCH  21  23
ENDBRANCH  14  17
ENDBRANCH   8  11
BRANCH   1  25
ATOM     25  N   UNL     1       3.735   4.105  17.206  0.00  0.00    +0.000 N 
ATOM     26  H   UNL     1       4.290   3.244  17.223  0.00  0.00    +0.000 HD
BRANCH  25  31
ATOM     27  C   UNL     1       1.787   5.393  20.192  0.00  0.00    +0.000 A 
ATOM     28  C   UNL     1       1.301   4.185  20.692  0.00  0.00    +0.000 A 
ATOM     29  C   UNL     1       1.644   2.976  20.087  0.00  0.00    +0.000 A 
ATOM     30  C   UNL     1       2.443   2.942  18.938  0.00  0.00    +0.000 A 
ATOM     31  C   UNL     1       2.899   4.119  18.360  0.00  0.00    +0.000 A 
ATOM     32  C   UNL     1       2.600   5.358  19.043  0.00  0.00    +0.000 A 
BRANCH  27  34
ATOM     33  C   UNL     1       1.707   7.791  20.578  0.00  0.00    +0.000 C 
ATOM     34  O   UNL     1       1.371   6.460  20.939  0.00  0.00    +0.000 OA
ENDBRANCH  27  34
ENDBRANCH  25  31
ENDBRANCH   1  25
TORSDOF 6
ENDMDL
MODEL 7
REMARK VINA RESULT:      -8.1      1.926      2.185
REMARK  Name = 
REMARK  7 active torsions:
REMARK  status: ('A' for Active; 'I' for Inactive)
REMARK    1  A    between atoms: C_1  and  O_2
REMARK    2  A    between atoms: O_2  and  C_3
REMARK    3  A    between atoms: C_7  and  N_8
REMARK    4  A    between atoms: N_8  and  C_9
REMARK    5  A    between atoms: C_16  and  N_17
REMARK    6  A    between atoms: N_20  and  C_21
REMARK    7  A    between atoms: C_25  and  C_26
REMARK                            x       y       z     vdW  Elec       q    Type
REMARK                         _______ _______ _______ _____ _____    ______ ____
ROOT
ATOM      1  C   UNL     1       6.216   5.593  16.560  0.00  0.00    +0.000 A 
ATOM      2  N   UNL     1       7.462   5.764  17.028  0.00  0.00    +0.000 NA
ATOM      3  C   UNL     1       7.669   5.050  18.134  0.00  0.00    +0.000 A 
ATOM      4  N   UNL     1       6.694   4.440  18.819  0.00  0.00    +0.000 NA
ATOM      5  C   UNL     1       5.444   4.847  18.553  0.00  0.00    +0.000 A 
ATOM      6  C   UNL     1       4.456   4.545  19.469  0.00  0.00    +0.000 A 
ATOM      7  C   UNL     1       3.317   5.340  19.664  0.00  0.00    +0.000 A 
ATOM      8  C   UNL     1       3.131   6.541  19.005  0.00  0.00    +0.000 A 
ATOM      9  C   UNL     1       4.028   6.703  17.889  0.00  0.00    +0.000 A 
ATOM     10  C   UNL     1       5.139   5.702  17.520  0.00  0.00    +0.000 A 
ENDROOT
BRANCH   8  11
ATOM     11  N   UNL     1       2.153   7.524  19.551  0.00  0.00    +0.000 N 
ATOM     12  C   UNL     1       1.783   8.774  18.923  0.00  0.00    +0.000 C 
ATOM     13  O   UNL     1       2.384   9.242  17.965  0.00  0.00    +0.000 OA
ATOM     14  N   UNL     1       0.680   9.451  19.505  0.00  0.00    +0.000 N 
ATOM     15  H   UNL     1       1.729   7.297  20.438  0.00  0.00    +0.000 HD
ATOM     16  H   UNL     1       0.177   8.985  20.245  0.00  0.00    +0.000 HD
BRANCH  14  17
ATOM     17  C   UNL     1       0.126  10.756  19.108  0.00  0.00    +0.000 A 
ATOM     18  C   UNL     1      -1.162  10.954  18.591  0.00  0.00    +0.000 A 
ATOM     19  C   UNL     1      -1.633  12.230  18.195  0.00  0.00    +0.000 A 
ATOM     20  C   UNL     1      -0.827  13.363  18.300  0.00  0.00    +0.000 A 
ATOM     21  C   UNL     1       0.456  13.225  18.819  0.00  0.00    +0.000 A 
ATOM     22  C   UNL     1       0.922  11.932  19.224  0.00  0.00    +0.000 A 
BRANCH  21  23
ATOM     23  C   UNL     1       1.338  14.371  18.940  0.00  0.00    +0.000 C 
ATOM     24  N   UNL     1       1.986  15.323  19.083  0.00  0.00    +0.000 NA
ENDBRANCH  21  23
ENDBRANCH  14  17
ENDBRANCH   8  11
BRANCH   1  25
ATOM     25  N   UNL     1       6.375   4.537  15.571  0.00  0.00    +0.000 N 
ATOM     26  H   UNL     1       5.806   3.786  15.974  0.00  0.00    +0.000 HD
BRANCH  25  31
ATOM     27  C   UNL     1       5.429   3.355  12.095  0.00  0.00    +0.000 A 
ATOM     28  C   UNL     1       6.449   3.956  11.359  0.00  0.00    +0.000 A 
ATOM     29  C   UNL     1       7.446   4.693  11.998  0.00  0.00    +0.000 A 
ATOM     30  C   UNL     1       7.427   4.890  13.383  0.00  0.00    +0.000 A 
ATOM     31  C   UNL     1       6.398   4.369  14.156  0.00  0.00    +0.000 A 
ATOM     32  C   UNL     1       5.416   3.543  13.491  0.00  0.00    +0.000 A 
BRANCH  27  34
ATOM     33  C   UNL     1       3.507   3.288  10.609  0.00  0.00    +0.000 C 
ATOM     34  O   UNL     1       4.570   2.649  11.298  0.00  0.00    +0.000 OA
ENDBRANCH  27  34
ENDBRANCH  25  31
ENDBRANCH   1  25
TORSDOF 6
ENDMDL
MODEL 8
REMARK VINA RESULT:      -8.1      5.641      7.955
REMARK  Name = 
REMARK  7 active torsions:
REMARK  status: ('A' for Active; 'I' for Inactive)
REMARK    1  A    between atoms: C_1  and  O_2
REMARK    2  A    between atoms: O_2  and  C_3
REMARK    3  A    between atoms: C_7  and  N_8
REMARK    4  A    between atoms: N_8  and  C_9
REMARK    5  A    between atoms: C_16  and  N_17
REMARK    6  A    between atoms: N_20  and  C_21
REMARK    7  A    between atoms: C_25  and  C_26
REMARK                            x       y       z     vdW  Elec       q    Type
REMARK                         _______ _______ _______ _____ _____    ______ ____
ROOT
ATOM      1  C   UNL     1       5.740   6.649  16.299  0.00  0.00    +0.000 A 
ATOM      2  N   UNL     1       6.208   5.745  15.425  0.00  0.00    +0.000 NA
ATOM      3  C   UNL     1       6.989   4.847  16.025  0.00  0.00    +0.000 A 
ATOM      4  N   UNL     1       7.439   4.973  17.279  0.00  0.00    +0.000 NA
ATOM      5  C   UNL     1       7.362   6.201  17.812  0.00  0.00    +0.000 A 
ATOM      6  C   UNL     1       8.138   6.476  18.921  0.00  0.00    +0.000 A 
ATOM      7  C   UNL     1       8.625   7.755  19.223  0.00  0.00    +0.000 A 
ATOM      8  C   UNL     1       8.434   8.837  18.384  0.00  0.00    +0.000 A 
ATOM      9  C   UNL     1       7.424   8.590  17.386  0.00  0.00    +0.000 A 
ATOM     10  C   UNL     1       6.702   7.241  17.202  0.00  0.00    +0.000 A 
ENDROOT
BRANCH   8  11
ATOM     11  N   UNL     1       9.312  10.032  18.528  0.00  0.00    +0.000 N 
ATOM     12  C   UNL     1       9.011  11.359  18.032  0.00  0.00    +0.000 C 
ATOM     13  O   UNL     1       8.081  11.589  17.271  0.00  0.00    +0.000 OA
ATOM     14  N   UNL     1       9.884  12.390  18.466  0.00  0.00    +0.000 N 
ATOM     15  H   UNL     1      10.193   9.894  19.000  0.00  0.00    +0.000 HD
ATOM     16  H   UNL     1      10.587  12.155  19.150  0.00  0.00    +0.000 HD
BRANCH  14  17
ATOM     17  C   UNL     1       9.846  13.809  18.078  0.00  0.00    +0.000 A 
ATOM     18  C   UNL     1      10.838  14.461  17.332  0.00  0.00    +0.000 A 
ATOM     19  C   UNL     1      10.765  15.839  17.013  0.00  0.00    +0.000 A 
ATOM     20  C   UNL     1       9.691  16.623  17.434  0.00  0.00    +0.000 A 
ATOM     21  C   UNL     1       8.673  16.024  18.167  0.00  0.00    +0.000 A 
ATOM     22  C   UNL     1       8.750  14.627  18.479  0.00  0.00    +0.000 A 
BRANCH  21  23
ATOM     23  C   UNL     1       7.539  16.798  18.637  0.00  0.00    +0.000 C 
ATOM     24  N   UNL     1       6.584  17.362  18.976  0.00  0.00    +0.000 NA
ENDBRANCH  21  23
ENDBRANCH  14  17
ENDBRANCH   8  11
BRANCH   1  25
ATOM     25  N   UNL     1       4.440   6.109  16.670  0.00  0.00    +0.000 N 
ATOM     26  H   UNL     1       4.372   5.289  16.060  0.00  0.00    +0.000 HD
BRANCH  25  31
ATOM     27  C   UNL     1       2.582   4.249  19.402  0.00  0.00    +0.000 A 
ATOM     28  C   UNL     1       2.059   5.332  20.107  0.00  0.00    +0.000 A 
ATOM     29  C   UNL     1       2.277   6.638  19.668  0.00  0.00    +0.000 A 
ATOM     30  C   UNL     1       3.061   6.901  18.539  0.00  0.00    +0.000 A 
ATOM     31  C   UNL     1       3.660   5.863  17.837  0.00  0.00    +0.000 A 
ATOM     32  C   UNL     1       3.361   4.513  18.259  0.00  0.00    +0.000 A 
BRANCH  27  34
ATOM     33  C   UNL     1       1.676   2.004  19.190  0.00  0.00    +0.000 C 
ATOM     34  O   UNL     1       2.232   3.053  19.967  0.00  0.00    +0.000 OA
ENDBRANCH  27  34
ENDBRANCH  25  31
ENDBRANCH   1  25
TORSDOF 6
ENDMDL
MODEL 9
REMARK VINA RESULT:      -8.1      5.136      7.691
REMARK  Name = 
REMARK  7 active torsions:
REMARK  status: ('A' for Active; 'I' for Inactive)
REMARK    1  A    between atoms: C_1  and  O_2
REMARK    2  A    between atoms: O_2  and  C_3
REMARK    3  A    between atoms: C_7  and  N_8
REMARK    4  A    between atoms: N_8  and  C_9
REMARK    5  A    between atoms: C_16  and  N_17
REMARK    6  A    between atoms: N_20  and  C_21
REMARK    7  A    between atoms: C_25  and  C_26
REMARK                            x       y       z     vdW  Elec       q    Type
REMARK                         _______ _______ _______ _____ _____    ______ ____
ROOT
ATOM      1  C   UNL     1       5.216   5.937  16.160  0.00  0.00    +0.000 A 
ATOM      2  N   UNL     1       5.615   5.315  15.041  0.00  0.00    +0.000 NA
ATOM      3  C   UNL     1       6.444   4.307  15.313  0.00  0.00    +0.000 A 
ATOM      4  N   UNL     1       6.992   4.100  16.516  0.00  0.00    +0.000 NA
ATOM      5  C   UNL     1       6.955   5.136  17.366  0.00  0.00    +0.000 A 
ATOM      6  C   UNL     1       7.815   5.119  18.446  0.00  0.00    +0.000 A 
ATOM      7  C   UNL     1       8.322   6.281  19.047  0.00  0.00    +0.000 A 
ATOM      8  C   UNL     1       8.061   7.544  18.550  0.00  0.00    +0.000 A 
ATOM      9  C   UNL     1       6.975   7.552  17.602  0.00  0.00    +0.000 A 
ATOM     10  C   UNL     1       6.245   6.286  17.114  0.00  0.00    +0.000 A 
ENDROOT
BRANCH   8  11
ATOM     11  N   UNL     1       8.945   8.677  18.947  0.00  0.00    +0.000 N 
ATOM     12  C   UNL     1       8.813  10.043  18.488  0.00  0.00    +0.000 C 
ATOM     13  O   UNL     1       8.070  10.369  17.571  0.00  0.00    +0.000 OA
ATOM     14  N   UNL     1       9.624  10.996  19.156  0.00  0.00    +0.000 N 
ATOM     15  H   UNL     1       9.702   8.461  19.577  0.00  0.00    +0.000 HD
ATOM     16  H   UNL     1      10.161  10.685  19.951  0.00  0.00    +0.000 HD
BRANCH  14  17
ATOM     17  C   UNL     1       9.732  12.435  18.862  0.00  0.00    +0.000 A 
ATOM     18  C   UNL     1      10.684  13.007  18.006  0.00  0.00    +0.000 A 
ATOM     19  C   UNL     1      10.761  14.404  17.783  0.00  0.00    +0.000 A 
ATOM     20  C   UNL     1       9.886  15.287  18.415  0.00  0.00    +0.000 A 
ATOM     21  C   UNL     1       8.914  14.771  19.265  0.00  0.00    +0.000 A 
ATOM     22  C   UNL     1       8.838  13.356  19.479  0.00  0.00    +0.000 A 
BRANCH  21  23
ATOM     23  C   UNL     1       7.987  15.649  19.955  0.00  0.00    +0.000 C 
ATOM     24  N   UNL     1       7.248  16.298  20.569  0.00  0.00    +0.000 NA
ENDBRANCH  21  23
ENDBRANCH  14  17
ENDBRANCH   8  11
BRANCH   1  25
ATOM     25  N   UNL     1       3.951   5.285  16.468  0.00  0.00    +0.000 N 
ATOM     26  H   UNL     1       3.593   5.070  15.533  0.00  0.00    +0.000 HD
BRANCH  25  31
ATOM     27  C   UNL     1       2.356   3.820  19.580  0.00  0.00    +0.000 A 
ATOM     28  C   UNL     1       2.404   2.466  19.250  0.00  0.00    +0.000 A 
ATOM     29  C   UNL     1       2.987   2.046  18.055  0.00  0.00    +0.000 A 
ATOM     30  C   UNL     1       3.496   2.968  17.134  0.00  0.00    +0.000 A 
ATOM     31  C   UNL     1       3.415   4.332  17.382  0.00  0.00    +0.000 A 
ATOM     32  C   UNL     1       2.879   4.748  18.658  0.00  0.00    +0.000 A 
BRANCH  27  34
ATOM     33  C   UNL     1       1.766   3.016  21.796  0.00  0.00    +0.000 C 
ATOM     34  O   UNL     1       1.781   4.029  20.803  0.00  0.00    +0.000 OA
ENDBRANCH  27  34
ENDBRANCH  25  31
ENDBRANCH   1  25
TORSDOF 6
ENDMDL
