MODEL 1
REMARK VINA RESULT:      -7.7      0.000      0.000
REMARK  Name = 
REMARK  9 active torsions:
REMARK  status: ('A' for Active; 'I' for Inactive)
REMARK    1  A    between atoms: C_1  and  N_2
REMARK    2  A    between atoms: N_2  and  C_3
REMARK    3  A    between atoms: C_3  and  C_4
REMARK    4  A    between atoms: C_3  and  C_21
REMARK    5  A    between atoms: C_4  and  O_5
REMARK    6  A    between atoms: O_5  and  C_6
REMARK    7  A    between atoms: C_11  and  C_12
REMARK    8  A    between atoms: C_13  and  C_14
REMARK    9  A    between atoms: C_21  and  C_22
REMARK                            x       y       z     vdW  Elec       q    Type
REMARK                         _______ _______ _______ _____ _____    ______ ____
ROOT
ATOM      1  C   UNL     1       2.531   6.024  19.057  0.00  0.00    +0.000 A 
ATOM      2  C   UNL     1       2.219   5.034  19.977  0.00  0.00    +0.000 A 
ATOM      3  N   UNL     1       2.574   3.732  19.841  0.00  0.00    +0.000 NA
ATOM      4  C   UNL     1       3.266   3.404  18.723  0.00  0.00    +0.000 A 
ATOM      5 CL   UNL     1       3.617   1.720  18.635  0.00  0.00    +0.000 Cl
ATOM      6  C   UNL     1       3.642   4.310  17.728  0.00  0.00    +0.000 A 
ATOM      7  C   UNL     1       3.273   5.645  17.940  0.00  0.00    +0.000 A 
ENDROOT
BRANCH   6   8
ATOM      8  C   UNL     1       4.430   3.948  16.529  0.00  0.00    +0.000 C 
ATOM      9  C   UNL     1       4.976   4.852  15.695  0.00  0.00    +0.000 C 
BRANCH   9  10
ATOM     10  C   UNL     1       5.763   4.532  14.495  0.00  0.00    +0.000 A 
ATOM     11  C   UNL     1       5.270   3.725  13.468  0.00  0.00    +0.000 A 
ATOM     12  C   UNL     1       6.052   3.539  12.339  0.00  0.00    +0.000 A 
ATOM     13  N   UNL     1       7.268   4.096  12.164  0.00  0.00    +0.000 NA
ATOM     14  C   UNL     1       7.724   4.877  13.165  0.00  0.00    +0.000 A 
ATOM     15  C   UNL     1       7.019   5.124  14.333  0.00  0.00    +0.000 A 
ENDBRANCH   9  10
ENDBRANCH   6   8
BRANCH   1  16
ATOM     16  O   UNL     1       2.078   7.289  19.311  0.00  0.00    +0.000 OA
BRANCH  16  17
ATOM     17  C   UNL     1       2.120   8.198  18.202  0.00  0.00    +0.000 C 
BRANCH  17  18
ATOM     18  C   UNL     1       1.771   9.650  18.612  0.00  0.00    +0.000 C 
BRANCH  18  20
ATOM     19  C   UNL     1       2.437  11.965  18.077  0.00  0.00    +0.000 C 
ATOM     20  N   UNL     1       2.006  10.672  17.565  0.00  0.00    +0.000 NA
ATOM     21  H   UNL     1       2.691  10.339  16.888  0.00  0.00    +0.000 HD
ENDBRANCH  18  20
BRANCH  18  22
ATOM     22  C   UNL     1       0.259   9.729  18.973  0.00  0.00    +0.000 C 
BRANCH  22  23
ATOM     23  C   UNL     1      -0.064  10.014  20.424  0.00  0.00    +0.000 A 
ATOM     24  C   UNL     1      -0.326  11.322  20.855  0.00  0.00    +0.000 A 
ATOM     25  C   UNL     1      -0.660  11.577  22.186  0.00  0.00    +0.000 A 
ATOM     26  C   UNL     1      -0.740  10.530  23.101  0.00  0.00    +0.000 A 
ATOM     27  C   UNL     1      -0.484   9.223  22.686  0.00  0.00    +0.000 A 
ATOM     28  C   UNL     1      -0.151   8.966  21.354  0.00  0.00    +0.000 A 
ENDBRANCH  22  23
ENDBRANCH  18  22
ENDBRANCH  17  18
ENDBRANCH  16  17
ENDBRANCH   1  16
TORSDOF 8
ENDMDL
MODEL 2
REMARK VINA RESULT:      -7.7      2.433      8.841
REMARK  Name = 
REMARK  9 active torsions:
REMARK  status: ('A' for Active; 'I' for Inactive)
REMARK    1  A    between atoms: C_1  and  N_2
REMARK    2  A    between atoms: N_2  and  C_3
REMARK    3  A    between atoms: C_3  and  C_4
REMARK    4  A    between atoms: C_3  and  C_21
REMARK    5  A    between atoms: C_4  and  O_5
REMARK    6  A    between atoms: O_5  and  C_6
REMARK    7  A    between atoms: C_11  and  C_12
REMARK    8  A    between atoms: C_13  and  C_14
REMARK    9  A    between atoms: C_21  and  C_22
REMARK                            x       y       z     vdW  Elec       q    Type
REMARK                         _______ _______ _______ _____ _____    ______ ____
ROOT
ATOM      1  C   UNL     1       4.954   4.292  19.218  0.00  0.00    +0.000 A 
ATOM      2  C   UNL     1       4.354   3.076  19.505  0.00  0.00    +0.000 A 
ATOM      3  N   UNL     1       3.053   2.936  19.861  0.00  0.00    +0.000 NA
ATOM      4  C   UNL     1       2.320   4.073  19.944  0.00  0.00    +0.000 A 
ATOM      5 CL   UNL     1       0.700   3.779  20.451  0.00  0.00    +0.000 Cl
ATOM      6  C   UNL     1       2.809   5.354  19.676  0.00  0.00    +0.000 A 
ATOM      7  C   UNL     1       4.152   5.430  19.283  0.00  0.00    +0.000 A 
ENDROOT
BRANCH   6   8
ATOM      8  C   UNL     1       1.990   6.585  19.732  0.00  0.00    +0.000 C 
ATOM      9  C   UNL     1       1.901   7.372  20.820  0.00  0.00    +0.000 C 
BRANCH   9  10
ATOM     10  C   UNL     1       1.098   8.600  20.916  0.00  0.00    +0.000 A 
ATOM     11  C   UNL     1       0.889   9.446  19.826  0.00  0.00    +0.000 A 
ATOM     12  C   UNL     1       0.056  10.541  19.987  0.00  0.00    +0.000 A 
ATOM     13  N   UNL     1      -0.577  10.843  21.140  0.00  0.00    +0.000 NA
ATOM     14  C   UNL     1      -0.367  10.011  22.180  0.00  0.00    +0.000 A 
ATOM     15  C   UNL     1       0.448   8.891  22.119  0.00  0.00    +0.000 A 
ENDBRANCH   9  10
ENDBRANCH   6   8
BRANCH   1  16
ATOM     16  O   UNL     1       6.285   4.283  18.904  0.00  0.00    +0.000 OA
BRANCH  16  17
ATOM     17  C   UNL     1       6.850   5.555  18.555  0.00  0.00    +0.000 C 
BRANCH  17  18
ATOM     18  C   UNL     1       6.640   5.907  17.063  0.00  0.00    +0.000 C 
BRANCH  18  20
ATOM     19  C   UNL     1       7.797   8.008  17.643  0.00  0.00    +0.000 C 
ATOM     20  N   UNL     1       6.929   7.316  16.702  0.00  0.00    +0.000 NA
ATOM     21  H   UNL     1       7.339   7.369  15.771  0.00  0.00    +0.000 HD
ENDBRANCH  18  20
BRANCH  18  22
ATOM     22  C   UNL     1       7.583   5.028  16.192  0.00  0.00    +0.000 C 
BRANCH  22  23
ATOM     23  C   UNL     1       7.077   4.677  14.809  0.00  0.00    +0.000 A 
ATOM     24  C   UNL     1       7.784   5.077  13.667  0.00  0.00    +0.000 A 
ATOM     25  C   UNL     1       7.336   4.720  12.394  0.00  0.00    +0.000 A 
ATOM     26  C   UNL     1       6.179   3.957  12.247  0.00  0.00    +0.000 A 
ATOM     27  C   UNL     1       5.466   3.551  13.376  0.00  0.00    +0.000 A 
ATOM     28  C   UNL     1       5.915   3.906  14.649  0.00  0.00    +0.000 A 
ENDBRANCH  22  23
ENDBRANCH  18  22
ENDBRANCH  17  18
ENDBRANCH  16  17
ENDBRANCH   1  16
TORSDOF 8
ENDMDL
MODEL 3
REMARK VINA RESULT:      -7.6      2.303      9.087
REMARK  Name = 
REMARK  9 active torsions:
REMARK  status: ('A' for Active; 'I' for Inactive)
REMARK    1  A    between atoms: C_1  and  N_2
REMARK    2  A    between atoms: N_2  and  C_3
REMARK    3  A    between atoms: C_3  and  C_4
REMARK    4  A    between atoms: C_3  and  C_21
REMARK    5  A    between atoms: C_4  and  O_5
REMARK    6  A    between atoms: O_5  and  C_6
REMARK    7  A    between atoms: C_11  and  C_12
REMARK    8  A    between atoms: C_13  and  C_14
REMARK    9  A    between atoms: C_21  and  C_22
REMARK                            x       y       z     vdW  Elec       q    Type
REMARK                         _______ _______ _______ _____ _____    ______ ____
ROOT
ATOM      1  C   UNL     1       3.703   4.524  18.016  0.00  0.00    +0.000 A 
ATOM      2  C   UNL     1       3.503   3.215  18.426  0.00  0.00    +0.000 A 
ATOM      3  N   UNL     1       2.799   2.864  19.531  0.00  0.00    +0.000 NA
ATOM      4  C   UNL     1       2.279   3.877  20.267  0.00  0.00    +0.000 A 
ATOM      5 CL   UNL     1       1.451   3.315  21.669  0.00  0.00    +0.000 Cl
ATOM      6  C   UNL     1       2.410   5.232  19.956  0.00  0.00    +0.000 A 
ATOM      7  C   UNL     1       3.121   5.530  18.786  0.00  0.00    +0.000 A 
ENDROOT
BRANCH   6   8
ATOM      8  C   UNL     1       1.806   6.328  20.747  0.00  0.00    +0.000 C 
ATOM      9  C   UNL     1       1.474   7.525  20.230  0.00  0.00    +0.000 C 
BRANCH   9  10
ATOM     10  C   UNL     1       0.875   8.638  20.981  0.00  0.00    +0.000 A 
ATOM     11  C   UNL     1       0.229   8.454  22.205  0.00  0.00    +0.000 A 
ATOM     12  C   UNL     1      -0.239   9.569  22.881  0.00  0.00    +0.000 A 
ATOM     13  N   UNL     1      -0.104  10.834  22.432  0.00  0.00    +0.000 NA
ATOM     14  C   UNL     1       0.528  10.992  21.251  0.00  0.00    +0.000 A 
ATOM     15  C   UNL     1       1.030   9.941  20.499  0.00  0.00    +0.000 A 
ENDBRANCH   9  10
ENDBRANCH   6   8
BRANCH   1  16
ATOM     16  O   UNL     1       4.463   4.728  16.898  0.00  0.00    +0.000 OA
BRANCH  16  17
ATOM     17  C   UNL     1       4.822   6.091  16.631  0.00  0.00    +0.000 C 
BRANCH  17  18
ATOM     18  C   UNL     1       6.352   6.285  16.496  0.00  0.00    +0.000 C 
BRANCH  18  20
ATOM     19  C   UNL     1       7.529   5.585  18.549  0.00  0.00    +0.000 C 
ATOM     20  N   UNL     1       7.047   6.694  17.740  0.00  0.00    +0.000 NA
ATOM     21  H   UNL     1       7.828   7.312  17.526  0.00  0.00    +0.000 HD
ENDBRANCH  18  20
BRANCH  18  22
ATOM     22  C   UNL     1       7.001   4.942  16.052  0.00  0.00    +0.000 C 
BRANCH  22  23
ATOM     23  C   UNL     1       6.974   4.650  14.566  0.00  0.00    +0.000 A 
ATOM     24  C   UNL     1       6.094   3.692  14.042  0.00  0.00    +0.000 A 
ATOM     25  C   UNL     1       6.044   3.452  12.668  0.00  0.00    +0.000 A 
ATOM     26  C   UNL     1       6.869   4.166  11.802  0.00  0.00    +0.000 A 
ATOM     27  C   UNL     1       7.748   5.123  12.309  0.00  0.00    +0.000 A 
ATOM     28  C   UNL     1       7.797   5.365  13.684  0.00  0.00    +0.000 A 
ENDBRANCH  22  23
ENDBRANCH  18  22
ENDBRANCH  17  18
ENDBRANCH  16  17
ENDBRANCH   1  16
TORSDOF 8
ENDMDL
MODEL 4
REMARK VINA RESULT:      -7.5      2.595      8.489
REMARK  Name = 
REMARK  9 active torsions:
REMARK  status: ('A' for Active; 'I' for Inactive)
REMARK    1  A    between atoms: C_1  and  N_2
REMARK    2  A    between atoms: N_2  and  C_3
REMARK    3  A    between atoms: C_3  and  C_4
REMARK    4  A    between atoms: C_3  and  C_21
REMARK    5  A    between atoms: C_4  and  O_5
REMARK    6  A    between atoms: O_5  and  C_6
REMARK    7  A    between atoms: C_11  and  C_12
REMARK    8  A    between atoms: C_13  and  C_14
REMARK    9  A    between atoms: C_21  and  C_22
REMARK                            x       y       z     vdW  Elec       q    Type
REMARK                         _______ _______ _______ _____ _____    ______ ____
ROOT
ATOM      1  C   UNL     1       3.728   4.795  17.801  0.00  0.00    +0.000 A 
ATOM      2  C   UNL     1       3.799   3.521  18.343  0.00  0.00    +0.000 A 
ATOM      3  N   UNL     1       3.286   3.180  19.552  0.00  0.00    +0.000 NA
ATOM      4  C   UNL     1       2.682   4.168  20.256  0.00  0.00    +0.000 A 
ATOM      5 CL   UNL     1       2.114   3.631  21.791  0.00  0.00    +0.000 Cl
ATOM      6  C   UNL     1       2.545   5.487  19.816  0.00  0.00    +0.000 A 
ATOM      7  C   UNL     1       3.068   5.770  18.547  0.00  0.00    +0.000 A 
ENDROOT
BRANCH   6   8
ATOM      8  C   UNL     1       1.851   6.549  20.577  0.00  0.00    +0.000 C 
ATOM      9  C   UNL     1       1.805   7.837  20.188  0.00  0.00    +0.000 C 
BRANCH   9  10
ATOM     10  C   UNL     1       1.128   8.919  20.917  0.00  0.00    +0.000 A 
ATOM     11  C   UNL     1       0.708  10.095  20.292  0.00  0.00    +0.000 A 
ATOM     12  C   UNL     1       0.009  11.029  21.039  0.00  0.00    +0.000 A 
ATOM     13  N   UNL     1      -0.299  10.873  22.344  0.00  0.00    +0.000 NA
ATOM     14  C   UNL     1       0.111   9.728  22.928  0.00  0.00    +0.000 A 
ATOM     15  C   UNL     1       0.815   8.734  22.266  0.00  0.00    +0.000 A 
ENDBRANCH   9  10
ENDBRANCH   6   8
BRANCH   1  16
ATOM     16  O   UNL     1       4.319   4.999  16.585  0.00  0.00    +0.000 OA
BRANCH  16  17
ATOM     17  C   UNL     1       4.668   3.812  15.857  0.00  0.00    +0.000 C 
BRANCH  17  18
ATOM     18  C   UNL     1       6.114   3.859  15.306  0.00  0.00    +0.000 C 
BRANCH  18  20
ATOM     19  C   UNL     1       6.987   4.406  13.063  0.00  0.00    +0.000 C 
ATOM     20  N   UNL     1       6.260   3.453  13.887  0.00  0.00    +0.000 NA
ATOM     21  H   UNL     1       6.715   2.543  13.822  0.00  0.00    +0.000 HD
ENDBRANCH  18  20
BRANCH  18  22
ATOM     22  C   UNL     1       6.652   5.316  15.403  0.00  0.00    +0.000 C 
BRANCH  22  23
ATOM     23  C   UNL     1       7.182   5.740  16.756  0.00  0.00    +0.000 A 
ATOM     24  C   UNL     1       7.504   4.783  17.729  0.00  0.00    +0.000 A 
ATOM     25  C   UNL     1       8.029   5.174  18.962  0.00  0.00    +0.000 A 
ATOM     26  C   UNL     1       8.242   6.523  19.237  0.00  0.00    +0.000 A 
ATOM     27  C   UNL     1       7.928   7.486  18.277  0.00  0.00    +0.000 A 
ATOM     28  C   UNL     1       7.404   7.096  17.043  0.00  0.00    +0.000 A 
ENDBRANCH  22  23
ENDBRANCH  18  22
ENDBRANCH  17  18
ENDBRANCH  16  17
ENDBRANCH   1  16
TORSDOF 8
ENDMDL
MODEL 5
REMARK VINA RESULT:      -7.5      2.300      8.634
REMARK  Name = 
REMARK  9 active torsions:
REMARK  status: ('A' for Active; 'I' for Inactive)
REMARK    1  A    between atoms: C_1  and  N_2
REMARK    2  A    between atoms: N_2  and  C_3
REMARK    3  A    between atoms: C_3  and  C_4
REMARK    4  A    between atoms: C_3  and  C_21
REMARK    5  A    between atoms: C_4  and  O_5
REMARK    6  A    between atoms: O_5  and  C_6
REMARK    7  A    between atoms: C_11  and  C_12
REMARK    8  A    between atoms: C_13  and  C_14
REMARK    9  A    between atoms: C_21  and  C_22
REMARK                            x       y       z     vdW  Elec       q    Type
REMARK                         _______ _______ _______ _____ _____    ______ ____
ROOT
ATOM      1  C   UNL     1       4.957   4.129  19.308  0.00  0.00    +0.000 A 
ATOM      2  C   UNL     1       4.499   2.835  19.502  0.00  0.00    +0.000 A 
ATOM      3  N   UNL     1       3.273   2.529  19.995  0.00  0.00    +0.000 NA
ATOM      4  C   UNL     1       2.470   3.572  20.318  0.00  0.00    +0.000 A 
ATOM      5 CL   UNL     1       0.962   3.063  20.977  0.00  0.00    +0.000 Cl
ATOM      6  C   UNL     1       2.815   4.917  20.164  0.00  0.00    +0.000 A 
ATOM      7  C   UNL     1       4.083   5.169  19.622  0.00  0.00    +0.000 A 
ENDROOT
BRANCH   6   8
ATOM      8  C   UNL     1       1.916   6.047  20.485  0.00  0.00    +0.000 C 
ATOM      9  C   UNL     1       2.135   7.312  20.081  0.00  0.00    +0.000 C 
BRANCH   9  10
ATOM     10  C   UNL     1       1.268   8.461  20.380  0.00  0.00    +0.000 A 
ATOM     11  C   UNL     1       0.736   8.688  21.651  0.00  0.00    +0.000 A 
ATOM     12  C   UNL     1      -0.009   9.837  21.861  0.00  0.00    +0.000 A 
ATOM     13  N   UNL     1      -0.252  10.762  20.910  0.00  0.00    +0.000 NA
ATOM     14  C   UNL     1       0.275  10.528  19.691  0.00  0.00    +0.000 A 
ATOM     15  C   UNL     1       1.033   9.409  19.381  0.00  0.00    +0.000 A 
ENDBRANCH   9  10
ENDBRANCH   6   8
BRANCH   1  16
ATOM     16  O   UNL     1       6.229   4.286  18.833  0.00  0.00    +0.000 OA
BRANCH  16  17
ATOM     17  C   UNL     1       6.345   4.479  17.416  0.00  0.00    +0.000 C 
BRANCH  17  18
ATOM     18  C   UNL     1       6.157   5.958  17.001  0.00  0.00    +0.000 C 
BRANCH  18  20
ATOM     19  C   UNL     1       7.816   7.568  17.865  0.00  0.00    +0.000 C 
ATOM     20  N   UNL     1       7.413   6.709  16.762  0.00  0.00    +0.000 NA
ATOM     21  H   UNL     1       8.175   6.068  16.545  0.00  0.00    +0.000 HD
ENDBRANCH  18  20
BRANCH  18  22
ATOM     22  C   UNL     1       5.348   6.018  15.673  0.00  0.00    +0.000 C 
BRANCH  22  23
ATOM     23  C   UNL     1       5.913   5.224  14.514  0.00  0.00    +0.000 A 
ATOM     24  C   UNL     1       7.205   5.481  14.035  0.00  0.00    +0.000 A 
ATOM     25  C   UNL     1       7.738   4.722  12.991  0.00  0.00    +0.000 A 
ATOM     26  C   UNL     1       6.989   3.696  12.418  0.00  0.00    +0.000 A 
ATOM     27  C   UNL     1       5.703   3.428  12.887  0.00  0.00    +0.000 A 
ATOM     28  C   UNL     1       5.170   4.186  13.932  0.00  0.00    +0.000 A 
ENDBRANCH  22  23
ENDBRANCH  18  22
ENDBRANCH  17  18
ENDBRANCH  16  17
ENDBRANCH   1  16
TORSDOF 8
ENDMDL
MODEL 6
REMARK VINA RESULT:      -7.3      2.529      8.247
REMARK  Name = 
REMARK  9 active torsions:
REMARK  status: ('A' for Active; 'I' for Inactive)
REMARK    1  A    between atoms: C_1  and  N_2
REMARK    2  A    between atoms: N_2  and  C_3
REMARK    3  A    between atoms: C_3  and  C_4
REMARK    4  A    between atoms: C_3  and  C_21
REMARK    5  A    between atoms: C_4  and  O_5
REMARK    6  A    between atoms: O_5  and  C_6
REMARK    7  A    between atoms: C_11  and  C_12
REMARK    8  A    between atoms: C_13  and  C_14
REMARK    9  A    between atoms: C_21  and  C_22
REMARK                            x       y       z     vdW  Elec       q    Type
REMARK                         _______ _______ _______ _____ _____    ______ ____
ROOT
ATOM      1  C   UNL     1       3.136   3.681  17.701  0.00  0.00    +0.000 A 
ATOM      2  C   UNL     1       3.105   2.475  18.385  0.00  0.00    +0.000 A 
ATOM      3  N   UNL     1       2.667   2.337  19.661  0.00  0.00    +0.000 NA
ATOM      4  C   UNL     1       2.251   3.465  20.286  0.00  0.00    +0.000 A 
ATOM      5 CL   UNL     1       1.766   3.177  21.914  0.00  0.00    +0.000 Cl
ATOM      6  C   UNL     1       2.232   4.735  19.703  0.00  0.00    +0.000 A 
ATOM      7  C   UNL     1       2.666   4.808  18.374  0.00  0.00    +0.000 A 
ENDROOT
BRANCH   6   8
ATOM      8  C   UNL     1       1.740   5.954  20.383  0.00  0.00    +0.000 C 
ATOM      9  C   UNL     1       1.876   7.195  19.880  0.00  0.00    +0.000 C 
BRANCH   9  10
ATOM     10  C   UNL     1       1.403   8.428  20.525  0.00  0.00    +0.000 A 
ATOM     11  C   UNL     1       0.905   9.510  19.797  0.00  0.00    +0.000 A 
ATOM     12  C   UNL     1       0.409  10.603  20.491  0.00  0.00    +0.000 A 
ATOM     13  N   UNL     1       0.373  10.687  21.837  0.00  0.00    +0.000 NA
ATOM     14  C   UNL     1       0.853   9.629  22.522  0.00  0.00    +0.000 A 
ATOM     15  C   UNL     1       1.369   8.492  21.921  0.00  0.00    +0.000 A 
ENDBRANCH   9  10
ENDBRANCH   6   8
BRANCH   1  16
ATOM     16  O   UNL     1       3.634   3.674  16.428  0.00  0.00    +0.000 OA
BRANCH  16  17
ATOM     17  C   UNL     1       4.804   4.477  16.214  0.00  0.00    +0.000 C 
BRANCH  17  18
ATOM     18  C   UNL     1       5.722   3.903  15.107  0.00  0.00    +0.000 C 
BRANCH  18  20
ATOM     19  C   UNL     1       6.095   3.526  12.697  0.00  0.00    +0.000 C 
ATOM     20  N   UNL     1       5.243   4.113  13.720  0.00  0.00    +0.000 NA
ATOM     21  H   UNL     1       4.297   3.751  13.611  0.00  0.00    +0.000 HD
ENDBRANCH  18  20
BRANCH  18  22
ATOM     22  C   UNL     1       7.119   4.583  15.198  0.00  0.00    +0.000 C 
BRANCH  22  23
ATOM     23  C   UNL     1       7.407   5.341  16.477  0.00  0.00    +0.000 A 
ATOM     24  C   UNL     1       7.344   6.741  16.507  0.00  0.00    +0.000 A 
ATOM     25  C   UNL     1       7.574   7.435  17.696  0.00  0.00    +0.000 A 
ATOM     26  C   UNL     1       7.865   6.741  18.868  0.00  0.00    +0.000 A 
ATOM     27  C   UNL     1       7.928   5.347  18.852  0.00  0.00    +0.000 A 
ATOM     28  C   UNL     1       7.698   4.652  17.664  0.00  0.00    +0.000 A 
ENDBRANCH  22  23
ENDBRANCH  18  22
ENDBRANCH  17  18
ENDBRANCH  16  17
ENDBRANCH   1  16
TORSDOF 8
ENDMDL
MODEL 7
REMARK VINA RESULT:      -7.3      2.372      9.114
REMARK  Name = 
REMARK  9 active torsions:
REMARK  status: ('A' for Active; 'I' for Inactive)
REMARK    1  A    between atoms: C_1  and  N_2
REMARK    2  A    between atoms: N_2  and  C_3
REMARK    3  A    between atoms: C_3  and  C_4
REMARK    4  A    between atoms: C_3  and  C_21
REMARK    5  A    between atoms: C_4  and  O_5
REMARK    6  A    between atoms: O_5  and  C_6
REMARK    7  A    between atoms: C_11  and  C_12
REMARK    8  A    between atoms: C_13  and  C_14
REMARK    9  A    between atoms: C_21  and  C_22
REMARK                            x       y       z     vdW  Elec       q    Type
REMARK                         _______ _______ _______ _____ _____    ______ ____
ROOT
ATOM      1  C   UNL     1       4.197   4.572  18.830  0.00  0.00    +0.000 A 
ATOM      2  C   UNL     1       4.048   3.258  19.247  0.00  0.00    +0.000 A 
ATOM      3  N   UNL     1       3.146   2.855  20.176  0.00  0.00    +0.000 NA
ATOM      4  C   UNL     1       2.362   3.817  20.721  0.00  0.00    +0.000 A 
ATOM      5 CL   UNL     1       1.293   3.196  21.920  0.00  0.00    +0.000 Cl
ATOM      6  C   UNL     1       2.416   5.171  20.381  0.00  0.00    +0.000 A 
ATOM      7  C   UNL     1       3.346   5.521  19.394  0.00  0.00    +0.000 A 
ENDROOT
BRANCH   6   8
ATOM      8  C   UNL     1       1.530   6.208  20.955  0.00  0.00    +0.000 C 
ATOM      9  C   UNL     1       1.635   7.519  20.672  0.00  0.00    +0.000 C 
BRANCH   9  10
ATOM     10  C   UNL     1       0.776   8.578  21.222  0.00  0.00    +0.000 A 
ATOM     11  C   UNL     1       0.571   8.740  22.593  0.00  0.00    +0.000 A 
ATOM     12  C   UNL     1      -0.192   9.812  23.027  0.00  0.00    +0.000 A 
ATOM     13  N   UNL     1      -0.752  10.721  22.201  0.00  0.00    +0.000 NA
ATOM     14  C   UNL     1      -0.538  10.550  20.881  0.00  0.00    +0.000 A 
ATOM     15  C   UNL     1       0.210   9.511  20.349  0.00  0.00    +0.000 A 
ENDBRANCH   9  10
ENDBRANCH   6   8
BRANCH   1  16
ATOM     16  O   UNL     1       5.172   4.836  17.908  0.00  0.00    +0.000 OA
BRANCH  16  17
ATOM     17  C   UNL     1       4.812   5.759  16.870  0.00  0.00    +0.000 C 
BRANCH  17  18
ATOM     18  C   UNL     1       6.045   6.444  16.232  0.00  0.00    +0.000 C 
BRANCH  18  20
ATOM     19  C   UNL     1       7.793   6.715  17.954  0.00  0.00    +0.000 C 
ATOM     20  N   UNL     1       6.786   7.365  17.128  0.00  0.00    +0.000 NA
ATOM     21  H   UNL     1       7.230   8.107  16.588  0.00  0.00    +0.000 HD
ENDBRANCH  18  20
BRANCH  18  22
ATOM     22  C   UNL     1       7.061   5.354  15.783  0.00  0.00    +0.000 C 
BRANCH  22  23
ATOM     23  C   UNL     1       6.917   4.857  14.360  0.00  0.00    +0.000 A 
ATOM     24  C   UNL     1       7.790   5.302  13.358  0.00  0.00    +0.000 A 
ATOM     25  C   UNL     1       7.680   4.813  12.054  0.00  0.00    +0.000 A 
ATOM     26  C   UNL     1       6.700   3.874  11.739  0.00  0.00    +0.000 A 
ATOM     27  C   UNL     1       5.827   3.422  12.728  0.00  0.00    +0.000 A 
ATOM     28  C   UNL     1       5.937   3.908  14.032  0.00  0.00    +0.000 A 
ENDBRANCH  22  23
ENDBRANCH  18  22
ENDBRANCH  17  18
ENDBRANCH  16  17
ENDBRANCH   1  16
TORSDOF 8
ENDMDL
MODEL 8
REMARK VINA RESULT:      -7.2      2.234      8.965
REMARK  Name = 
REMARK  9 active torsions:
REMARK  status: ('A' for Active; 'I' for Inactive)
REMARK    1  A    between atoms: C_1  and  N_2
REMARK    2  A    between atoms: N_2  and  C_3
REMARK    3  A    between atoms: C_3  and  C_4
REMARK    4  A    between atoms: C_3  and  C_21
REMARK    5  A    between atoms: C_4  and  O_5
REMARK    6  A    between atoms: O_5  and  C_6
REMARK    7  A    between atoms: C_11  and  C_12
REMARK    8  A    between atoms: C_13  and  C_14
REMARK    9  A    between atoms: C_21  and  C_22
REMARK                            x       y       z     vdW  Elec       q    Type
REMARK                         _______ _______ _______ _____ _____    ______ ____
ROOT
ATOM      1  C   UNL     1       4.131   3.935  18.159  0.00  0.00    +0.000 A 
ATOM      2  C   UNL     1       4.085   2.733  18.848  0.00  0.00    +0.000 A 
ATOM      3  N   UNL     1       3.358   2.530  19.975  0.00  0.00    +0.000 NA
ATOM      4  C   UNL     1       2.650   3.588  20.439  0.00  0.00    +0.000 A 
ATOM      5 CL   UNL     1       1.807   3.228  21.898  0.00  0.00    +0.000 Cl
ATOM      6  C   UNL     1       2.613   4.847  19.833  0.00  0.00    +0.000 A 
ATOM      7  C   UNL     1       3.360   4.985  18.656  0.00  0.00    +0.000 A 
ENDROOT
BRANCH   6   8
ATOM      8  C   UNL     1       1.807   5.984  20.328  0.00  0.00    +0.000 C 
ATOM      9  C   UNL     1       2.122   7.274  20.107  0.00  0.00    +0.000 C 
BRANCH   9  10
ATOM     10  C   UNL     1       1.348   8.430  20.583  0.00  0.00    +0.000 A 
ATOM     11  C   UNL     1       1.070   8.641  21.934  0.00  0.00    +0.000 A 
ATOM     12  C   UNL     1       0.401   9.798  22.300  0.00  0.00    +0.000 A 
ATOM     13  N   UNL     1       0.001  10.745  21.427  0.00  0.00    +0.000 NA
ATOM     14  C   UNL     1       0.284  10.525  20.126  0.00  0.00    +0.000 A 
ATOM     15  C   UNL     1       0.948   9.401  19.661  0.00  0.00    +0.000 A 
ENDBRANCH   9  10
ENDBRANCH   6   8
BRANCH   1  16
ATOM     16  O   UNL     1       4.935   4.002  17.055  0.00  0.00    +0.000 OA
BRANCH  16  17
ATOM     17  C   UNL     1       6.221   4.606  17.259  0.00  0.00    +0.000 C 
BRANCH  17  18
ATOM     18  C   UNL     1       6.588   5.610  16.138  0.00  0.00    +0.000 C 
BRANCH  18  20
ATOM     19  C   UNL     1       7.513   6.899  18.028  0.00  0.00    +0.000 C 
ATOM     20  N   UNL     1       7.350   6.800  16.585  0.00  0.00    +0.000 NA
ATOM     21  H   UNL     1       8.269   6.820  16.146  0.00  0.00    +0.000 HD
ENDBRANCH  18  20
BRANCH  18  22
ATOM     22  C   UNL     1       7.473   4.892  15.079  0.00  0.00    +0.000 C 
BRANCH  22  23
ATOM     23  C   UNL     1       6.741   4.293  13.896  0.00  0.00    +0.000 A 
ATOM     24  C   UNL     1       5.365   4.035  13.964  0.00  0.00    +0.000 A 
ATOM     25  C   UNL     1       4.686   3.519  12.859  0.00  0.00    +0.000 A 
ATOM     26  C   UNL     1       5.371   3.257  11.675  0.00  0.00    +0.000 A 
ATOM     27  C   UNL     1       6.740   3.511  11.593  0.00  0.00    +0.000 A 
ATOM     28  C   UNL     1       7.420   4.029  12.697  0.00  0.00    +0.000 A 
ENDBRANCH  22  23
ENDBRANCH  18  22
ENDBRANCH  17  18
ENDBRANCH  16  17
ENDBRANCH   1  16
TORSDOF 8
ENDMDL
MODEL 9
REMARK VINA RESULT:      -7.2      2.734      7.838
REMARK  Name = 
REMARK  9 active torsions:
REMARK  status: ('A' for Active; 'I' for Inactive)
REMARK    1  A    between atoms: C_1  and  N_2
REMARK    2  A    between atoms: N_2  and  C_3
REMARK    3  A    between atoms: C_3  and  C_4
REMARK    4  A    between atoms: C_3  and  C_21
REMARK    5  A    between atoms: C_4  and  O_5
REMARK    6  A    between atoms: O_5  and  C_6
REMARK    7  A    between atoms: C_11  and  C_12
REMARK    8  A    between atoms: C_13  and  C_14
REMARK    9  A    between atoms: C_21  and  C_22
REMARK                            x       y       z     vdW  Elec       q    Type
REMARK                         _______ _______ _______ _____ _____    ______ ____
ROOT
ATOM      1  C   UNL     1       3.742   3.222  18.017  0.00  0.00    +0.000 A 
ATOM      2  C   UNL     1       3.353   2.061  18.668  0.00  0.00    +0.000 A 
ATOM      3  N   UNL     1       2.616   2.039  19.807  0.00  0.00    +0.000 NA
ATOM      4  C   UNL     1       2.260   3.240  20.323  0.00  0.00    +0.000 A 
ATOM      5 CL   UNL     1       1.371   3.088  21.791  0.00  0.00    +0.000 Cl
ATOM      6  C   UNL     1       2.587   4.475  19.759  0.00  0.00    +0.000 A 
ATOM      7  C   UNL     1       3.323   4.432  18.568  0.00  0.00    +0.000 A 
ENDROOT
BRANCH   6   8
ATOM      8  C   UNL     1       2.161   5.780  20.312  0.00  0.00    +0.000 C 
ATOM      9  C   UNL     1       1.994   6.887  19.565  0.00  0.00    +0.000 C 
BRANCH   9  10
ATOM     10  C   UNL     1       1.574   8.200  20.077  0.00  0.00    +0.000 A 
ATOM     11  C   UNL     1       1.359   9.297  19.240  0.00  0.00    +0.000 A 
ATOM     12  C   UNL     1       0.890  10.474  19.799  0.00  0.00    +0.000 A 
ATOM     13  N   UNL     1       0.620  10.630  21.112  0.00  0.00    +0.000 NA
ATOM     14  C   UNL     1       0.828   9.557  21.903  0.00  0.00    +0.000 A 
ATOM     15  C   UNL     1       1.295   8.338  21.440  0.00  0.00    +0.000 A 
ENDBRANCH   9  10
ENDBRANCH   6   8
BRANCH   1  16
ATOM     16  O   UNL     1       4.512   3.091  16.895  0.00  0.00    +0.000 OA
BRANCH  16  17
ATOM     17  C   UNL     1       4.314   4.091  15.886  0.00  0.00    +0.000 C 
BRANCH  17  18
ATOM     18  C   UNL     1       5.633   4.795  15.483  0.00  0.00    +0.000 C 
BRANCH  18  20
ATOM     19  C   UNL     1       6.244   3.668  13.374  0.00  0.00    +0.000 C 
ATOM     20  N   UNL     1       5.862   4.914  14.023  0.00  0.00    +0.000 NA
ATOM     21  H   UNL     1       5.034   5.287  13.561  0.00  0.00    +0.000 HD
ENDBRANCH  18  20
BRANCH  18  22
ATOM     22  C   UNL     1       5.632   6.245  16.048  0.00  0.00    +0.000 C 
BRANCH  22  23
ATOM     23  C   UNL     1       6.602   6.520  17.177  0.00  0.00    +0.000 A 
ATOM     24  C   UNL     1       6.884   5.533  18.132  0.00  0.00    +0.000 A 
ATOM     25  C   UNL     1       7.808   5.776  19.150  0.00  0.00    +0.000 A 
ATOM     26  C   UNL     1       8.462   7.004  19.224  0.00  0.00    +0.000 A 
ATOM     27  C   UNL     1       8.192   7.994  18.280  0.00  0.00    +0.000 A 
ATOM     28  C   UNL     1       7.269   7.752  17.260  0.00  0.00    +0.000 A 
ENDBRANCH  22  23
ENDBRANCH  18  22
ENDBRANCH  17  18
ENDBRANCH  16  17
ENDBRANCH   1  16
TORSDOF 8
ENDMDL
