MODEL 1
REMARK VINA RESULT:      -7.9      0.000      0.000
REMARK  Name = 
REMARK  6 active torsions:
REMARK  status: ('A' for Active; 'I' for Inactive)
REMARK    1  A    between atoms: C_1  and  O_2
REMARK    2  A    between atoms: O_2  and  C_3
REMARK    3  A    between atoms: C_8  and  C_9
REMARK    4  A    between atoms: N_11  and  C_12
REMARK    5  A    between atoms: C_12  and  C_13
REMARK    6  A    between atoms: C_17  and  C_18
REMARK                            x       y       z     vdW  Elec       q    Type
REMARK                         _______ _______ _______ _____ _____    ______ ____
ROOT
ATOM      1  C   UNL     1       4.583   4.939  17.922  0.00  0.00    +0.000 C 
ATOM      2  O   UNL     1       4.387   3.902  18.555  0.00  0.00    +0.000 OA
ATOM      3  N   UNL     1       3.984   6.129  18.257  0.00  0.00    +0.000 N 
ATOM      4  H   UNL     1       4.133   6.936  17.660  0.00  0.00    +0.000 HD
ENDROOT
BRANCH   1  10
ATOM      5  C   UNL     1       6.618   5.735  16.579  0.00  0.00    +0.000 A 
ATOM      6  N   UNL     1       7.435   5.685  15.494  0.00  0.00    +0.000 NA
ATOM      7  C   UNL     1       7.115   4.812  14.516  0.00  0.00    +0.000 A 
ATOM      8  C   UNL     1       6.013   3.980  14.567  0.00  0.00    +0.000 A 
ATOM      9  C   UNL     1       5.198   4.035  15.696  0.00  0.00    +0.000 A 
ATOM     10  C   UNL     1       5.497   4.920  16.741  0.00  0.00    +0.000 A 
BRANCH   5  12
ATOM     11  C   UNL     1       7.742   6.027  18.603  0.00  0.00    +0.000 C 
ATOM     12  O   UNL     1       6.954   6.628  17.578  0.00  0.00    +0.000 OA
ENDBRANCH   5  12
ENDBRANCH   1  10
BRANCH   3  13
ATOM     13  C   UNL     1       3.025   6.246  19.331  0.00  0.00    +0.000 C 
BRANCH  13  14
ATOM     14  C   UNL     1       2.276   7.548  19.248  0.00  0.00    +0.000 A 
ATOM     15  C   UNL     1       2.345   8.341  18.100  0.00  0.00    +0.000 A 
ATOM     16  C   UNL     1       1.664   9.546  18.083  0.00  0.00    +0.000 A 
ATOM     17  N   UNL     1       0.940  10.019  19.121  0.00  0.00    +0.000 NA
ATOM     18  C   UNL     1       0.892   9.252  20.238  0.00  0.00    +0.000 A 
ATOM     19  C   UNL     1       1.535   8.022  20.336  0.00  0.00    +0.000 A 
BRANCH  18  20
ATOM     20  C   UNL     1       0.148   9.834  21.349  0.00  0.00    +0.000 A 
ATOM     21  C   UNL     1      -0.159   9.404  22.625  0.00  0.00    +0.000 A 
ATOM     22  C   UNL     1      -0.957  10.413  23.218  0.00  0.00    +0.000 A 
ATOM     23  C   UNL     1      -1.079  11.404  22.273  0.00  0.00    +0.000 A 
ATOM     24  O   UNL     1      -0.415  11.066  21.138  0.00  0.00    +0.000 OA
ENDBRANCH  18  20
ENDBRANCH  13  14
ENDBRANCH   3  13
TORSDOF 5
ENDMDL
MODEL 2
REMARK VINA RESULT:      -7.5      0.901      1.056
REMARK  Name = 
REMARK  6 active torsions:
REMARK  status: ('A' for Active; 'I' for Inactive)
REMARK    1  A    between atoms: C_1  and  O_2
REMARK    2  A    between atoms: O_2  and  C_3
REMARK    3  A    between atoms: C_8  and  C_9
REMARK    4  A    between atoms: N_11  and  C_12
REMARK    5  A    between atoms: C_12  and  C_13
REMARK    6  A    between atoms: C_17  and  C_18
REMARK                            x       y       z     vdW  Elec       q    Type
REMARK                         _______ _______ _______ _____ _____    ______ ____
ROOT
ATOM      1  C   UNL     1       4.989   5.578  18.106  0.00  0.00    +0.000 C 
ATOM      2  O   UNL     1       5.581   5.407  19.171  0.00  0.00    +0.000 OA
ATOM      3  N   UNL     1       3.691   6.026  18.051  0.00  0.00    +0.000 N 
ATOM      4  H   UNL     1       3.233   6.088  17.147  0.00  0.00    +0.000 HD
ENDROOT
BRANCH   1  10
ATOM      5  C   UNL     1       6.992   5.673  16.508  0.00  0.00    +0.000 A 
ATOM      6  N   UNL     1       7.603   5.383  15.328  0.00  0.00    +0.000 NA
ATOM      7  C   UNL     1       6.883   4.711  14.406  0.00  0.00    +0.000 A 
ATOM      8  C   UNL     1       5.575   4.309  14.604  0.00  0.00    +0.000 A 
ATOM      9  C   UNL     1       4.975   4.601  15.827  0.00  0.00    +0.000 A 
ATOM     10  C   UNL     1       5.688   5.289  16.819  0.00  0.00    +0.000 A 
BRANCH   5  12
ATOM     11  C   UNL     1       7.600   7.772  17.328  0.00  0.00    +0.000 C 
ATOM     12  O   UNL     1       7.737   6.357  17.449  0.00  0.00    +0.000 OA
ENDBRANCH   5  12
ENDBRANCH   1  10
BRANCH   3  13
ATOM     13  C   UNL     1       2.895   6.264  19.232  0.00  0.00    +0.000 C 
BRANCH  13  14
ATOM     14  C   UNL     1       2.199   7.596  19.157  0.00  0.00    +0.000 A 
ATOM     15  C   UNL     1       2.297   8.389  18.012  0.00  0.00    +0.000 A 
ATOM     16  C   UNL     1       1.664   9.621  18.001  0.00  0.00    +0.000 A 
ATOM     17  N   UNL     1       0.962  10.118  19.043  0.00  0.00    +0.000 NA
ATOM     18  C   UNL     1       0.887   9.350  20.157  0.00  0.00    +0.000 A 
ATOM     19  C   UNL     1       1.480   8.094  20.249  0.00  0.00    +0.000 A 
BRANCH  18  20
ATOM     20  C   UNL     1       0.169   9.956  21.272  0.00  0.00    +0.000 A 
ATOM     21  C   UNL     1      -0.492  11.157  21.445  0.00  0.00    +0.000 A 
ATOM     22  C   UNL     1      -0.954  11.183  22.783  0.00  0.00    +0.000 A 
ATOM     23  C   UNL     1      -0.557   9.992  23.344  0.00  0.00    +0.000 A 
ATOM     24  O   UNL     1       0.122   9.241  22.440  0.00  0.00    +0.000 OA
ENDBRANCH  18  20
ENDBRANCH  13  14
ENDBRANCH   3  13
TORSDOF 5
ENDMDL
MODEL 3
REMARK VINA RESULT:      -7.4      1.721      8.466
REMARK  Name = 
REMARK  6 active torsions:
REMARK  status: ('A' for Active; 'I' for Inactive)
REMARK    1  A    between atoms: C_1  and  O_2
REMARK    2  A    between atoms: O_2  and  C_3
REMARK    3  A    between atoms: C_8  and  C_9
REMARK    4  A    between atoms: N_11  and  C_12
REMARK    5  A    between atoms: C_12  and  C_13
REMARK    6  A    between atoms: C_17  and  C_18
REMARK                            x       y       z     vdW  Elec       q    Type
REMARK                         _______ _______ _______ _____ _____    ______ ____
ROOT
ATOM      1  C   UNL     1       2.589   6.591  19.184  0.00  0.00    +0.000 C 
ATOM      2  O   UNL     1       2.897   6.131  20.283  0.00  0.00    +0.000 OA
ATOM      3  N   UNL     1       2.702   5.862  18.025  0.00  0.00    +0.000 N 
ATOM      4  H   UNL     1       2.494   6.314  17.141  0.00  0.00    +0.000 HD
ENDROOT
BRANCH   1  10
ATOM      5  C   UNL     1       1.259   8.615  20.028  0.00  0.00    +0.000 A 
ATOM      6  N   UNL     1       0.819   9.896  19.913  0.00  0.00    +0.000 NA
ATOM      7  C   UNL     1       1.182  10.578  18.807  0.00  0.00    +0.000 A 
ATOM      8  C   UNL     1       1.968  10.044  17.803  0.00  0.00    +0.000 A 
ATOM      9  C   UNL     1       2.422   8.735  17.950  0.00  0.00    +0.000 A 
ATOM     10  C   UNL     1       2.078   7.990  19.087  0.00  0.00    +0.000 A 
BRANCH   5  12
ATOM     11  C   UNL     1       0.011   8.677  22.000  0.00  0.00    +0.000 C 
ATOM     12  O   UNL     1       0.887   7.923  21.164  0.00  0.00    +0.000 OA
ENDBRANCH   5  12
ENDBRANCH   1  10
BRANCH   3  13
ATOM     13  C   UNL     1       3.255   4.528  17.991  0.00  0.00    +0.000 C 
BRANCH  13  14
ATOM     14  C   UNL     1       4.684   4.546  17.520  0.00  0.00    +0.000 A 
ATOM     15  C   UNL     1       5.734   4.679  18.431  0.00  0.00    +0.000 A 
ATOM     16  C   UNL     1       7.031   4.722  17.947  0.00  0.00    +0.000 A 
ATOM     17  N   UNL     1       7.350   4.658  16.636  0.00  0.00    +0.000 NA
ATOM     18  C   UNL     1       6.324   4.547  15.757  0.00  0.00    +0.000 A 
ATOM     19  C   UNL     1       4.992   4.482  16.157  0.00  0.00    +0.000 A 
BRANCH  18  20
ATOM     20  C   UNL     1       6.718   4.542  14.354  0.00  0.00    +0.000 A 
ATOM     21  C   UNL     1       6.341   3.791  13.257  0.00  0.00    +0.000 A 
ATOM     22  C   UNL     1       7.122   4.239  12.164  0.00  0.00    +0.000 A 
ATOM     23  C   UNL     1       7.921   5.244  12.656  0.00  0.00    +0.000 A 
ATOM     24  O   UNL     1       7.686   5.437  13.979  0.00  0.00    +0.000 OA
ENDBRANCH  18  20
ENDBRANCH  13  14
ENDBRANCH   3  13
TORSDOF 5
ENDMDL
MODEL 4
REMARK VINA RESULT:      -7.2      2.388      8.070
REMARK  Name = 
REMARK  6 active torsions:
REMARK  status: ('A' for Active; 'I' for Inactive)
REMARK    1  A    between atoms: C_1  and  O_2
REMARK    2  A    between atoms: O_2  and  C_3
REMARK    3  A    between atoms: C_8  and  C_9
REMARK    4  A    between atoms: N_11  and  C_12
REMARK    5  A    between atoms: C_12  and  C_13
REMARK    6  A    between atoms: C_17  and  C_18
REMARK                            x       y       z     vdW  Elec       q    Type
REMARK                         _______ _______ _______ _____ _____    ______ ____
ROOT
ATOM      1  C   UNL     1       0.481   9.788  19.219  0.00  0.00    +0.000 C 
ATOM      2  O   UNL     1      -0.220   9.973  18.224  0.00  0.00    +0.000 OA
ATOM      3  N   UNL     1       1.741   9.245  19.140  0.00  0.00    +0.000 N 
ATOM      4  H   UNL     1       2.246   9.056  19.999  0.00  0.00    +0.000 HD
ENDROOT
BRANCH   1  10
ATOM      5  C   UNL     1      -0.521  11.413  20.931  0.00  0.00    +0.000 A 
ATOM      6  N   UNL     1      -1.001  11.710  22.168  0.00  0.00    +0.000 NA
ATOM      7  C   UNL     1      -0.982  10.728  23.092  0.00  0.00    +0.000 A 
ATOM      8  C   UNL     1      -0.505   9.454  22.843  0.00  0.00    +0.000 A 
ATOM      9  C   UNL     1      -0.034   9.167  21.564  0.00  0.00    +0.000 A 
ATOM     10  C   UNL     1      -0.043  10.154  20.568  0.00  0.00    +0.000 A 
BRANCH   5  12
ATOM     11  C   UNL     1      -1.772  13.154  20.006  0.00  0.00    +0.000 C 
ATOM     12  O   UNL     1      -0.548  12.423  19.988  0.00  0.00    +0.000 OA
ENDBRANCH   5  12
ENDBRANCH   1  10
BRANCH   3  13
ATOM     13  C   UNL     1       2.317   8.785  17.898  0.00  0.00    +0.000 C 
BRANCH  13  14
ATOM     14  C   UNL     1       2.927   7.419  18.058  0.00  0.00    +0.000 A 
ATOM     15  C   UNL     1       3.984   7.009  17.243  0.00  0.00    +0.000 A 
ATOM     16  C   UNL     1       4.492   5.730  17.407  0.00  0.00    +0.000 A 
ATOM     17  N   UNL     1       4.016   4.839  18.303  0.00  0.00    +0.000 NA
ATOM     18  C   UNL     1       2.977   5.238  19.077  0.00  0.00    +0.000 A 
ATOM     19  C   UNL     1       2.416   6.508  18.989  0.00  0.00    +0.000 A 
BRANCH  18  20
ATOM     20  C   UNL     1       2.463   4.219  19.985  0.00  0.00    +0.000 A 
ATOM     21  C   UNL     1       1.213   3.940  20.501  0.00  0.00    +0.000 A 
ATOM     22  C   UNL     1       1.364   2.834  21.371  0.00  0.00    +0.000 A 
ATOM     23  C   UNL     1       2.696   2.495  21.326  0.00  0.00    +0.000 A 
ATOM     24  O   UNL     1       3.371   3.325  20.490  0.00  0.00    +0.000 OA
ENDBRANCH  18  20
ENDBRANCH  13  14
ENDBRANCH   3  13
TORSDOF 5
ENDMDL
MODEL 5
REMARK VINA RESULT:      -7.2      2.301      3.394
REMARK  Name = 
REMARK  6 active torsions:
REMARK  status: ('A' for Active; 'I' for Inactive)
REMARK    1  A    between atoms: C_1  and  O_2
REMARK    2  A    between atoms: O_2  and  C_3
REMARK    3  A    between atoms: C_8  and  C_9
REMARK    4  A    between atoms: N_11  and  C_12
REMARK    5  A    between atoms: C_12  and  C_13
REMARK    6  A    between atoms: C_17  and  C_18
REMARK                            x       y       z     vdW  Elec       q    Type
REMARK                         _______ _______ _______ _____ _____    ______ ____
ROOT
ATOM      1  C   UNL     1       5.156   3.591  17.341  0.00  0.00    +0.000 C 
ATOM      2  O   UNL     1       4.131   2.943  17.136  0.00  0.00    +0.000 OA
ATOM      3  N   UNL     1       5.623   3.848  18.608  0.00  0.00    +0.000 N 
ATOM      4  H   UNL     1       6.438   4.442  18.717  0.00  0.00    +0.000 HD
ENDROOT
BRANCH   1  10
ATOM      5  C   UNL     1       6.910   5.122  16.263  0.00  0.00    +0.000 A 
ATOM      6  N   UNL     1       7.604   5.583  15.189  0.00  0.00    +0.000 NA
ATOM      7  C   UNL     1       7.297   5.063  13.983  0.00  0.00    +0.000 A 
ATOM      8  C   UNL     1       6.327   4.097  13.792  0.00  0.00    +0.000 A 
ATOM      9  C   UNL     1       5.640   3.626  14.909  0.00  0.00    +0.000 A 
ATOM     10  C   UNL     1       5.931   4.131  16.184  0.00  0.00    +0.000 A 
BRANCH   5  12
ATOM     11  C   UNL     1       7.168   7.081  17.506  0.00  0.00    +0.000 C 
ATOM     12  O   UNL     1       7.231   5.656  17.496  0.00  0.00    +0.000 OA
ENDBRANCH   5  12
ENDBRANCH   1  10
BRANCH   3  13
ATOM     13  C   UNL     1       4.914   3.441  19.799  0.00  0.00    +0.000 C 
BRANCH  13  14
ATOM     14  C   UNL     1       3.669   4.262  19.996  0.00  0.00    +0.000 A 
ATOM     15  C   UNL     1       2.568   3.738  20.675  0.00  0.00    +0.000 A 
ATOM     16  C   UNL     1       1.432   4.520  20.804  0.00  0.00    +0.000 A 
ATOM     17  N   UNL     1       1.313   5.766  20.296  0.00  0.00    +0.000 NA
ATOM     18  C   UNL     1       2.380   6.261  19.622  0.00  0.00    +0.000 A 
ATOM     19  C   UNL     1       3.565   5.549  19.458  0.00  0.00    +0.000 A 
BRANCH  18  20
ATOM     20  C   UNL     1       2.179   7.585  19.045  0.00  0.00    +0.000 A 
ATOM     21  C   UNL     1       2.536   8.169  17.844  0.00  0.00    +0.000 A 
ATOM     22  C   UNL     1       2.084   9.511  17.891  0.00  0.00    +0.000 A 
ATOM     23  C   UNL     1       1.470   9.662  19.111  0.00  0.00    +0.000 A 
ATOM     24  O   UNL     1       1.520   8.504  19.818  0.00  0.00    +0.000 OA
ENDBRANCH  18  20
ENDBRANCH  13  14
ENDBRANCH   3  13
TORSDOF 5
ENDMDL
MODEL 6
REMARK VINA RESULT:      -7.1      3.900      8.211
REMARK  Name = 
REMARK  6 active torsions:
REMARK  status: ('A' for Active; 'I' for Inactive)
REMARK    1  A    between atoms: C_1  and  O_2
REMARK    2  A    between atoms: O_2  and  C_3
REMARK    3  A    between atoms: C_8  and  C_9
REMARK    4  A    between atoms: N_11  and  C_12
REMARK    5  A    between atoms: C_12  and  C_13
REMARK    6  A    between atoms: C_17  and  C_18
REMARK                            x       y       z     vdW  Elec       q    Type
REMARK                         _______ _______ _______ _____ _____    ______ ____
ROOT
ATOM      1  C   UNL     1       2.575   5.006  18.426  0.00  0.00    +0.000 C 
ATOM      2  O   UNL     1       2.136   4.760  17.303  0.00  0.00    +0.000 OA
ATOM      3  N   UNL     1       3.357   6.105  18.685  0.00  0.00    +0.000 N 
ATOM      4  H   UNL     1       3.743   6.222  19.616  0.00  0.00    +0.000 HD
ENDROOT
BRANCH   1  10
ATOM      5  C   UNL     1       2.096   2.703  19.449  0.00  0.00    +0.000 A 
ATOM      6  N   UNL     1       1.821   1.891  20.504  0.00  0.00    +0.000 NA
ATOM      7  C   UNL     1       1.676   2.473  21.713  0.00  0.00    +0.000 A 
ATOM      8  C   UNL     1       1.793   3.834  21.924  0.00  0.00    +0.000 A 
ATOM      9  C   UNL     1       2.093   4.645  20.832  0.00  0.00    +0.000 A 
ATOM     10  C   UNL     1       2.262   4.084  19.558  0.00  0.00    +0.000 A 
BRANCH   5  12
ATOM     11  C   UNL     1       3.546   1.538  18.039  0.00  0.00    +0.000 C 
ATOM     12  O   UNL     1       2.247   2.100  18.216  0.00  0.00    +0.000 OA
ENDBRANCH   5  12
ENDBRANCH   1  10
BRANCH   3  13
ATOM     13  C   UNL     1       3.784   7.021  17.653  0.00  0.00    +0.000 C 
BRANCH  13  14
ATOM     14  C   UNL     1       5.095   6.588  17.054  0.00  0.00    +0.000 A 
ATOM     15  C   UNL     1       6.306   6.950  17.649  0.00  0.00    +0.000 A 
ATOM     16  C   UNL     1       7.487   6.554  17.044  0.00  0.00    +0.000 A 
ATOM     17  N   UNL     1       7.547   5.846  15.895  0.00  0.00    +0.000 NA
ATOM     18  C   UNL     1       6.368   5.513  15.315  0.00  0.00    +0.000 A 
ATOM     19  C   UNL     1       5.135   5.858  15.862  0.00  0.00    +0.000 A 
BRANCH  18  20
ATOM     20  C   UNL     1       6.488   4.801  14.049  0.00  0.00    +0.000 A 
ATOM     21  C   UNL     1       5.849   3.705  13.503  0.00  0.00    +0.000 A 
ATOM     22  C   UNL     1       6.445   3.468  12.241  0.00  0.00    +0.000 A 
ATOM     23  C   UNL     1       7.404   4.440  12.085  0.00  0.00    +0.000 A 
ATOM     24  O   UNL     1       7.439   5.253  13.172  0.00  0.00    +0.000 OA
ENDBRANCH  18  20
ENDBRANCH  13  14
ENDBRANCH   3  13
TORSDOF 5
ENDMDL
MODEL 7
REMARK VINA RESULT:      -7.1      3.928      8.156
REMARK  Name = 
REMARK  6 active torsions:
REMARK  status: ('A' for Active; 'I' for Inactive)
REMARK    1  A    between atoms: C_1  and  O_2
REMARK    2  A    between atoms: O_2  and  C_3
REMARK    3  A    between atoms: C_8  and  C_9
REMARK    4  A    between atoms: N_11  and  C_12
REMARK    5  A    between atoms: C_12  and  C_13
REMARK    6  A    between atoms: C_17  and  C_18
REMARK                            x       y       z     vdW  Elec       q    Type
REMARK                         _______ _______ _______ _____ _____    ______ ____
ROOT
ATOM      1  C   UNL     1       3.510   5.419  19.135  0.00  0.00    +0.000 C 
ATOM      2  O   UNL     1       4.605   5.617  19.660  0.00  0.00    +0.000 OA
ATOM      3  N   UNL     1       3.082   6.128  18.040  0.00  0.00    +0.000 N 
ATOM      4  H   UNL     1       2.143   5.966  17.689  0.00  0.00    +0.000 HD
ENDROOT
BRANCH   1  10
ATOM      5  C   UNL     1       1.787   3.529  18.949  0.00  0.00    +0.000 A 
ATOM      6  N   UNL     1       0.976   2.584  19.495  0.00  0.00    +0.000 NA
ATOM      7  C   UNL     1       0.947   2.495  20.841  0.00  0.00    +0.000 A 
ATOM      8  C   UNL     1       1.694   3.306  21.676  0.00  0.00    +0.000 A 
ATOM      9  C   UNL     1       2.531   4.255  21.094  0.00  0.00    +0.000 A 
ATOM     10  C   UNL     1       2.600   4.378  19.699  0.00  0.00    +0.000 A 
BRANCH   5  12
ATOM     11  C   UNL     1       2.741   2.699  16.987  0.00  0.00    +0.000 C 
ATOM     12  O   UNL     1       1.814   3.612  17.570  0.00  0.00    +0.000 OA
ENDBRANCH   5  12
ENDBRANCH   1  10
BRANCH   3  13
ATOM     13  C   UNL     1       3.846   7.208  17.459  0.00  0.00    +0.000 C 
BRANCH  13  14
ATOM     14  C   UNL     1       5.148   6.708  16.896  0.00  0.00    +0.000 A 
ATOM     15  C   UNL     1       6.363   7.047  17.497  0.00  0.00    +0.000 A 
ATOM     16  C   UNL     1       7.538   6.588  16.924  0.00  0.00    +0.000 A 
ATOM     17  N   UNL     1       7.587   5.839  15.801  0.00  0.00    +0.000 NA
ATOM     18  C   UNL     1       6.405   5.529  15.214  0.00  0.00    +0.000 A 
ATOM     19  C   UNL     1       5.178   5.936  15.730  0.00  0.00    +0.000 A 
BRANCH  18  20
ATOM     20  C   UNL     1       6.517   4.770  13.975  0.00  0.00    +0.000 A 
ATOM     21  C   UNL     1       7.432   4.757  12.940  0.00  0.00    +0.000 A 
ATOM     22  C   UNL     1       6.964   3.817  11.990  0.00  0.00    +0.000 A 
ATOM     23  C   UNL     1       5.797   3.304  12.506  0.00  0.00    +0.000 A 
ATOM     24  O   UNL     1       5.517   3.872  13.707  0.00  0.00    +0.000 OA
ENDBRANCH  18  20
ENDBRANCH  13  14
ENDBRANCH   3  13
TORSDOF 5
ENDMDL
MODEL 8
REMARK VINA RESULT:      -7.1      2.327      3.516
REMARK  Name = 
REMARK  6 active torsions:
REMARK  status: ('A' for Active; 'I' for Inactive)
REMARK    1  A    between atoms: C_1  and  O_2
REMARK    2  A    between atoms: O_2  and  C_3
REMARK    3  A    between atoms: C_8  and  C_9
REMARK    4  A    between atoms: N_11  and  C_12
REMARK    5  A    between atoms: C_12  and  C_13
REMARK    6  A    between atoms: C_17  and  C_18
REMARK                            x       y       z     vdW  Elec       q    Type
REMARK                         _______ _______ _______ _____ _____    ______ ____
ROOT
ATOM      1  C   UNL     1       4.862   3.346  17.579  0.00  0.00    +0.000 C 
ATOM      2  O   UNL     1       3.802   2.825  17.234  0.00  0.00    +0.000 OA
ATOM      3  N   UNL     1       5.326   3.285  18.871  0.00  0.00    +0.000 N 
ATOM      4  H   UNL     1       6.174   3.789  19.110  0.00  0.00    +0.000 HD
ENDROOT
BRANCH   1  10
ATOM      5  C   UNL     1       6.390   5.259  16.814  0.00  0.00    +0.000 A 
ATOM      6  N   UNL     1       7.138   5.897  15.874  0.00  0.00    +0.000 NA
ATOM      7  C   UNL     1       7.165   5.363  14.636  0.00  0.00    +0.000 A 
ATOM      8  C   UNL     1       6.481   4.214  14.285  0.00  0.00    +0.000 A 
ATOM      9  C   UNL     1       5.735   3.567  15.268  0.00  0.00    +0.000 A 
ATOM     10  C   UNL     1       5.684   4.081  16.571  0.00  0.00    +0.000 A 
BRANCH   5  12
ATOM     11  C   UNL     1       7.679   6.046  18.594  0.00  0.00    +0.000 C 
ATOM     12  O   UNL     1       6.369   5.810  18.080  0.00  0.00    +0.000 OA
ENDBRANCH   5  12
ENDBRANCH   1  10
BRANCH   3  13
ATOM     13  C   UNL     1       4.578   2.668  19.941  0.00  0.00    +0.000 C 
BRANCH  13  14
ATOM     14  C   UNL     1       3.268   3.374  20.163  0.00  0.00    +0.000 A 
ATOM     15  C   UNL     1       2.095   2.650  20.388  0.00  0.00    +0.000 A 
ATOM     16  C   UNL     1       0.908   3.343  20.556  0.00  0.00    +0.000 A 
ATOM     17  N   UNL     1       0.806   4.689  20.501  0.00  0.00    +0.000 NA
ATOM     18  C   UNL     1       1.946   5.384  20.265  0.00  0.00    +0.000 A 
ATOM     19  C   UNL     1       3.183   4.769  20.098  0.00  0.00    +0.000 A 
BRANCH  18  20
ATOM     20  C   UNL     1       1.771   6.827  20.157  0.00  0.00    +0.000 A 
ATOM     21  C   UNL     1       1.276   7.798  21.006  0.00  0.00    +0.000 A 
ATOM     22  C   UNL     1       1.331   9.026  20.303  0.00  0.00    +0.000 A 
ATOM     23  C   UNL     1       1.866   8.734  19.071  0.00  0.00    +0.000 A 
ATOM     24  O   UNL     1       2.137   7.408  18.970  0.00  0.00    +0.000 OA
ENDBRANCH  18  20
ENDBRANCH  13  14
ENDBRANCH   3  13
TORSDOF 5
ENDMDL
MODEL 9
REMARK VINA RESULT:      -7.1      3.111      4.361
REMARK  Name = 
REMARK  6 active torsions:
REMARK  status: ('A' for Active; 'I' for Inactive)
REMARK    1  A    between atoms: C_1  and  O_2
REMARK    2  A    between atoms: O_2  and  C_3
REMARK    3  A    between atoms: C_8  and  C_9
REMARK    4  A    between atoms: N_11  and  C_12
REMARK    5  A    between atoms: C_12  and  C_13
REMARK    6  A    between atoms: C_17  and  C_18
REMARK                            x       y       z     vdW  Elec       q    Type
REMARK                         _______ _______ _______ _____ _____    ______ ____
ROOT
ATOM      1  C   UNL     1       3.245   6.669  17.886  0.00  0.00    +0.000 C 
ATOM      2  O   UNL     1       4.108   7.036  17.090  0.00  0.00    +0.000 OA
ATOM      3  N   UNL     1       2.323   7.535  18.422  0.00  0.00    +0.000 N 
ATOM      4  H   UNL     1       1.676   7.187  19.123  0.00  0.00    +0.000 HD
ENDROOT
BRANCH   1  10
ATOM      5  C   UNL     1       4.080   4.612  19.171  0.00  0.00    +0.000 A 
ATOM      6  N   UNL     1       3.991   3.305  19.534  0.00  0.00    +0.000 NA
ATOM      7  C   UNL     1       2.993   2.577  18.991  0.00  0.00    +0.000 A 
ATOM      8  C   UNL     1       2.072   3.091  18.098  0.00  0.00    +0.000 A 
ATOM      9  C   UNL     1       2.172   4.437  17.753  0.00  0.00    +0.000 A 
ATOM     10  C   UNL     1       3.187   5.235  18.299  0.00  0.00    +0.000 A 
BRANCH   5  12
ATOM     11  C   UNL     1       6.348   5.154  19.071  0.00  0.00    +0.000 C 
ATOM     12  O   UNL     1       5.101   5.352  19.734  0.00  0.00    +0.000 OA
ENDBRANCH   5  12
ENDBRANCH   1  10
BRANCH   3  13
ATOM     13  C   UNL     1       2.335   8.954  18.153  0.00  0.00    +0.000 C 
BRANCH  13  14
ATOM     14  C   UNL     1       1.049   9.599  18.594  0.00  0.00    +0.000 A 
ATOM     15  C   UNL     1       0.847   9.948  19.931  0.00  0.00    +0.000 A 
ATOM     16  C   UNL     1      -0.366  10.511  20.294  0.00  0.00    +0.000 A 
ATOM     17  N   UNL     1      -1.383  10.733  19.434  0.00  0.00    +0.000 NA
ATOM     18  C   UNL     1      -1.185  10.375  18.141  0.00  0.00    +0.000 A 
ATOM     19  C   UNL     1       0.006   9.816  17.687  0.00  0.00    +0.000 A 
BRANCH  18  20
ATOM     20  C   UNL     1      -2.333  10.580  17.267  0.00  0.00    +0.000 A 
ATOM     21  C   UNL     1      -2.656  10.152  15.994  0.00  0.00    +0.000 A 
ATOM     22  C   UNL     1      -3.908  10.728  15.671  0.00  0.00    +0.000 A 
ATOM     23  C   UNL     1      -4.282  11.465  16.770  0.00  0.00    +0.000 A 
ATOM     24  O   UNL     1      -3.338  11.383  17.742  0.00  0.00    +0.000 OA
ENDBRANCH  18  20
ENDBRANCH  13  14
ENDBRANCH   3  13
TORSDOF 5
ENDMDL
