MODEL 1
REMARK VINA RESULT:      -7.2      0.000      0.000
REMARK  Name = 
REMARK  8 active torsions:
REMARK  status: ('A' for Active; 'I' for Inactive)
REMARK    1  A    between atoms: C_1  and  C_2
REMARK    2  A    between atoms: C_3  and  O_4
REMARK    3  A    between atoms: C_6  and  O_7
REMARK    4  A    between atoms: C_8  and  C_9
REMARK    5  A    between atoms: C_9  and  C_11
REMARK    6  A    between atoms: C_11  and  C_12
REMARK    7  A    between atoms: C_12  and  C_13
REMARK    8  A    between atoms: C_19  and  O_20
REMARK                            x       y       z     vdW  Elec       q    Type
REMARK                         _______ _______ _______ _____ _____    ______ ____
ROOT
ATOM      1  C   UNL     1       1.625   5.518  21.078  0.00  0.00    +0.000 C 
ATOM      2  C   UNL     1       2.263   4.429  20.252  0.00  0.00    +0.000 A 
ATOM      3  C   UNL     1       1.694   3.163  20.100  0.00  0.00    +0.000 A 
ATOM      4  C   UNL     1       2.316   2.188  19.328  0.00  0.00    +0.000 A 
ATOM      5  C   UNL     1       3.525   2.456  18.686  0.00  0.00    +0.000 A 
ATOM      6  C   UNL     1       4.150   3.708  18.803  0.00  0.00    +0.000 A 
ATOM      7  C   UNL     1       3.496   4.685  19.595  0.00  0.00    +0.000 A 
ENDROOT
BRANCH   3   8
ATOM      8  O   UNL     1       0.520   2.756  20.663  0.00  0.00    +0.000 OA
ATOM      9  H   UNL     1      -0.180   2.705  19.994  0.00  0.00    +0.000 HD
ENDBRANCH   3   8
BRANCH   5  10
ATOM     10  O   UNL     1       4.064   1.442  17.947  0.00  0.00    +0.000 OA
ATOM     11  H   UNL     1       3.931   1.608  16.998  0.00  0.00    +0.000 HD
ENDBRANCH   5  10
BRANCH   6  12
ATOM     12  C   UNL     1       5.469   4.025  18.118  0.00  0.00    +0.000 C 
ATOM     13  O   UNL     1       6.478   4.159  18.810  0.00  0.00    +0.000 OA
BRANCH  12  14
ATOM     14  C   UNL     1       5.490   4.165  16.597  0.00  0.00    +0.000 C 
BRANCH  14  15
ATOM     15  C   UNL     1       6.650   4.947  15.989  0.00  0.00    +0.000 C 
BRANCH  15  16
ATOM     16  C   UNL     1       6.745   4.689  14.494  0.00  0.00    +0.000 A 
ATOM     17  C   UNL     1       5.896   3.758  13.878  0.00  0.00    +0.000 A 
ATOM     18  C   UNL     1       5.983   3.505  12.506  0.00  0.00    +0.000 A 
ATOM     19  C   UNL     1       6.930   4.172  11.730  0.00  0.00    +0.000 A 
ATOM     20  C   UNL     1       7.797   5.086  12.330  0.00  0.00    +0.000 A 
ATOM     21  C   UNL     1       7.708   5.338  13.705  0.00  0.00    +0.000 A 
ENDBRANCH  15  16
ENDBRANCH  14  15
ENDBRANCH  12  14
ENDBRANCH   6  12
BRANCH   7  22
ATOM     22  O   UNL     1       4.023   5.944  19.777  0.00  0.00    +0.000 OA
ATOM     23  H   UNL     1       4.594   5.932  20.580  0.00  0.00    +0.000 HD
ENDBRANCH   7  22
TORSDOF 7
ENDMDL
MODEL 2
REMARK VINA RESULT:      -7.2      2.237      6.426
REMARK  Name = 
REMARK  8 active torsions:
REMARK  status: ('A' for Active; 'I' for Inactive)
REMARK    1  A    between atoms: C_1  and  C_2
REMARK    2  A    between atoms: C_3  and  O_4
REMARK    3  A    between atoms: C_6  and  O_7
REMARK    4  A    between atoms: C_8  and  C_9
REMARK    5  A    between atoms: C_9  and  C_11
REMARK    6  A    between atoms: C_11  and  C_12
REMARK    7  A    between atoms: C_12  and  C_13
REMARK    8  A    between atoms: C_19  and  O_20
REMARK                            x       y       z     vdW  Elec       q    Type
REMARK                         _______ _______ _______ _____ _____    ______ ____
ROOT
ATOM      1  C   UNL     1       5.445   4.683  14.553  0.00  0.00    +0.000 C 
ATOM      2  C   UNL     1       5.797   4.801  16.015  0.00  0.00    +0.000 A 
ATOM      3  C   UNL     1       6.909   5.511  16.471  0.00  0.00    +0.000 A 
ATOM      4  C   UNL     1       7.196   5.595  17.829  0.00  0.00    +0.000 A 
ATOM      5  C   UNL     1       6.376   4.969  18.767  0.00  0.00    +0.000 A 
ATOM      6  C   UNL     1       5.245   4.237  18.373  0.00  0.00    +0.000 A 
ATOM      7  C   UNL     1       4.973   4.166  16.983  0.00  0.00    +0.000 A 
ENDROOT
BRANCH   3   8
ATOM      8  O   UNL     1       7.798   6.174  15.676  0.00  0.00    +0.000 OA
ATOM      9  H   UNL     1       8.685   6.155  16.066  0.00  0.00    +0.000 HD
ENDBRANCH   3   8
BRANCH   5  10
ATOM     10  O   UNL     1       6.732   5.105  20.079  0.00  0.00    +0.000 OA
ATOM     11  H   UNL     1       6.588   6.021  20.374  0.00  0.00    +0.000 HD
ENDBRANCH   5  10
BRANCH   6  12
ATOM     12  C   UNL     1       4.337   3.541  19.374  0.00  0.00    +0.000 C 
ATOM     13  O   UNL     1       4.779   2.584  20.009  0.00  0.00    +0.000 OA
BRANCH  12  14
ATOM     14  C   UNL     1       2.911   4.059  19.552  0.00  0.00    +0.000 C 
BRANCH  14  15
ATOM     15  C   UNL     1       2.708   5.199  20.546  0.00  0.00    +0.000 C 
BRANCH  15  16
ATOM     16  C   UNL     1       2.405   6.498  19.816  0.00  0.00    +0.000 A 
ATOM     17  C   UNL     1       1.669   7.512  20.446  0.00  0.00    +0.000 A 
ATOM     18  C   UNL     1       1.377   8.706  19.780  0.00  0.00    +0.000 A 
ATOM     19  C   UNL     1       1.806   8.898  18.468  0.00  0.00    +0.000 A 
ATOM     20  C   UNL     1       2.520   7.891  17.818  0.00  0.00    +0.000 A 
ATOM     21  C   UNL     1       2.813   6.696  18.487  0.00  0.00    +0.000 A 
ENDBRANCH  15  16
ENDBRANCH  14  15
ENDBRANCH  12  14
ENDBRANCH   6  12
BRANCH   7  22
ATOM     22  O   UNL     1       3.892   3.472  16.489  0.00  0.00    +0.000 OA
ATOM     23  H   UNL     1       3.720   2.699  17.075  0.00  0.00    +0.000 HD
ENDBRANCH   7  22
TORSDOF 7
ENDMDL
MODEL 3
REMARK VINA RESULT:      -7.1      0.413      1.147
REMARK  Name = 
REMARK  8 active torsions:
REMARK  status: ('A' for Active; 'I' for Inactive)
REMARK    1  A    between atoms: C_1  and  C_2
REMARK    2  A    between atoms: C_3  and  O_4
REMARK    3  A    between atoms: C_6  and  O_7
REMARK    4  A    between atoms: C_8  and  C_9
REMARK    5  A    between atoms: C_9  and  C_11
REMARK    6  A    between atoms: C_11  and  C_12
REMARK    7  A    between atoms: C_12  and  C_13
REMARK    8  A    between atoms: C_19  and  O_20
REMARK                            x       y       z     vdW  Elec       q    Type
REMARK                         _______ _______ _______ _____ _____    ______ ____
ROOT
ATOM      1  C   UNL     1       1.389   5.763  20.681  0.00  0.00    +0.000 C 
ATOM      2  C   UNL     1       2.105   4.634  19.982  0.00  0.00    +0.000 A 
ATOM      3  C   UNL     1       1.527   3.378  19.787  0.00  0.00    +0.000 A 
ATOM      4  C   UNL     1       2.223   2.366  19.136  0.00  0.00    +0.000 A 
ATOM      5  C   UNL     1       3.517   2.585  18.662  0.00  0.00    +0.000 A 
ATOM      6  C   UNL     1       4.154   3.825  18.832  0.00  0.00    +0.000 A 
ATOM      7  C   UNL     1       3.424   4.841  19.498  0.00  0.00    +0.000 A 
ENDROOT
BRANCH   3   8
ATOM      8  O   UNL     1       0.275   3.017  20.190  0.00  0.00    +0.000 OA
ATOM      9  H   UNL     1       0.108   2.084  19.992  0.00  0.00    +0.000 HD
ENDBRANCH   3   8
BRANCH   5  10
ATOM     10  O   UNL     1       4.125   1.535  18.034  0.00  0.00    +0.000 OA
ATOM     11  H   UNL     1       4.666   1.031  18.665  0.00  0.00    +0.000 HD
ENDBRANCH   5  10
BRANCH   6  12
ATOM     12  C   UNL     1       5.565   4.088  18.330  0.00  0.00    +0.000 C 
ATOM     13  O   UNL     1       6.414   4.478  19.131  0.00  0.00    +0.000 OA
BRANCH  12  14
ATOM     14  C   UNL     1       5.871   3.858  16.852  0.00  0.00    +0.000 C 
BRANCH  14  15
ATOM     15  C   UNL     1       5.732   5.059  15.920  0.00  0.00    +0.000 C 
BRANCH  15  16
ATOM     16  C   UNL     1       6.223   4.714  14.524  0.00  0.00    +0.000 A 
ATOM     17  C   UNL     1       7.338   5.369  13.979  0.00  0.00    +0.000 A 
ATOM     18  C   UNL     1       7.790   5.067  12.692  0.00  0.00    +0.000 A 
ATOM     19  C   UNL     1       7.127   4.112  11.924  0.00  0.00    +0.000 A 
ATOM     20  C   UNL     1       6.003   3.466  12.440  0.00  0.00    +0.000 A 
ATOM     21  C   UNL     1       5.551   3.770  13.731  0.00  0.00    +0.000 A 
ENDBRANCH  15  16
ENDBRANCH  14  15
ENDBRANCH  12  14
ENDBRANCH   6  12
BRANCH   7  22
ATOM     22  O   UNL     1       3.955   6.092  19.718  0.00  0.00    +0.000 OA
ATOM     23  H   UNL     1       3.220   6.712  19.928  0.00  0.00    +0.000 HD
ENDBRANCH   7  22
TORSDOF 7
ENDMDL
MODEL 4
REMARK VINA RESULT:      -7.1      1.881      6.443
REMARK  Name = 
REMARK  8 active torsions:
REMARK  status: ('A' for Active; 'I' for Inactive)
REMARK    1  A    between atoms: C_1  and  C_2
REMARK    2  A    between atoms: C_3  and  O_4
REMARK    3  A    between atoms: C_6  and  O_7
REMARK    4  A    between atoms: C_8  and  C_9
REMARK    5  A    between atoms: C_9  and  C_11
REMARK    6  A    between atoms: C_11  and  C_12
REMARK    7  A    between atoms: C_12  and  C_13
REMARK    8  A    between atoms: C_19  and  O_20
REMARK                            x       y       z     vdW  Elec       q    Type
REMARK                         _______ _______ _______ _____ _____    ______ ____
ROOT
ATOM      1  C   UNL     1       7.272   4.859  14.732  0.00  0.00    +0.000 C 
ATOM      2  C   UNL     1       6.732   5.035  16.130  0.00  0.00    +0.000 A 
ATOM      3  C   UNL     1       7.047   6.134  16.930  0.00  0.00    +0.000 A 
ATOM      4  C   UNL     1       6.526   6.257  18.213  0.00  0.00    +0.000 A 
ATOM      5  C   UNL     1       5.673   5.281  18.728  0.00  0.00    +0.000 A 
ATOM      6  C   UNL     1       5.320   4.150  17.975  0.00  0.00    +0.000 A 
ATOM      7  C   UNL     1       5.865   4.048  16.670  0.00  0.00    +0.000 A 
ENDROOT
BRANCH   3   8
ATOM      8  O   UNL     1       7.862   7.165  16.564  0.00  0.00    +0.000 OA
ATOM      9  H   UNL     1       8.407   7.452  17.312  0.00  0.00    +0.000 HD
ENDBRANCH   3   8
BRANCH   5  10
ATOM     10  O   UNL     1       5.206   5.484  19.996  0.00  0.00    +0.000 OA
ATOM     11  H   UNL     1       4.869   4.651  20.369  0.00  0.00    +0.000 HD
ENDBRANCH   5  10
BRANCH   6  12
ATOM     12  C   UNL     1       4.397   3.069  18.514  0.00  0.00    +0.000 C 
ATOM     13  O   UNL     1       4.727   2.463  19.533  0.00  0.00    +0.000 OA
BRANCH  12  14
ATOM     14  C   UNL     1       3.095   2.781  17.769  0.00  0.00    +0.000 C 
BRANCH  14  15
ATOM     15  C   UNL     1       1.800   3.228  18.440  0.00  0.00    +0.000 C 
BRANCH  15  16
ATOM     16  C   UNL     1       1.902   4.675  18.892  0.00  0.00    +0.000 A 
ATOM     17  C   UNL     1       2.214   5.687  17.973  0.00  0.00    +0.000 A 
ATOM     18  C   UNL     1       2.321   7.019  18.381  0.00  0.00    +0.000 A 
ATOM     19  C   UNL     1       2.131   7.359  19.719  0.00  0.00    +0.000 A 
ATOM     20  C   UNL     1       1.842   6.363  20.652  0.00  0.00    +0.000 A 
ATOM     21  C   UNL     1       1.735   5.028  20.241  0.00  0.00    +0.000 A 
ENDBRANCH  15  16
ENDBRANCH  14  15
ENDBRANCH  12  14
ENDBRANCH   6  12
BRANCH   7  22
ATOM     22  O   UNL     1       5.586   2.979  15.848  0.00  0.00    +0.000 OA
ATOM     23  H   UNL     1       4.948   3.273  15.157  0.00  0.00    +0.000 HD
ENDBRANCH   7  22
TORSDOF 7
ENDMDL
MODEL 5
REMARK VINA RESULT:      -7.1      1.550      1.875
REMARK  Name = 
REMARK  8 active torsions:
REMARK  status: ('A' for Active; 'I' for Inactive)
REMARK    1  A    between atoms: C_1  and  C_2
REMARK    2  A    between atoms: C_3  and  O_4
REMARK    3  A    between atoms: C_6  and  O_7
REMARK    4  A    between atoms: C_8  and  C_9
REMARK    5  A    between atoms: C_9  and  C_11
REMARK    6  A    between atoms: C_11  and  C_12
REMARK    7  A    between atoms: C_12  and  C_13
REMARK    8  A    between atoms: C_19  and  O_20
REMARK                            x       y       z     vdW  Elec       q    Type
REMARK                         _______ _______ _______ _____ _____    ______ ____
ROOT
ATOM      1  C   UNL     1       2.461   7.416  18.216  0.00  0.00    +0.000 C 
ATOM      2  C   UNL     1       3.207   6.161  18.597  0.00  0.00    +0.000 A 
ATOM      3  C   UNL     1       2.608   5.104  19.285  0.00  0.00    +0.000 A 
ATOM      4  C   UNL     1       3.333   3.965  19.615  0.00  0.00    +0.000 A 
ATOM      5  C   UNL     1       4.678   3.853  19.264  0.00  0.00    +0.000 A 
ATOM      6  C   UNL     1       5.339   4.883  18.575  0.00  0.00    +0.000 A 
ATOM      7  C   UNL     1       4.578   6.034  18.249  0.00  0.00    +0.000 A 
ENDROOT
BRANCH   3   8
ATOM      8  O   UNL     1       1.306   5.069  19.692  0.00  0.00    +0.000 OA
ATOM      9  H   UNL     1       0.713   4.980  18.931  0.00  0.00    +0.000 HD
ENDBRANCH   3   8
BRANCH   5  10
ATOM     10  O   UNL     1       5.312   2.699  19.626  0.00  0.00    +0.000 OA
ATOM     11  H   UNL     1       5.247   2.040  18.913  0.00  0.00    +0.000 HD
ENDBRANCH   5  10
BRANCH   6  12
ATOM     12  C   UNL     1       6.805   4.789  18.184  0.00  0.00    +0.000 C 
ATOM     13  O   UNL     1       7.661   5.000  19.043  0.00  0.00    +0.000 OA
BRANCH  12  14
ATOM     14  C   UNL     1       7.156   4.437  16.740  0.00  0.00    +0.000 C 
BRANCH  14  15
ATOM     15  C   UNL     1       5.998   4.087  15.811  0.00  0.00    +0.000 C 
BRANCH  15  16
ATOM     16  C   UNL     1       6.421   4.214  14.356  0.00  0.00    +0.000 A 
ATOM     17  C   UNL     1       5.862   3.378  13.378  0.00  0.00    +0.000 A 
ATOM     18  C   UNL     1       6.253   3.479  12.040  0.00  0.00    +0.000 A 
ATOM     19  C   UNL     1       7.218   4.410  11.661  0.00  0.00    +0.000 A 
ATOM     20  C   UNL     1       7.802   5.234  12.624  0.00  0.00    +0.000 A 
ATOM     21  C   UNL     1       7.409   5.132  13.964  0.00  0.00    +0.000 A 
ENDBRANCH  15  16
ENDBRANCH  14  15
ENDBRANCH  12  14
ENDBRANCH   6  12
BRANCH   7  22
ATOM     22  O   UNL     1       5.128   7.102  17.577  0.00  0.00    +0.000 OA
ATOM     23  H   UNL     1       6.047   7.240  17.905  0.00  0.00    +0.000 HD
ENDBRANCH   7  22
TORSDOF 7
ENDMDL
MODEL 6
REMARK VINA RESULT:      -7.1      2.373      6.653
REMARK  Name = 
REMARK  8 active torsions:
REMARK  status: ('A' for Active; 'I' for Inactive)
REMARK    1  A    between atoms: C_1  and  C_2
REMARK    2  A    between atoms: C_3  and  O_4
REMARK    3  A    between atoms: C_6  and  O_7
REMARK    4  A    between atoms: C_8  and  C_9
REMARK    5  A    between atoms: C_9  and  C_11
REMARK    6  A    between atoms: C_11  and  C_12
REMARK    7  A    between atoms: C_12  and  C_13
REMARK    8  A    between atoms: C_19  and  O_20
REMARK                            x       y       z     vdW  Elec       q    Type
REMARK                         _______ _______ _______ _____ _____    ______ ____
ROOT
ATOM      1  C   UNL     1       7.376   5.207  14.975  0.00  0.00    +0.000 C 
ATOM      2  C   UNL     1       6.664   5.335  16.299  0.00  0.00    +0.000 A 
ATOM      3  C   UNL     1       7.115   4.714  17.465  0.00  0.00    +0.000 A 
ATOM      4  C   UNL     1       6.428   4.859  18.664  0.00  0.00    +0.000 A 
ATOM      5  C   UNL     1       5.269   5.632  18.729  0.00  0.00    +0.000 A 
ATOM      6  C   UNL     1       4.761   6.280  17.591  0.00  0.00    +0.000 A 
ATOM      7  C   UNL     1       5.480   6.116  16.380  0.00  0.00    +0.000 A 
ENDROOT
BRANCH   3   8
ATOM      8  O   UNL     1       8.229   3.931  17.557  0.00  0.00    +0.000 OA
ATOM      9  H   UNL     1       8.365   3.637  18.470  0.00  0.00    +0.000 HD
ENDBRANCH   3   8
BRANCH   5  10
ATOM     10  O   UNL     1       4.660   5.722  19.948  0.00  0.00    +0.000 OA
ATOM     11  H   UNL     1       4.978   5.016  20.537  0.00  0.00    +0.000 HD
ENDBRANCH   5  10
BRANCH   6  12
ATOM     12  C   UNL     1       3.498   7.124  17.632  0.00  0.00    +0.000 C 
ATOM     13  O   UNL     1       3.548   8.285  17.226  0.00  0.00    +0.000 OA
BRANCH  12  14
ATOM     14  C   UNL     1       2.216   6.496  18.175  0.00  0.00    +0.000 C 
BRANCH  14  15
ATOM     15  C   UNL     1       1.859   5.102  17.670  0.00  0.00    +0.000 C 
BRANCH  15  16
ATOM     16  C   UNL     1       1.790   4.115  18.824  0.00  0.00    +0.000 A 
ATOM     17  C   UNL     1       1.401   4.542  20.102  0.00  0.00    +0.000 A 
ATOM     18  C   UNL     1       1.345   3.645  21.172  0.00  0.00    +0.000 A 
ATOM     19  C   UNL     1       1.689   2.307  20.983  0.00  0.00    +0.000 A 
ATOM     20  C   UNL     1       2.100   1.869  19.724  0.00  0.00    +0.000 A 
ATOM     21  C   UNL     1       2.155   2.770  18.652  0.00  0.00    +0.000 A 
ENDBRANCH  15  16
ENDBRANCH  14  15
ENDBRANCH  12  14
ENDBRANCH   6  12
BRANCH   7  22
ATOM     22  O   UNL     1       5.068   6.705  15.205  0.00  0.00    +0.000 OA
ATOM     23  H   UNL     1       4.165   7.075  15.340  0.00  0.00    +0.000 HD
ENDBRANCH   7  22
TORSDOF 7
ENDMDL
MODEL 7
REMARK VINA RESULT:      -7.1      1.385      1.878
REMARK  Name = 
REMARK  8 active torsions:
REMARK  status: ('A' for Active; 'I' for Inactive)
REMARK    1  A    between atoms: C_1  and  C_2
REMARK    2  A    between atoms: C_3  and  O_4
REMARK    3  A    between atoms: C_6  and  O_7
REMARK    4  A    between atoms: C_8  and  C_9
REMARK    5  A    between atoms: C_9  and  C_11
REMARK    6  A    between atoms: C_11  and  C_12
REMARK    7  A    between atoms: C_12  and  C_13
REMARK    8  A    between atoms: C_19  and  O_20
REMARK                            x       y       z     vdW  Elec       q    Type
REMARK                         _______ _______ _______ _____ _____    ______ ____
ROOT
ATOM      1  C   UNL     1       1.901   6.733  18.242  0.00  0.00    +0.000 C 
ATOM      2  C   UNL     1       2.797   5.575  18.604  0.00  0.00    +0.000 A 
ATOM      3  C   UNL     1       2.328   4.425  19.239  0.00  0.00    +0.000 A 
ATOM      4  C   UNL     1       3.190   3.380  19.554  0.00  0.00    +0.000 A 
ATOM      5  C   UNL     1       4.546   3.460  19.239  0.00  0.00    +0.000 A 
ATOM      6  C   UNL     1       5.081   4.592  18.603  0.00  0.00    +0.000 A 
ATOM      7  C   UNL     1       4.182   5.644  18.293  0.00  0.00    +0.000 A 
ENDROOT
BRANCH   3   8
ATOM      8  O   UNL     1       1.033   4.202  19.606  0.00  0.00    +0.000 OA
ATOM      9  H   UNL     1       0.896   4.438  20.536  0.00  0.00    +0.000 HD
ENDBRANCH   3   8
BRANCH   5  10
ATOM     10  O   UNL     1       5.319   2.387  19.583  0.00  0.00    +0.000 OA
ATOM     11  H   UNL     1       6.206   2.471  19.192  0.00  0.00    +0.000 HD
ENDBRANCH   5  10
BRANCH   6  12
ATOM     12  C   UNL     1       6.556   4.707  18.254  0.00  0.00    +0.000 C 
ATOM     13  O   UNL     1       7.365   4.907  19.159  0.00  0.00    +0.000 OA
BRANCH  12  14
ATOM     14  C   UNL     1       6.974   4.570  16.791  0.00  0.00    +0.000 C 
BRANCH  14  15
ATOM     15  C   UNL     1       5.948   3.974  15.831  0.00  0.00    +0.000 C 
BRANCH  15  16
ATOM     16  C   UNL     1       6.410   4.129  14.391  0.00  0.00    +0.000 A 
ATOM     17  C   UNL     1       7.399   5.066  14.058  0.00  0.00    +0.000 A 
ATOM     18  C   UNL     1       7.822   5.224  12.735  0.00  0.00    +0.000 A 
ATOM     19  C   UNL     1       7.253   4.454  11.722  0.00  0.00    +0.000 A 
ATOM     20  C   UNL     1       6.252   3.532  12.031  0.00  0.00    +0.000 A 
ATOM     21  C   UNL     1       5.830   3.376  13.357  0.00  0.00    +0.000 A 
ENDBRANCH  15  16
ENDBRANCH  14  15
ENDBRANCH  12  14
ENDBRANCH   6  12
BRANCH   7  22
ATOM     22  O   UNL     1       4.602   6.798  17.672  0.00  0.00    +0.000 OA
ATOM     23  H   UNL     1       5.157   6.553  16.896  0.00  0.00    +0.000 HD
ENDBRANCH   7  22
TORSDOF 7
ENDMDL
MODEL 8
REMARK VINA RESULT:      -7.1      3.028      6.743
REMARK  Name = 
REMARK  8 active torsions:
REMARK  status: ('A' for Active; 'I' for Inactive)
REMARK    1  A    between atoms: C_1  and  C_2
REMARK    2  A    between atoms: C_3  and  O_4
REMARK    3  A    between atoms: C_6  and  O_7
REMARK    4  A    between atoms: C_8  and  C_9
REMARK    5  A    between atoms: C_9  and  C_11
REMARK    6  A    between atoms: C_11  and  C_12
REMARK    7  A    between atoms: C_12  and  C_13
REMARK    8  A    between atoms: C_19  and  O_20
REMARK                            x       y       z     vdW  Elec       q    Type
REMARK                         _______ _______ _______ _____ _____    ______ ____
ROOT
ATOM      1  C   UNL     1       8.234   5.433  20.131  0.00  0.00    +0.000 C 
ATOM      2  C   UNL     1       7.503   5.864  18.884  0.00  0.00    +0.000 A 
ATOM      3  C   UNL     1       7.713   7.101  18.273  0.00  0.00    +0.000 A 
ATOM      4  C   UNL     1       7.017   7.457  17.123  0.00  0.00    +0.000 A 
ATOM      5  C   UNL     1       6.092   6.582  16.553  0.00  0.00    +0.000 A 
ATOM      6  C   UNL     1       5.834   5.325  17.122  0.00  0.00    +0.000 A 
ATOM      7  C   UNL     1       6.555   4.985  18.294  0.00  0.00    +0.000 A 
ENDROOT
BRANCH   3   8
ATOM      8  O   UNL     1       8.583   8.057  18.711  0.00  0.00    +0.000 OA
ATOM      9  H   UNL     1       9.111   7.723  19.451  0.00  0.00    +0.000 HD
ENDBRANCH   3   8
BRANCH   5  10
ATOM     10  O   UNL     1       5.457   7.013  15.424  0.00  0.00    +0.000 OA
ATOM     11  H   UNL     1       4.881   7.770  15.628  0.00  0.00    +0.000 HD
ENDBRANCH   5  10
BRANCH   6  12
ATOM     12  C   UNL     1       4.828   4.354  16.525  0.00  0.00    +0.000 C 
ATOM     13  O   UNL     1       5.191   3.610  15.614  0.00  0.00    +0.000 OA
BRANCH  12  14
ATOM     14  C   UNL     1       3.405   4.341  17.080  0.00  0.00    +0.000 C 
BRANCH  14  15
ATOM     15  C   UNL     1       2.812   2.980  17.434  0.00  0.00    +0.000 C 
BRANCH  15  16
ATOM     16  C   UNL     1       2.418   2.933  18.901  0.00  0.00    +0.000 A 
ATOM     17  C   UNL     1       1.115   3.268  19.299  0.00  0.00    +0.000 A 
ATOM     18  C   UNL     1       0.746   3.238  20.646  0.00  0.00    +0.000 A 
ATOM     19  C   UNL     1       1.679   2.883  21.620  0.00  0.00    +0.000 A 
ATOM     20  C   UNL     1       2.985   2.568  21.245  0.00  0.00    +0.000 A 
ATOM     21  C   UNL     1       3.353   2.599  19.894  0.00  0.00    +0.000 A 
ENDBRANCH  15  16
ENDBRANCH  14  15
ENDBRANCH  12  14
ENDBRANCH   6  12
BRANCH   7  22
ATOM     22  O   UNL     1       6.376   3.778  18.933  0.00  0.00    +0.000 OA
ATOM     23  H   UNL     1       7.207   3.255  18.852  0.00  0.00    +0.000 HD
ENDBRANCH   7  22
TORSDOF 7
ENDMDL
MODEL 9
REMARK VINA RESULT:      -7.0      1.309      2.244
REMARK  Name = 
REMARK  8 active torsions:
REMARK  status: ('A' for Active; 'I' for Inactive)
REMARK    1  A    between atoms: C_1  and  C_2
REMARK    2  A    between atoms: C_3  and  O_4
REMARK    3  A    between atoms: C_6  and  O_7
REMARK    4  A    between atoms: C_8  and  C_9
REMARK    5  A    between atoms: C_9  and  C_11
REMARK    6  A    between atoms: C_11  and  C_12
REMARK    7  A    between atoms: C_12  and  C_13
REMARK    8  A    between atoms: C_19  and  O_20
REMARK                            x       y       z     vdW  Elec       q    Type
REMARK                         _______ _______ _______ _____ _____    ______ ____
ROOT
ATOM      1  C   UNL     1       2.719   2.566  21.062  0.00  0.00    +0.000 C 
ATOM      2  C   UNL     1       3.086   3.766  20.223  0.00  0.00    +0.000 A 
ATOM      3  C   UNL     1       2.241   4.866  20.066  0.00  0.00    +0.000 A 
ATOM      4  C   UNL     1       2.620   5.951  19.284  0.00  0.00    +0.000 A 
ATOM      5  C   UNL     1       3.857   5.964  18.639  0.00  0.00    +0.000 A 
ATOM      6  C   UNL     1       4.750   4.887  18.755  0.00  0.00    +0.000 A 
ATOM      7  C   UNL     1       4.340   3.792  19.558  0.00  0.00    +0.000 A 
ENDROOT
BRANCH   3   8
ATOM      8  O   UNL     1       1.008   4.997  20.634  0.00  0.00    +0.000 OA
ATOM      9  H   UNL     1       0.961   5.805  21.166  0.00  0.00    +0.000 HD
ENDBRANCH   3   8
BRANCH   5  10
ATOM     10  O   UNL     1       4.148   7.071  17.894  0.00  0.00    +0.000 OA
ATOM     11  H   UNL     1       3.332   7.455  17.527  0.00  0.00    +0.000 HD
ENDBRANCH   5  10
BRANCH   6  12
ATOM     12  C   UNL     1       6.101   4.872  18.060  0.00  0.00    +0.000 C 
ATOM     13  O   UNL     1       7.106   4.616  18.723  0.00  0.00    +0.000 OA
BRANCH  12  14
ATOM     14  C   UNL     1       6.157   5.176  16.564  0.00  0.00    +0.000 C 
BRANCH  14  15
ATOM     15  C   UNL     1       5.476   4.181  15.629  0.00  0.00    +0.000 C 
BRANCH  15  16
ATOM     16  C   UNL     1       6.099   4.236  14.243  0.00  0.00    +0.000 A 
ATOM     17  C   UNL     1       5.586   3.449  13.202  0.00  0.00    +0.000 A 
ATOM     18  C   UNL     1       6.158   3.483  11.927  0.00  0.00    +0.000 A 
ATOM     19  C   UNL     1       7.261   4.297  11.677  0.00  0.00    +0.000 A 
ATOM     20  C   UNL     1       7.799   5.070  12.707  0.00  0.00    +0.000 A 
ATOM     21  C   UNL     1       7.224   5.034  13.984  0.00  0.00    +0.000 A 
ENDBRANCH  15  16
ENDBRANCH  14  15
ENDBRANCH  12  14
ENDBRANCH   6  12
BRANCH   7  22
ATOM     22  O   UNL     1       5.138   2.684  19.737  0.00  0.00    +0.000 OA
ATOM     23  H   UNL     1       4.565   1.922  19.984  0.00  0.00    +0.000 HD
ENDBRANCH   7  22
TORSDOF 7
ENDMDL
