MODEL 1
REMARK VINA RESULT:      -8.5      0.000      0.000
REMARK  Name = 
REMARK  6 active torsions:
REMARK  status: ('A' for Active; 'I' for Inactive)
REMARK    1  A    between atoms: C_1  and  C_2
REMARK    2  A    between atoms: C_2  and  O_3
REMARK    3  A    between atoms: O_3  and  C_4
REMARK    4  A    between atoms: C_4  and  C_6
REMARK    5  A    between atoms: N_18  and  C_19
REMARK    6  A    between atoms: C_19  and  C_20
REMARK                            x       y       z     vdW  Elec       q    Type
REMARK                         _______ _______ _______ _____ _____    ______ ____
ROOT
ATOM      1  C   UNL     1       6.000   5.725  17.316  0.00  0.00    +0.000 C 
ATOM      2  C   UNL     1       6.178   5.264  15.880  0.00  0.00    +0.000 A 
ATOM      3  N   UNL     1       7.180   5.640  15.019  0.00  0.00    +0.000 N 
ATOM      4  C   UNL     1       7.068   4.951  13.829  0.00  0.00    +0.000 A 
ATOM      5  C   UNL     1       7.894   4.953  12.699  0.00  0.00    +0.000 A 
ATOM      6  C   UNL     1       7.531   4.127  11.629  0.00  0.00    +0.000 A 
ATOM      7  C   UNL     1       6.387   3.332  11.686  0.00  0.00    +0.000 A 
ATOM      8  C   UNL     1       5.570   3.347  12.820  0.00  0.00    +0.000 A 
ATOM      9  C   UNL     1       5.918   4.163  13.913  0.00  0.00    +0.000 A 
ATOM     10  C   UNL     1       5.353   4.404  15.191  0.00  0.00    +0.000 A 
ATOM     11  C   UNL     1       4.127   3.872  15.822  0.00  0.00    +0.000 C 
ATOM     12  C   UNL     1       4.310   3.851  17.353  0.00  0.00    +0.000 C 
ATOM     13  N   UNL     1       4.749   5.141  17.939  0.00  0.00    +0.000 NA
ATOM     14  H   UNL     1       7.945   6.260  15.243  0.00  0.00    +0.000 HD
ENDROOT
BRANCH   1  15
ATOM     15  C   UNL     1       7.300   5.621  18.169  0.00  0.00    +0.000 C 
ATOM     16  O   UNL     1       7.792   4.555  18.536  0.00  0.00    +0.000 OA
BRANCH  15  17
ATOM     17  O   UNL     1       7.755   6.825  18.621  0.00  0.00    +0.000 OA
BRANCH  17  19
ATOM     18  C   UNL     1       8.450   9.078  18.267  0.00  0.00    +0.000 C 
ATOM     19  C   UNL     1       7.709   7.896  17.665  0.00  0.00    +0.000 C 
ENDBRANCH  17  19
ENDBRANCH  15  17
ENDBRANCH   1  15
BRANCH  13  20
ATOM     20  C   UNL     1       4.813   5.061  19.411  0.00  0.00    +0.000 C 
BRANCH  20  21
ATOM     21  C   UNL     1       3.602   4.434  20.075  0.00  0.00    +0.000 A 
ATOM     22  C   UNL     1       2.368   5.105  20.076  0.00  0.00    +0.000 A 
ATOM     23  C   UNL     1       1.244   4.523  20.664  0.00  0.00    +0.000 A 
ATOM     24  C   UNL     1       1.340   3.263  21.252  0.00  0.00    +0.000 A 
ATOM     25  C   UNL     1       2.559   2.585  21.253  0.00  0.00    +0.000 A 
ATOM     26  C   UNL     1       3.684   3.168  20.668  0.00  0.00    +0.000 A 
ENDBRANCH  20  21
ENDBRANCH  13  20
TORSDOF 5
ENDMDL
MODEL 2
REMARK VINA RESULT:      -8.3      2.425      6.981
REMARK  Name = 
REMARK  6 active torsions:
REMARK  status: ('A' for Active; 'I' for Inactive)
REMARK    1  A    between atoms: C_1  and  C_2
REMARK    2  A    between atoms: C_2  and  O_3
REMARK    3  A    between atoms: O_3  and  C_4
REMARK    4  A    between atoms: C_4  and  C_6
REMARK    5  A    between atoms: N_18  and  C_19
REMARK    6  A    between atoms: C_19  and  C_20
REMARK                            x       y       z     vdW  Elec       q    Type
REMARK                         _______ _______ _______ _____ _____    ______ ____
ROOT
ATOM      1  C   UNL     1       4.291   4.977  18.084  0.00  0.00    +0.000 C 
ATOM      2  C   UNL     1       3.386   6.082  18.599  0.00  0.00    +0.000 A 
ATOM      3  N   UNL     1       2.737   6.111  19.809  0.00  0.00    +0.000 N 
ATOM      4  C   UNL     1       2.078   7.312  19.967  0.00  0.00    +0.000 A 
ATOM      5  C   UNL     1       1.352   7.812  21.055  0.00  0.00    +0.000 A 
ATOM      6  C   UNL     1       0.798   9.090  20.932  0.00  0.00    +0.000 A 
ATOM      7  C   UNL     1       0.959   9.840  19.767  0.00  0.00    +0.000 A 
ATOM      8  C   UNL     1       1.681   9.322  18.687  0.00  0.00    +0.000 A 
ATOM      9  C   UNL     1       2.256   8.040  18.790  0.00  0.00    +0.000 A 
ATOM     10  C   UNL     1       3.045   7.237  17.929  0.00  0.00    +0.000 A 
ATOM     11  C   UNL     1       3.527   7.476  16.553  0.00  0.00    +0.000 C 
ATOM     12  C   UNL     1       4.845   6.708  16.333  0.00  0.00    +0.000 C 
ATOM     13  N   UNL     1       4.785   5.268  16.682  0.00  0.00    +0.000 NA
ATOM     14  H   UNL     1       2.801   5.402  20.527  0.00  0.00    +0.000 HD
ENDROOT
BRANCH   1  15
ATOM     15  C   UNL     1       5.375   4.530  19.112  0.00  0.00    +0.000 C 
ATOM     16  O   UNL     1       5.513   3.370  19.496  0.00  0.00    +0.000 OA
BRANCH  15  17
ATOM     17  O   UNL     1       6.051   5.571  19.680  0.00  0.00    +0.000 OA
BRANCH  17  19
ATOM     18  C   UNL     1       7.837   6.649  18.526  0.00  0.00    +0.000 C 
ATOM     19  C   UNL     1       7.475   5.544  19.505  0.00  0.00    +0.000 C 
ENDBRANCH  17  19
ENDBRANCH  15  17
ENDBRANCH   1  15
BRANCH  13  20
ATOM     20  C   UNL     1       6.056   4.590  16.360  0.00  0.00    +0.000 C 
BRANCH  20  21
ATOM     21  C   UNL     1       6.369   4.478  14.879  0.00  0.00    +0.000 A 
ATOM     22  C   UNL     1       7.451   5.183  14.329  0.00  0.00    +0.000 A 
ATOM     23  C   UNL     1       7.758   5.066  12.972  0.00  0.00    +0.000 A 
ATOM     24  C   UNL     1       6.992   4.238  12.155  0.00  0.00    +0.000 A 
ATOM     25  C   UNL     1       5.918   3.529  12.691  0.00  0.00    +0.000 A 
ATOM     26  C   UNL     1       5.607   3.649  14.046  0.00  0.00    +0.000 A 
ENDBRANCH  20  21
ENDBRANCH  13  20
TORSDOF 5
ENDMDL
MODEL 3
REMARK VINA RESULT:      -8.1      2.480      7.336
REMARK  Name = 
REMARK  6 active torsions:
REMARK  status: ('A' for Active; 'I' for Inactive)
REMARK    1  A    between atoms: C_1  and  C_2
REMARK    2  A    between atoms: C_2  and  O_3
REMARK    3  A    between atoms: O_3  and  C_4
REMARK    4  A    between atoms: C_4  and  C_6
REMARK    5  A    between atoms: N_18  and  C_19
REMARK    6  A    between atoms: C_19  and  C_20
REMARK                            x       y       z     vdW  Elec       q    Type
REMARK                         _______ _______ _______ _____ _____    ______ ____
ROOT
ATOM      1  C   UNL     1       4.202   4.939  18.197  0.00  0.00    +0.000 C 
ATOM      2  C   UNL     1       3.306   6.054  18.706  0.00  0.00    +0.000 A 
ATOM      3  N   UNL     1       2.617   6.072  19.894  0.00  0.00    +0.000 N 
ATOM      4  C   UNL     1       1.981   7.284  20.057  0.00  0.00    +0.000 A 
ATOM      5  C   UNL     1       1.230   7.777  21.131  0.00  0.00    +0.000 A 
ATOM      6  C   UNL     1       0.711   9.072  21.019  0.00  0.00    +0.000 A 
ATOM      7  C   UNL     1       0.931   9.843  19.878  0.00  0.00    +0.000 A 
ATOM      8  C   UNL     1       1.677   9.332  18.812  0.00  0.00    +0.000 A 
ATOM      9  C   UNL     1       2.217   8.035  18.904  0.00  0.00    +0.000 A 
ATOM     10  C   UNL     1       3.017   7.232  18.052  0.00  0.00    +0.000 A 
ATOM     11  C   UNL     1       3.551   7.490  16.699  0.00  0.00    +0.000 C 
ATOM     12  C   UNL     1       4.858   6.695  16.507  0.00  0.00    +0.000 C 
ATOM     13  N   UNL     1       4.752   5.249  16.820  0.00  0.00    +0.000 NA
ATOM     14  H   UNL     1       2.639   5.346  20.596  0.00  0.00    +0.000 HD
ENDROOT
BRANCH   1  15
ATOM     15  C   UNL     1       5.239   4.443  19.250  0.00  0.00    +0.000 C 
ATOM     16  O   UNL     1       6.152   5.140  19.689  0.00  0.00    +0.000 OA
BRANCH  15  17
ATOM     17  O   UNL     1       5.149   3.108  19.519  0.00  0.00    +0.000 OA
BRANCH  17  19
ATOM     18  C   UNL     1       3.681   1.494  18.559  0.00  0.00    +0.000 C 
ATOM     19  C   UNL     1       3.814   2.589  19.604  0.00  0.00    +0.000 C 
ENDBRANCH  17  19
ENDBRANCH  15  17
ENDBRANCH   1  15
BRANCH  13  20
ATOM     20  C   UNL     1       6.016   4.547  16.525  0.00  0.00    +0.000 C 
BRANCH  20  21
ATOM     21  C   UNL     1       6.363   4.437  15.053  0.00  0.00    +0.000 A 
ATOM     22  C   UNL     1       5.581   3.642  14.198  0.00  0.00    +0.000 A 
ATOM     23  C   UNL     1       5.882   3.556  12.838  0.00  0.00    +0.000 A 
ATOM     24  C   UNL     1       6.961   4.267  12.317  0.00  0.00    +0.000 A 
ATOM     25  C   UNL     1       7.741   5.063  13.154  0.00  0.00    +0.000 A 
ATOM     26  C   UNL     1       7.444   5.147  14.516  0.00  0.00    +0.000 A 
ENDBRANCH  20  21
ENDBRANCH  13  20
TORSDOF 5
ENDMDL
MODEL 4
REMARK VINA RESULT:      -7.8      3.782      5.693
REMARK  Name = 
REMARK  6 active torsions:
REMARK  status: ('A' for Active; 'I' for Inactive)
REMARK    1  A    between atoms: C_1  and  C_2
REMARK    2  A    between atoms: C_2  and  O_3
REMARK    3  A    between atoms: O_3  and  C_4
REMARK    4  A    between atoms: C_4  and  C_6
REMARK    5  A    between atoms: N_18  and  C_19
REMARK    6  A    between atoms: C_19  and  C_20
REMARK                            x       y       z     vdW  Elec       q    Type
REMARK                         _______ _______ _______ _____ _____    ______ ____
ROOT
ATOM      1  C   UNL     1       2.878   5.865  20.033  0.00  0.00    +0.000 C 
ATOM      2  C   UNL     1       3.733   5.636  18.799  0.00  0.00    +0.000 A 
ATOM      3  N   UNL     1       4.498   4.528  18.528  0.00  0.00    +0.000 N 
ATOM      4  C   UNL     1       5.065   4.636  17.276  0.00  0.00    +0.000 A 
ATOM      5  C   UNL     1       5.853   3.730  16.556  0.00  0.00    +0.000 A 
ATOM      6  C   UNL     1       6.280   4.113  15.280  0.00  0.00    +0.000 A 
ATOM      7  C   UNL     1       5.935   5.355  14.745  0.00  0.00    +0.000 A 
ATOM      8  C   UNL     1       5.153   6.250  15.480  0.00  0.00    +0.000 A 
ATOM      9  C   UNL     1       4.704   5.884  16.764  0.00  0.00    +0.000 A 
ATOM     10  C   UNL     1       3.902   6.512  17.750  0.00  0.00    +0.000 A 
ATOM     11  C   UNL     1       3.263   7.844  17.773  0.00  0.00    +0.000 C 
ATOM     12  C   UNL     1       2.000   7.788  18.654  0.00  0.00    +0.000 C 
ATOM     13  N   UNL     1       2.218   7.229  20.010  0.00  0.00    +0.000 NA
ATOM     14  H   UNL     1       4.570   3.707  19.112  0.00  0.00    +0.000 HD
ENDROOT
BRANCH   1  15
ATOM     15  C   UNL     1       1.948   4.663  20.378  0.00  0.00    +0.000 C 
ATOM     16  O   UNL     1       1.941   4.097  21.470  0.00  0.00    +0.000 OA
BRANCH  15  17
ATOM     17  O   UNL     1       1.259   4.179  19.304  0.00  0.00    +0.000 OA
BRANCH  17  19
ATOM     18  C   UNL     1       1.995   2.237  18.135  0.00  0.00    +0.000 C 
ATOM     19  C   UNL     1       1.114   2.752  19.261  0.00  0.00    +0.000 C 
ENDBRANCH  17  19
ENDBRANCH  15  17
ENDBRANCH   1  15
BRANCH  13  20
ATOM     20  C   UNL     1       0.984   7.293  20.817  0.00  0.00    +0.000 C 
BRANCH  20  21
ATOM     21  C   UNL     1       0.549   8.690  21.219  0.00  0.00    +0.000 A 
ATOM     22  C   UNL     1       0.642   9.751  20.303  0.00  0.00    +0.000 A 
ATOM     23  C   UNL     1       0.220  11.033  20.659  0.00  0.00    +0.000 A 
ATOM     24  C   UNL     1      -0.303  11.266  21.930  0.00  0.00    +0.000 A 
ATOM     25  C   UNL     1      -0.404  10.219  22.845  0.00  0.00    +0.000 A 
ATOM     26  C   UNL     1       0.021   8.938  22.492  0.00  0.00    +0.000 A 
ENDBRANCH  20  21
ENDBRANCH  13  20
TORSDOF 5
ENDMDL
MODEL 5
REMARK VINA RESULT:      -7.6      2.411      7.398
REMARK  Name = 
REMARK  6 active torsions:
REMARK  status: ('A' for Active; 'I' for Inactive)
REMARK    1  A    between atoms: C_1  and  C_2
REMARK    2  A    between atoms: C_2  and  O_3
REMARK    3  A    between atoms: O_3  and  C_4
REMARK    4  A    between atoms: C_4  and  C_6
REMARK    5  A    between atoms: N_18  and  C_19
REMARK    6  A    between atoms: C_19  and  C_20
REMARK                            x       y       z     vdW  Elec       q    Type
REMARK                         _______ _______ _______ _____ _____    ______ ____
ROOT
ATOM      1  C   UNL     1       4.062   4.822  18.047  0.00  0.00    +0.000 C 
ATOM      2  C   UNL     1       3.207   5.939  18.617  0.00  0.00    +0.000 A 
ATOM      3  N   UNL     1       2.457   5.890  19.766  0.00  0.00    +0.000 N 
ATOM      4  C   UNL     1       1.885   7.120  20.014  0.00  0.00    +0.000 A 
ATOM      5  C   UNL     1       1.107   7.558  21.093  0.00  0.00    +0.000 A 
ATOM      6  C   UNL     1       0.672   8.888  21.081  0.00  0.00    +0.000 A 
ATOM      7  C   UNL     1       0.998   9.746  20.030  0.00  0.00    +0.000 A 
ATOM      8  C   UNL     1       1.769   9.290  18.957  0.00  0.00    +0.000 A 
ATOM      9  C   UNL     1       2.227   7.958  18.951  0.00  0.00    +0.000 A 
ATOM     10  C   UNL     1       3.023   7.188  18.066  0.00  0.00    +0.000 A 
ATOM     11  C   UNL     1       3.644   7.536  16.771  0.00  0.00    +0.000 C 
ATOM     12  C   UNL     1       4.910   6.682  16.567  0.00  0.00    +0.000 C 
ATOM     13  N   UNL     1       4.703   5.223  16.734  0.00  0.00    +0.000 NA
ATOM     14  H   UNL     1       2.398   5.103  20.396  0.00  0.00    +0.000 HD
ENDROOT
BRANCH   1  15
ATOM     15  C   UNL     1       5.010   4.166  19.096  0.00  0.00    +0.000 C 
ATOM     16  O   UNL     1       5.937   4.760  19.644  0.00  0.00    +0.000 OA
BRANCH  15  17
ATOM     17  O   UNL     1       4.828   2.820  19.231  0.00  0.00    +0.000 OA
BRANCH  17  19
ATOM     18  C   UNL     1       2.632   1.960  19.579  0.00  0.00    +0.000 C 
ATOM     19  C   UNL     1       3.908   2.426  20.260  0.00  0.00    +0.000 C 
ENDBRANCH  17  19
ENDBRANCH  15  17
ENDBRANCH   1  15
BRANCH  13  20
ATOM     20  C   UNL     1       5.938   4.473  16.435  0.00  0.00    +0.000 C 
BRANCH  20  21
ATOM     21  C   UNL     1       6.320   4.419  14.967  0.00  0.00    +0.000 A 
ATOM     22  C   UNL     1       7.382   5.200  14.482  0.00  0.00    +0.000 A 
ATOM     23  C   UNL     1       7.753   5.136  13.139  0.00  0.00    +0.000 A 
ATOM     24  C   UNL     1       7.071   4.289  12.268  0.00  0.00    +0.000 A 
ATOM     25  C   UNL     1       6.018   3.506  12.739  0.00  0.00    +0.000 A 
ATOM     26  C   UNL     1       5.644   3.571  14.082  0.00  0.00    +0.000 A 
ENDBRANCH  20  21
ENDBRANCH  13  20
TORSDOF 5
ENDMDL
MODEL 6
REMARK VINA RESULT:      -7.5      1.276      6.818
REMARK  Name = 
REMARK  6 active torsions:
REMARK  status: ('A' for Active; 'I' for Inactive)
REMARK    1  A    between atoms: C_1  and  C_2
REMARK    2  A    between atoms: C_2  and  O_3
REMARK    3  A    between atoms: O_3  and  C_4
REMARK    4  A    between atoms: C_4  and  C_6
REMARK    5  A    between atoms: N_18  and  C_19
REMARK    6  A    between atoms: C_19  and  C_20
REMARK                            x       y       z     vdW  Elec       q    Type
REMARK                         _______ _______ _______ _____ _____    ______ ____
ROOT
ATOM      1  C   UNL     1       5.857   3.881  17.353  0.00  0.00    +0.000 C 
ATOM      2  C   UNL     1       4.761   3.589  18.363  0.00  0.00    +0.000 A 
ATOM      3  N   UNL     1       4.896   2.891  19.538  0.00  0.00    +0.000 N 
ATOM      4  C   UNL     1       3.708   2.902  20.238  0.00  0.00    +0.000 A 
ATOM      5  C   UNL     1       3.395   2.389  21.502  0.00  0.00    +0.000 A 
ATOM      6  C   UNL     1       2.088   2.565  21.968  0.00  0.00    +0.000 A 
ATOM      7  C   UNL     1       1.129   3.227  21.200  0.00  0.00    +0.000 A 
ATOM      8  C   UNL     1       1.457   3.727  19.936  0.00  0.00    +0.000 A 
ATOM      9  C   UNL     1       2.769   3.569  19.449  0.00  0.00    +0.000 A 
ATOM     10  C   UNL     1       3.437   3.957  18.260  0.00  0.00    +0.000 A 
ATOM     11  C   UNL     1       2.946   4.666  17.061  0.00  0.00    +0.000 C 
ATOM     12  C   UNL     1       4.110   5.443  16.415  0.00  0.00    +0.000 C 
ATOM     13  N   UNL     1       5.322   4.631  16.150  0.00  0.00    +0.000 NA
ATOM     14  H   UNL     1       5.757   2.501  19.893  0.00  0.00    +0.000 HD
ENDROOT
BRANCH   1  15
ATOM     15  C   UNL     1       7.156   4.457  17.994  0.00  0.00    +0.000 C 
ATOM     16  O   UNL     1       8.279   4.002  17.786  0.00  0.00    +0.000 OA
BRANCH  15  17
ATOM     17  O   UNL     1       6.921   5.408  18.945  0.00  0.00    +0.000 OA
BRANCH  17  19
ATOM     18  C   UNL     1       7.782   7.416  17.992  0.00  0.00    +0.000 C 
ATOM     19  C   UNL     1       7.957   6.390  19.099  0.00  0.00    +0.000 C 
ENDBRANCH  17  19
ENDBRANCH  15  17
ENDBRANCH   1  15
BRANCH  13  20
ATOM     20  C   UNL     1       6.353   5.425  15.453  0.00  0.00    +0.000 C 
BRANCH  20  21
ATOM     21  C   UNL     1       6.707   4.938  14.060  0.00  0.00    +0.000 A 
ATOM     22  C   UNL     1       6.028   3.846  13.497  0.00  0.00    +0.000 A 
ATOM     23  C   UNL     1       6.334   3.410  12.207  0.00  0.00    +0.000 A 
ATOM     24  C   UNL     1       7.315   4.063  11.465  0.00  0.00    +0.000 A 
ATOM     25  C   UNL     1       7.993   5.152  12.012  0.00  0.00    +0.000 A 
ATOM     26  C   UNL     1       7.691   5.587  13.304  0.00  0.00    +0.000 A 
ENDBRANCH  20  21
ENDBRANCH  13  20
TORSDOF 5
ENDMDL
MODEL 7
REMARK VINA RESULT:      -7.3      5.907      8.555
REMARK  Name = 
REMARK  6 active torsions:
REMARK  status: ('A' for Active; 'I' for Inactive)
REMARK    1  A    between atoms: C_1  and  C_2
REMARK    2  A    between atoms: C_2  and  O_3
REMARK    3  A    between atoms: O_3  and  C_4
REMARK    4  A    between atoms: C_4  and  C_6
REMARK    5  A    between atoms: N_18  and  C_19
REMARK    6  A    between atoms: C_19  and  C_20
REMARK                            x       y       z     vdW  Elec       q    Type
REMARK                         _______ _______ _______ _____ _____    ______ ____
ROOT
ATOM      1  C   UNL     1       1.496   9.034  20.541  0.00  0.00    +0.000 C 
ATOM      2  C   UNL     1       1.893   7.641  20.088  0.00  0.00    +0.000 A 
ATOM      3  N   UNL     1       2.102   6.547  20.892  0.00  0.00    +0.000 N 
ATOM      4  C   UNL     1       2.363   5.433  20.123  0.00  0.00    +0.000 A 
ATOM      5  C   UNL     1       2.564   4.099  20.497  0.00  0.00    +0.000 A 
ATOM      6  C   UNL     1       2.797   3.168  19.479  0.00  0.00    +0.000 A 
ATOM      7  C   UNL     1       2.831   3.555  18.139  0.00  0.00    +0.000 A 
ATOM      8  C   UNL     1       2.635   4.893  17.784  0.00  0.00    +0.000 A 
ATOM      9  C   UNL     1       2.390   5.847  18.790  0.00  0.00    +0.000 A 
ATOM     10  C   UNL     1       2.133   7.241  18.792  0.00  0.00    +0.000 A 
ATOM     11  C   UNL     1       2.065   8.215  17.682  0.00  0.00    +0.000 C 
ATOM     12  C   UNL     1       1.113   9.363  18.069  0.00  0.00    +0.000 C 
ATOM     13  N   UNL     1       1.411   9.998  19.376  0.00  0.00    +0.000 NA
ATOM     14  H   UNL     1       1.992   6.528  21.896  0.00  0.00    +0.000 HD
ENDROOT
BRANCH   1  15
ATOM     15  C   UNL     1       0.289   9.048  21.528  0.00  0.00    +0.000 C 
ATOM     16  O   UNL     1      -0.729   8.377  21.368  0.00  0.00    +0.000 OA
BRANCH  15  17
ATOM     17  O   UNL     1       0.387  10.001  22.499  0.00  0.00    +0.000 OA
BRANCH  17  19
ATOM     18  C   UNL     1      -1.143  11.798  22.834  0.00  0.00    +0.000 C 
ATOM     19  C   UNL     1      -0.846  10.342  23.150  0.00  0.00    +0.000 C 
ENDBRANCH  17  19
ENDBRANCH  15  17
ENDBRANCH   1  15
BRANCH  13  20
ATOM     20  C   UNL     1       0.513  11.142  19.629  0.00  0.00    +0.000 C 
BRANCH  20  21
ATOM     21  C   UNL     1       1.099  12.504  19.308  0.00  0.00    +0.000 A 
ATOM     22  C   UNL     1       2.290  12.607  18.570  0.00  0.00    +0.000 A 
ATOM     23  C   UNL     1       2.820  13.858  18.251  0.00  0.00    +0.000 A 
ATOM     24  C   UNL     1       2.164  15.017  18.659  0.00  0.00    +0.000 A 
ATOM     25  C   UNL     1       0.979  14.927  19.388  0.00  0.00    +0.000 A 
ATOM     26  C   UNL     1       0.449  13.677  19.711  0.00  0.00    +0.000 A 
ENDBRANCH  20  21
ENDBRANCH  13  20
TORSDOF 5
ENDMDL
MODEL 8
REMARK VINA RESULT:      -7.3      5.664      8.376
REMARK  Name = 
REMARK  6 active torsions:
REMARK  status: ('A' for Active; 'I' for Inactive)
REMARK    1  A    between atoms: C_1  and  C_2
REMARK    2  A    between atoms: C_2  and  O_3
REMARK    3  A    between atoms: O_3  and  C_4
REMARK    4  A    between atoms: C_4  and  C_6
REMARK    5  A    between atoms: N_18  and  C_19
REMARK    6  A    between atoms: C_19  and  C_20
REMARK                            x       y       z     vdW  Elec       q    Type
REMARK                         _______ _______ _______ _____ _____    ______ ____
ROOT
ATOM      1  C   UNL     1       1.628   8.810  20.560  0.00  0.00    +0.000 C 
ATOM      2  C   UNL     1       1.954   7.397  20.109  0.00  0.00    +0.000 A 
ATOM      3  N   UNL     1       2.093   6.293  20.915  0.00  0.00    +0.000 N 
ATOM      4  C   UNL     1       2.302   5.167  20.148  0.00  0.00    +0.000 A 
ATOM      5  C   UNL     1       2.426   3.824  20.523  0.00  0.00    +0.000 A 
ATOM      6  C   UNL     1       2.619   2.882  19.507  0.00  0.00    +0.000 A 
ATOM      7  C   UNL     1       2.689   3.266  18.168  0.00  0.00    +0.000 A 
ATOM      8  C   UNL     1       2.569   4.613  17.811  0.00  0.00    +0.000 A 
ATOM      9  C   UNL     1       2.366   5.579  18.815  0.00  0.00    +0.000 A 
ATOM     10  C   UNL     1       2.185   6.985  18.815  0.00  0.00    +0.000 A 
ATOM     11  C   UNL     1       2.182   7.961  17.706  0.00  0.00    +0.000 C 
ATOM     12  C   UNL     1       1.290   9.160  18.083  0.00  0.00    +0.000 C 
ATOM     13  N   UNL     1       1.608   9.777  19.394  0.00  0.00    +0.000 NA
ATOM     14  H   UNL     1       1.972   6.280  21.918  0.00  0.00    +0.000 HD
ENDROOT
BRANCH   1  15
ATOM     15  C   UNL     1       0.413   8.889  21.533  0.00  0.00    +0.000 C 
ATOM     16  O   UNL     1      -0.611   8.221  21.400  0.00  0.00    +0.000 OA
BRANCH  15  17
ATOM     17  O   UNL     1       0.513   9.891  22.453  0.00  0.00    +0.000 OA
BRANCH  17  19
ATOM     18  C   UNL     1      -1.108  11.594  22.848  0.00  0.00    +0.000 C 
ATOM     19  C   UNL     1      -0.688  10.173  23.186  0.00  0.00    +0.000 C 
ENDBRANCH  17  19
ENDBRANCH  15  17
ENDBRANCH   1  15
BRANCH  13  20
ATOM     20  C   UNL     1       0.771  10.968  19.638  0.00  0.00    +0.000 C 
BRANCH  20  21
ATOM     21  C   UNL     1       1.504  12.294  19.573  0.00  0.00    +0.000 A 
ATOM     22  C   UNL     1       1.601  13.108  20.714  0.00  0.00    +0.000 A 
ATOM     23  C   UNL     1       2.295  14.318  20.665  0.00  0.00    +0.000 A 
ATOM     24  C   UNL     1       2.904  14.724  19.480  0.00  0.00    +0.000 A 
ATOM     25  C   UNL     1       2.820  13.922  18.343  0.00  0.00    +0.000 A 
ATOM     26  C   UNL     1       2.123  12.714  18.388  0.00  0.00    +0.000 A 
ENDBRANCH  20  21
ENDBRANCH  13  20
TORSDOF 5
ENDMDL
MODEL 9
REMARK VINA RESULT:      -7.3      3.723      5.667
REMARK  Name = 
REMARK  6 active torsions:
REMARK  status: ('A' for Active; 'I' for Inactive)
REMARK    1  A    between atoms: C_1  and  C_2
REMARK    2  A    between atoms: C_2  and  O_3
REMARK    3  A    between atoms: O_3  and  C_4
REMARK    4  A    between atoms: C_4  and  C_6
REMARK    5  A    between atoms: N_18  and  C_19
REMARK    6  A    between atoms: C_19  and  C_20
REMARK                            x       y       z     vdW  Elec       q    Type
REMARK                         _______ _______ _______ _____ _____    ______ ____
ROOT
ATOM      1  C   UNL     1       2.889   5.888  19.955  0.00  0.00    +0.000 C 
ATOM      2  C   UNL     1       3.747   5.653  18.724  0.00  0.00    +0.000 A 
ATOM      3  N   UNL     1       4.513   4.544  18.460  0.00  0.00    +0.000 N 
ATOM      4  C   UNL     1       5.083   4.646  17.209  0.00  0.00    +0.000 A 
ATOM      5  C   UNL     1       5.873   3.737  16.495  0.00  0.00    +0.000 A 
ATOM      6  C   UNL     1       6.303   4.114  15.219  0.00  0.00    +0.000 A 
ATOM      7  C   UNL     1       5.960   5.353  14.677  0.00  0.00    +0.000 A 
ATOM      8  C   UNL     1       5.176   6.251  15.406  0.00  0.00    +0.000 A 
ATOM      9  C   UNL     1       4.723   5.891  16.690  0.00  0.00    +0.000 A 
ATOM     10  C   UNL     1       3.919   6.524  17.671  0.00  0.00    +0.000 A 
ATOM     11  C   UNL     1       3.279   7.856  17.686  0.00  0.00    +0.000 C 
ATOM     12  C   UNL     1       2.014   7.804  18.564  0.00  0.00    +0.000 C 
ATOM     13  N   UNL     1       2.229   7.251  19.924  0.00  0.00    +0.000 NA
ATOM     14  H   UNL     1       4.583   3.726  19.049  0.00  0.00    +0.000 HD
ENDROOT
BRANCH   1  15
ATOM     15  C   UNL     1       1.958   4.687  20.303  0.00  0.00    +0.000 C 
ATOM     16  O   UNL     1       1.054   4.289  19.569  0.00  0.00    +0.000 OA
BRANCH  15  17
ATOM     17  O   UNL     1       2.121   4.219  21.574  0.00  0.00    +0.000 OA
BRANCH  17  19
ATOM     18  C   UNL     1       3.442   2.313  21.025  0.00  0.00    +0.000 C 
ATOM     19  C   UNL     1       2.168   2.790  21.700  0.00  0.00    +0.000 C 
ENDBRANCH  17  19
ENDBRANCH  15  17
ENDBRANCH   1  15
BRANCH  13  20
ATOM     20  C   UNL     1       0.993   7.319  20.727  0.00  0.00    +0.000 C 
BRANCH  20  21
ATOM     21  C   UNL     1       0.574   8.716  21.147  0.00  0.00    +0.000 A 
ATOM     22  C   UNL     1      -0.076   8.922  22.375  0.00  0.00    +0.000 A 
ATOM     23  C   UNL     1      -0.442  10.207  22.777  0.00  0.00    +0.000 A 
ATOM     24  C   UNL     1      -0.157  11.299  21.960  0.00  0.00    +0.000 A 
ATOM     25  C   UNL     1       0.491  11.108  20.741  0.00  0.00    +0.000 A 
ATOM     26  C   UNL     1       0.855   9.822  20.336  0.00  0.00    +0.000 A 
ENDBRANCH  20  21
ENDBRANCH  13  20
TORSDOF 5
ENDMDL
