MODEL 1
REMARK VINA RESULT:      -9.2      0.000      0.000
REMARK  Name = 
REMARK  6 active torsions:
REMARK  status: ('A' for Active; 'I' for Inactive)
REMARK    1  A    between atoms: N_1  and  C_2
REMARK    2  A    between atoms: C_2  and  C_3
REMARK    3  A    between atoms: C_2  and  C_27
REMARK    4  A    between atoms: C_6  and  N_7
REMARK    5  A    between atoms: C_9  and  C_10
REMARK    6  A    between atoms: C_19  and  C_20
REMARK                            x       y       z     vdW  Elec       q    Type
REMARK                         _______ _______ _______ _____ _____    ______ ____
ROOT
ATOM      1  N   UNL     1       3.744   5.615  17.859  0.00  0.00    +0.000 N 
ATOM      2  C   UNL     1       3.237   6.845  18.195  0.00  0.00    +0.000 A 
ATOM      3  C   UNL     1       2.379   6.677  19.263  0.00  0.00    +0.000 A 
ATOM      4  C   UNL     1       2.438   5.276  19.543  0.00  0.00    +0.000 A 
ATOM      5  N   UNL     1       3.266   4.650  18.679  0.00  0.00    +0.000 NA
ENDROOT
BRANCH   3   6
ATOM      6  C   UNL     1       1.669   7.802  19.865  0.00  0.00    +0.000 A 
ATOM      7  C   UNL     1       1.465   8.979  19.125  0.00  0.00    +0.000 A 
ATOM      8  C   UNL     1       0.821  10.096  19.678  0.00  0.00    +0.000 A 
ATOM      9  C   UNL     1       0.335  10.021  20.994  0.00  0.00    +0.000 A 
ATOM     10  C   UNL     1      -0.351  10.926  21.850  0.00  0.00    +0.000 A 
ATOM     11  C   UNL     1      -0.596  10.275  23.037  0.00  0.00    +0.000 A 
ATOM     12  N   UNL     1      -0.074   9.013  22.939  0.00  0.00    +0.000 N 
ATOM     13  C   UNL     1       0.525   8.842  21.711  0.00  0.00    +0.000 A 
ATOM     14  C   UNL     1       1.211   7.737  21.187  0.00  0.00    +0.000 A 
ATOM     15  H   UNL     1      -0.128   8.301  23.654  0.00  0.00    +0.000 HD
ENDBRANCH   3   6
BRANCH   1  19
ATOM     16  C   UNL     1       6.460   4.735  14.713  0.00  0.00    +0.000 A 
ATOM     17  C   UNL     1       5.996   3.716  15.560  0.00  0.00    +0.000 A 
ATOM     18  C   UNL     1       5.116   4.000  16.609  0.00  0.00    +0.000 A 
ATOM     19  C   UNL     1       4.682   5.313  16.833  0.00  0.00    +0.000 A 
ATOM     20  C   UNL     1       5.172   6.342  16.013  0.00  0.00    +0.000 A 
ATOM     21  C   UNL     1       6.051   6.053  14.964  0.00  0.00    +0.000 A 
BRANCH  16  22
ATOM     22  C   UNL     1       7.328   4.418  13.500  0.00  0.00    +0.000 C 
BRANCH  22  23
ATOM     23  C   UNL     1       6.529   3.818  12.289  0.00  0.00    +0.000 C 
ATOM     24  F   UNL     1       5.199   3.760  12.549  0.00  0.00    +0.000 F 
ATOM     25  F   UNL     1       6.688   4.584  11.182  0.00  0.00    +0.000 F 
ATOM     26  F   UNL     1       6.914   2.563  11.964  0.00  0.00    +0.000 F 
ENDBRANCH  22  23
BRANCH  22  27
ATOM     27  N   UNL     1       8.187   5.602  13.209  0.00  0.00    +0.000 NA
ATOM     28  H   UNL     1       7.746   6.153  12.471  0.00  0.00    +0.000 HD
ATOM     29  H   UNL     1       9.080   5.281  12.835  0.00  0.00    +0.000 HD
ENDBRANCH  22  27
ENDBRANCH  16  22
ENDBRANCH   1  19
BRANCH   4  30
ATOM     30  C   UNL     1       1.728   4.476  20.609  0.00  0.00    +0.000 C 
ATOM     31  F   UNL     1       1.777   3.131  20.416  0.00  0.00    +0.000 F 
ATOM     32  F   UNL     1       2.246   4.688  21.851  0.00  0.00    +0.000 F 
ATOM     33  F   UNL     1       0.405   4.796  20.679  0.00  0.00    +0.000 F 
ENDBRANCH   4  30
TORSDOF 6
ENDMDL
MODEL 2
REMARK VINA RESULT:      -9.1      0.226      1.141
REMARK  Name = 
REMARK  6 active torsions:
REMARK  status: ('A' for Active; 'I' for Inactive)
REMARK    1  A    between atoms: N_1  and  C_2
REMARK    2  A    between atoms: C_2  and  C_3
REMARK    3  A    between atoms: C_2  and  C_27
REMARK    4  A    between atoms: C_6  and  N_7
REMARK    5  A    between atoms: C_9  and  C_10
REMARK    6  A    between atoms: C_19  and  C_20
REMARK                            x       y       z     vdW  Elec       q    Type
REMARK                         _______ _______ _______ _____ _____    ______ ____
ROOT
ATOM      1  N   UNL     1       3.649   5.689  17.772  0.00  0.00    +0.000 N 
ATOM      2  C   UNL     1       3.133   6.908  18.130  0.00  0.00    +0.000 A 
ATOM      3  C   UNL     1       2.349   6.728  19.252  0.00  0.00    +0.000 A 
ATOM      4  C   UNL     1       2.463   5.331  19.539  0.00  0.00    +0.000 A 
ATOM      5  N   UNL     1       3.250   4.719  18.628  0.00  0.00    +0.000 NA
ENDROOT
BRANCH   3   6
ATOM      6  C   UNL     1       1.651   7.840  19.890  0.00  0.00    +0.000 A 
ATOM      7  C   UNL     1       1.472   9.048  19.194  0.00  0.00    +0.000 A 
ATOM      8  C   UNL     1       0.840  10.152  19.783  0.00  0.00    +0.000 A 
ATOM      9  C   UNL     1       0.338  10.035  21.090  0.00  0.00    +0.000 A 
ATOM     10  C   UNL     1      -0.343  10.917  21.973  0.00  0.00    +0.000 A 
ATOM     11  C   UNL     1      -0.612  10.225  23.131  0.00  0.00    +0.000 A 
ATOM     12  N   UNL     1      -0.108   8.960  22.990  0.00  0.00    +0.000 N 
ATOM     13  C   UNL     1       0.502   8.826  21.762  0.00  0.00    +0.000 A 
ATOM     14  C   UNL     1       1.176   7.731  21.204  0.00  0.00    +0.000 A 
ATOM     15  H   UNL     1      -0.181   8.221  23.676  0.00  0.00    +0.000 HD
ENDBRANCH   3   6
BRANCH   1  19
ATOM     16  C   UNL     1       6.355   4.803  14.619  0.00  0.00    +0.000 A 
ATOM     17  C   UNL     1       5.927   6.122  14.841  0.00  0.00    +0.000 A 
ATOM     18  C   UNL     1       5.022   6.419  15.866  0.00  0.00    +0.000 A 
ATOM     19  C   UNL     1       4.526   5.401  16.689  0.00  0.00    +0.000 A 
ATOM     20  C   UNL     1       4.922   4.075  16.448  0.00  0.00    +0.000 A 
ATOM     21  C   UNL     1       5.827   3.783  15.423  0.00  0.00    +0.000 A 
BRANCH  16  22
ATOM     22  C   UNL     1       7.425   4.487  13.580  0.00  0.00    +0.000 C 
BRANCH  22  23
ATOM     23  C   UNL     1       6.850   3.958  12.218  0.00  0.00    +0.000 C 
ATOM     24  F   UNL     1       7.176   4.777  11.188  0.00  0.00    +0.000 F 
ATOM     25  F   UNL     1       7.348   2.732  11.929  0.00  0.00    +0.000 F 
ATOM     26  F   UNL     1       5.501   3.851  12.214  0.00  0.00    +0.000 F 
ENDBRANCH  22  23
BRANCH  22  27
ATOM     27  N   UNL     1       8.366   5.643  13.500  0.00  0.00    +0.000 NA
ATOM     28  H   UNL     1       8.558   5.841  12.518  0.00  0.00    +0.000 HD
ATOM     29  H   UNL     1       9.256   5.377  13.921  0.00  0.00    +0.000 HD
ENDBRANCH  22  27
ENDBRANCH  16  22
ENDBRANCH   1  19
BRANCH   4  30
ATOM     30  C   UNL     1       1.845   4.523  20.655  0.00  0.00    +0.000 C 
ATOM     31  F   UNL     1       2.018   3.181  20.528  0.00  0.00    +0.000 F 
ATOM     32  F   UNL     1       2.354   4.846  21.876  0.00  0.00    +0.000 F 
ATOM     33  F   UNL     1       0.498   4.722  20.731  0.00  0.00    +0.000 F 
ENDBRANCH   4  30
TORSDOF 6
ENDMDL
MODEL 3
REMARK VINA RESULT:      -9.1      0.874      1.501
REMARK  Name = 
REMARK  6 active torsions:
REMARK  status: ('A' for Active; 'I' for Inactive)
REMARK    1  A    between atoms: N_1  and  C_2
REMARK    2  A    between atoms: C_2  and  C_3
REMARK    3  A    between atoms: C_2  and  C_27
REMARK    4  A    between atoms: C_6  and  N_7
REMARK    5  A    between atoms: C_9  and  C_10
REMARK    6  A    between atoms: C_19  and  C_20
REMARK                            x       y       z     vdW  Elec       q    Type
REMARK                         _______ _______ _______ _____ _____    ______ ____
ROOT
ATOM      1  N   UNL     1       3.768   5.599  17.814  0.00  0.00    +0.000 N 
ATOM      2  C   UNL     1       3.295   6.836  18.170  0.00  0.00    +0.000 A 
ATOM      3  C   UNL     1       2.419   6.671  19.225  0.00  0.00    +0.000 A 
ATOM      4  C   UNL     1       2.433   5.264  19.476  0.00  0.00    +0.000 A 
ATOM      5  N   UNL     1       3.253   4.631  18.607  0.00  0.00    +0.000 NA
ENDROOT
BRANCH   3   6
ATOM      6  C   UNL     1       1.737   7.804  19.842  0.00  0.00    +0.000 A 
ATOM      7  C   UNL     1       1.422   7.772  21.212  0.00  0.00    +0.000 A 
ATOM      8  C   UNL     1       0.734   8.823  21.836  0.00  0.00    +0.000 A 
ATOM      9  C   UNL     1       0.384   9.954  21.080  0.00  0.00    +0.000 A 
ATOM     10  C   UNL     1      -0.290  11.171  21.372  0.00  0.00    +0.000 A 
ATOM     11  C   UNL     1      -0.314  11.923  20.219  0.00  0.00    +0.000 A 
ATOM     12  N   UNL     1       0.309  11.203  19.236  0.00  0.00    +0.000 N 
ATOM     13  C   UNL     1       0.720   9.984  19.728  0.00  0.00    +0.000 A 
ATOM     14  C   UNL     1       1.362   8.919  19.081  0.00  0.00    +0.000 A 
ATOM     15  H   UNL     1       0.460  11.518  18.287  0.00  0.00    +0.000 HD
ENDBRANCH   3   6
BRANCH   1  19
ATOM     16  C   UNL     1       6.492   4.698  14.680  0.00  0.00    +0.000 A 
ATOM     17  C   UNL     1       6.032   3.686  15.536  0.00  0.00    +0.000 A 
ATOM     18  C   UNL     1       5.149   3.977  16.582  0.00  0.00    +0.000 A 
ATOM     19  C   UNL     1       4.709   5.290  16.792  0.00  0.00    +0.000 A 
ATOM     20  C   UNL     1       5.196   6.313  15.962  0.00  0.00    +0.000 A 
ATOM     21  C   UNL     1       6.078   6.017  14.917  0.00  0.00    +0.000 A 
BRANCH  16  22
ATOM     22  C   UNL     1       7.363   4.372  13.472  0.00  0.00    +0.000 C 
BRANCH  22  23
ATOM     23  C   UNL     1       6.562   3.797  12.250  0.00  0.00    +0.000 C 
ATOM     24  F   UNL     1       5.226   3.801  12.485  0.00  0.00    +0.000 F 
ATOM     25  F   UNL     1       6.776   4.544  11.140  0.00  0.00    +0.000 F 
ATOM     26  F   UNL     1       6.897   2.523  11.944  0.00  0.00    +0.000 F 
ENDBRANCH  22  23
BRANCH  22  27
ATOM     27  N   UNL     1       8.248   5.541  13.195  0.00  0.00    +0.000 NA
ATOM     28  H   UNL     1       7.753   6.188  12.580  0.00  0.00    +0.000 HD
ATOM     29  H   UNL     1       9.069   5.223  12.680  0.00  0.00    +0.000 HD
ENDBRANCH  22  27
ENDBRANCH  16  22
ENDBRANCH   1  19
BRANCH   4  30
ATOM     30  C   UNL     1       1.688   4.463  20.516  0.00  0.00    +0.000 C 
ATOM     31  F   UNL     1       0.375   4.795  20.634  0.00  0.00    +0.000 F 
ATOM     32  F   UNL     1       1.708   3.126  20.258  0.00  0.00    +0.000 F 
ATOM     33  F   UNL     1       2.228   4.627  21.757  0.00  0.00    +0.000 F 
ENDBRANCH   4  30
TORSDOF 6
ENDMDL
MODEL 4
REMARK VINA RESULT:      -9.0      0.872      1.731
REMARK  Name = 
REMARK  6 active torsions:
REMARK  status: ('A' for Active; 'I' for Inactive)
REMARK    1  A    between atoms: N_1  and  C_2
REMARK    2  A    between atoms: C_2  and  C_3
REMARK    3  A    between atoms: C_2  and  C_27
REMARK    4  A    between atoms: C_6  and  N_7
REMARK    5  A    between atoms: C_9  and  C_10
REMARK    6  A    between atoms: C_19  and  C_20
REMARK                            x       y       z     vdW  Elec       q    Type
REMARK                         _______ _______ _______ _____ _____    ______ ____
ROOT
ATOM      1  N   UNL     1       3.701   5.683  17.737  0.00  0.00    +0.000 N 
ATOM      2  C   UNL     1       3.237   6.913  18.126  0.00  0.00    +0.000 A 
ATOM      3  C   UNL     1       2.445   6.738  19.244  0.00  0.00    +0.000 A 
ATOM      4  C   UNL     1       2.500   5.331  19.494  0.00  0.00    +0.000 A 
ATOM      5  N   UNL     1       3.261   4.710  18.568  0.00  0.00    +0.000 NA
ENDROOT
BRANCH   3   6
ATOM      6  C   UNL     1       1.794   7.862  19.910  0.00  0.00    +0.000 A 
ATOM      7  C   UNL     1       1.533   7.804  21.289  0.00  0.00    +0.000 A 
ATOM      8  C   UNL     1       0.876   8.846  21.960  0.00  0.00    +0.000 A 
ATOM      9  C   UNL     1       0.504   9.994  21.240  0.00  0.00    +0.000 A 
ATOM     10  C   UNL     1      -0.151  11.208  21.582  0.00  0.00    +0.000 A 
ATOM     11  C   UNL     1      -0.216  11.983  20.447  0.00  0.00    +0.000 A 
ATOM     12  N   UNL     1       0.364  11.279  19.426  0.00  0.00    +0.000 N 
ATOM     13  C   UNL     1       0.786  10.049  19.878  0.00  0.00    +0.000 A 
ATOM     14  C   UNL     1       1.397   8.993  19.185  0.00  0.00    +0.000 A 
ATOM     15  H   UNL     1       0.480  11.612  18.478  0.00  0.00    +0.000 HD
ENDBRANCH   3   6
BRANCH   1  19
ATOM     16  C   UNL     1       6.374   4.774  14.561  0.00  0.00    +0.000 A 
ATOM     17  C   UNL     1       5.919   6.088  14.756  0.00  0.00    +0.000 A 
ATOM     18  C   UNL     1       5.025   6.393  15.788  0.00  0.00    +0.000 A 
ATOM     19  C   UNL     1       4.567   5.386  16.647  0.00  0.00    +0.000 A 
ATOM     20  C   UNL     1       4.989   4.064  16.435  0.00  0.00    +0.000 A 
ATOM     21  C   UNL     1       5.884   3.764  15.402  0.00  0.00    +0.000 A 
BRANCH  16  22
ATOM     22  C   UNL     1       7.433   4.454  13.513  0.00  0.00    +0.000 C 
BRANCH  22  23
ATOM     23  C   UNL     1       6.845   3.898  12.167  0.00  0.00    +0.000 C 
ATOM     24  F   UNL     1       5.496   3.778  12.226  0.00  0.00    +0.000 F 
ATOM     25  F   UNL     1       7.129   4.733  11.137  0.00  0.00    +0.000 F 
ATOM     26  F   UNL     1       7.329   2.679  11.837  0.00  0.00    +0.000 F 
ENDBRANCH  22  23
BRANCH  22  27
ATOM     27  N   UNL     1       8.359   5.620  13.403  0.00  0.00    +0.000 NA
ATOM     28  H   UNL     1       8.804   5.599  12.484  0.00  0.00    +0.000 HD
ATOM     29  H   UNL     1       9.107   5.516  14.088  0.00  0.00    +0.000 HD
ENDBRANCH  22  27
ENDBRANCH  16  22
ENDBRANCH   1  19
BRANCH   4  30
ATOM     30  C   UNL     1       1.846   4.522  20.589  0.00  0.00    +0.000 C 
ATOM     31  F   UNL     1       2.376   4.731  21.824  0.00  0.00    +0.000 F 
ATOM     32  F   UNL     1       0.516   4.788  20.710  0.00  0.00    +0.000 F 
ATOM     33  F   UNL     1       1.956   3.183  20.357  0.00  0.00    +0.000 F 
ENDBRANCH   4  30
TORSDOF 6
ENDMDL
MODEL 5
REMARK VINA RESULT:      -8.7      3.427      9.742
REMARK  Name = 
REMARK  6 active torsions:
REMARK  status: ('A' for Active; 'I' for Inactive)
REMARK    1  A    between atoms: N_1  and  C_2
REMARK    2  A    between atoms: C_2  and  C_3
REMARK    3  A    between atoms: C_2  and  C_27
REMARK    4  A    between atoms: C_6  and  N_7
REMARK    5  A    between atoms: C_9  and  C_10
REMARK    6  A    between atoms: C_19  and  C_20
REMARK                            x       y       z     vdW  Elec       q    Type
REMARK                         _______ _______ _______ _____ _____    ______ ____
ROOT
ATOM      1  N   UNL     1       1.195   7.967  20.676  0.00  0.00    +0.000 N 
ATOM      2  C   UNL     1       2.235   7.963  19.782  0.00  0.00    +0.000 A 
ATOM      3  C   UNL     1       2.646   6.656  19.610  0.00  0.00    +0.000 A 
ATOM      4  C   UNL     1       1.762   5.898  20.440  0.00  0.00    +0.000 A 
ATOM      5  N   UNL     1       0.894   6.711  21.081  0.00  0.00    +0.000 NA
ENDROOT
BRANCH   3   6
ATOM      6  C   UNL     1       3.745   6.307  18.714  0.00  0.00    +0.000 A 
ATOM      7  C   UNL     1       3.762   6.800  17.398  0.00  0.00    +0.000 A 
ATOM      8  C   UNL     1       4.778   6.459  16.495  0.00  0.00    +0.000 A 
ATOM      9  C   UNL     1       5.828   5.632  16.929  0.00  0.00    +0.000 A 
ATOM     10  C   UNL     1       6.992   5.102  16.309  0.00  0.00    +0.000 A 
ATOM     11  C   UNL     1       7.672   4.368  17.255  0.00  0.00    +0.000 A 
ATOM     12  N   UNL     1       6.957   4.423  18.421  0.00  0.00    +0.000 N 
ATOM     13  C   UNL     1       5.812   5.166  18.241  0.00  0.00    +0.000 A 
ATOM     14  C   UNL     1       4.775   5.458  19.139  0.00  0.00    +0.000 A 
ATOM     15  H   UNL     1       7.230   3.994  19.295  0.00  0.00    +0.000 HD
ENDBRANCH   3   6
BRANCH   1  19
ATOM     16  C   UNL     1      -0.942  11.383  22.021  0.00  0.00    +0.000 A 
ATOM     17  C   UNL     1      -0.514  10.406  22.934  0.00  0.00    +0.000 A 
ATOM     18  C   UNL     1       0.175   9.269  22.497  0.00  0.00    +0.000 A 
ATOM     19  C   UNL     1       0.448   9.088  21.135  0.00  0.00    +0.000 A 
ATOM     20  C   UNL     1      -0.011  10.043  20.214  0.00  0.00    +0.000 A 
ATOM     21  C   UNL     1      -0.698  11.178  20.656  0.00  0.00    +0.000 A 
BRANCH  16  22
ATOM     22  C   UNL     1      -1.592  12.677  22.500  0.00  0.00    +0.000 C 
BRANCH  22  23
ATOM     23  C   UNL     1      -3.067  12.496  23.006  0.00  0.00    +0.000 C 
ATOM     24  F   UNL     1      -3.560  13.647  23.527  0.00  0.00    +0.000 F 
ATOM     25  F   UNL     1      -3.884  12.136  21.986  0.00  0.00    +0.000 F 
ATOM     26  F   UNL     1      -3.189  11.552  23.967  0.00  0.00    +0.000 F 
ENDBRANCH  22  23
BRANCH  22  27
ATOM     27  N   UNL     1      -0.649  13.365  23.430  0.00  0.00    +0.000 NA
ATOM     28  H   UNL     1      -0.432  12.733  24.202  0.00  0.00    +0.000 HD
ATOM     29  H   UNL     1      -1.118  14.172  23.842  0.00  0.00    +0.000 HD
ENDBRANCH  22  27
ENDBRANCH  16  22
ENDBRANCH   1  19
BRANCH   4  30
ATOM     30  C   UNL     1       1.699   4.407  20.670  0.00  0.00    +0.000 C 
ATOM     31  F   UNL     1       2.334   3.672  19.719  0.00  0.00    +0.000 F 
ATOM     32  F   UNL     1       2.260   4.038  21.855  0.00  0.00    +0.000 F 
ATOM     33  F   UNL     1       0.412   3.958  20.694  0.00  0.00    +0.000 F 
ENDBRANCH   4  30
TORSDOF 6
ENDMDL
MODEL 6
REMARK VINA RESULT:      -8.7      3.304      9.414
REMARK  Name = 
REMARK  6 active torsions:
REMARK  status: ('A' for Active; 'I' for Inactive)
REMARK    1  A    between atoms: N_1  and  C_2
REMARK    2  A    between atoms: C_2  and  C_3
REMARK    3  A    between atoms: C_2  and  C_27
REMARK    4  A    between atoms: C_6  and  N_7
REMARK    5  A    between atoms: C_9  and  C_10
REMARK    6  A    between atoms: C_19  and  C_20
REMARK                            x       y       z     vdW  Elec       q    Type
REMARK                         _______ _______ _______ _____ _____    ______ ____
ROOT
ATOM      1  N   UNL     1       1.644   7.721  20.268  0.00  0.00    +0.000 N 
ATOM      2  C   UNL     1       2.403   7.459  19.156  0.00  0.00    +0.000 A 
ATOM      3  C   UNL     1       2.717   6.114  19.160  0.00  0.00    +0.000 A 
ATOM      4  C   UNL     1       2.072   5.607  20.331  0.00  0.00    +0.000 A 
ATOM      5  N   UNL     1       1.432   6.596  20.991  0.00  0.00    +0.000 NA
ENDROOT
BRANCH   3   6
ATOM      6  C   UNL     1       3.523   5.510  18.103  0.00  0.00    +0.000 A 
ATOM      7  C   UNL     1       3.141   4.276  17.549  0.00  0.00    +0.000 A 
ATOM      8  C   UNL     1       3.906   3.643  16.559  0.00  0.00    +0.000 A 
ATOM      9  C   UNL     1       5.065   4.278  16.081  0.00  0.00    +0.000 A 
ATOM     10  C   UNL     1       6.048   3.945  15.111  0.00  0.00    +0.000 A 
ATOM     11  C   UNL     1       6.948   4.985  15.053  0.00  0.00    +0.000 A 
ATOM     12  N   UNL     1       6.554   5.930  15.961  0.00  0.00    +0.000 N 
ATOM     13  C   UNL     1       5.422   5.510  16.623  0.00  0.00    +0.000 A 
ATOM     14  C   UNL     1       4.694   6.130  17.649  0.00  0.00    +0.000 A 
ATOM     15  H   UNL     1       7.015   6.816  16.120  0.00  0.00    +0.000 HD
ENDBRANCH   3   6
BRANCH   1  19
ATOM     16  C   UNL     1      -0.149  11.390  21.439  0.00  0.00    +0.000 A 
ATOM     17  C   UNL     1       0.435  11.256  20.170  0.00  0.00    +0.000 A 
ATOM     18  C   UNL     1       1.043  10.057  19.783  0.00  0.00    +0.000 A 
ATOM     19  C   UNL     1       1.080   8.966  20.662  0.00  0.00    +0.000 A 
ATOM     20  C   UNL     1       0.530   9.107  21.946  0.00  0.00    +0.000 A 
ATOM     21  C   UNL     1      -0.078  10.307  22.328  0.00  0.00    +0.000 A 
BRANCH  16  22
ATOM     22  C   UNL     1      -0.913  12.652  21.826  0.00  0.00    +0.000 C 
BRANCH  22  23
ATOM     23  C   UNL     1      -2.452  12.578  21.525  0.00  0.00    +0.000 C 
ATOM     24  F   UNL     1      -3.121  11.925  22.508  0.00  0.00    +0.000 F 
ATOM     25  F   UNL     1      -2.985  13.821  21.436  0.00  0.00    +0.000 F 
ATOM     26  F   UNL     1      -2.740  11.937  20.369  0.00  0.00    +0.000 F 
ENDBRANCH  22  23
BRANCH  22  27
ATOM     27  N   UNL     1      -0.524  13.035  23.215  0.00  0.00    +0.000 NA
ATOM     28  H   UNL     1      -0.021  12.255  23.640  0.00  0.00    +0.000 HD
ATOM     29  H   UNL     1      -1.368  13.171  23.771  0.00  0.00    +0.000 HD
ENDBRANCH  22  27
ENDBRANCH  16  22
ENDBRANCH   1  19
BRANCH   4  30
ATOM     30  C   UNL     1       2.035   4.199  20.876  0.00  0.00    +0.000 C 
ATOM     31  F   UNL     1       2.963   3.369  20.331  0.00  0.00    +0.000 F 
ATOM     32  F   UNL     1       2.247   4.155  22.221  0.00  0.00    +0.000 F 
ATOM     33  F   UNL     1       0.827   3.607  20.653  0.00  0.00    +0.000 F 
ENDBRANCH   4  30
TORSDOF 6
ENDMDL
MODEL 7
REMARK VINA RESULT:      -8.7      3.287      9.519
REMARK  Name = 
REMARK  6 active torsions:
REMARK  status: ('A' for Active; 'I' for Inactive)
REMARK    1  A    between atoms: N_1  and  C_2
REMARK    2  A    between atoms: C_2  and  C_3
REMARK    3  A    between atoms: C_2  and  C_27
REMARK    4  A    between atoms: C_6  and  N_7
REMARK    5  A    between atoms: C_9  and  C_10
REMARK    6  A    between atoms: C_19  and  C_20
REMARK                            x       y       z     vdW  Elec       q    Type
REMARK                         _______ _______ _______ _____ _____    ______ ____
ROOT
ATOM      1  N   UNL     1       1.749   7.537  20.215  0.00  0.00    +0.000 N 
ATOM      2  C   UNL     1       2.492   7.300  19.087  0.00  0.00    +0.000 A 
ATOM      3  C   UNL     1       2.835   5.963  19.074  0.00  0.00    +0.000 A 
ATOM      4  C   UNL     1       2.223   5.433  20.253  0.00  0.00    +0.000 A 
ATOM      5  N   UNL     1       1.575   6.403  20.933  0.00  0.00    +0.000 NA
ENDROOT
BRANCH   3   6
ATOM      6  C   UNL     1       3.633   5.384  17.998  0.00  0.00    +0.000 A 
ATOM      7  C   UNL     1       3.285   4.131  17.463  0.00  0.00    +0.000 A 
ATOM      8  C   UNL     1       4.046   3.523  16.454  0.00  0.00    +0.000 A 
ATOM      9  C   UNL     1       5.164   4.201  15.938  0.00  0.00    +0.000 A 
ATOM     10  C   UNL     1       6.131   3.901  14.941  0.00  0.00    +0.000 A 
ATOM     11  C   UNL     1       6.986   4.975  14.851  0.00  0.00    +0.000 A 
ATOM     12  N   UNL     1       6.581   5.911  15.765  0.00  0.00    +0.000 N 
ATOM     13  C   UNL     1       5.487   5.450  16.462  0.00  0.00    +0.000 A 
ATOM     14  C   UNL     1       4.764   6.047  17.505  0.00  0.00    +0.000 A 
ATOM     15  H   UNL     1       7.010   6.815  15.904  0.00  0.00    +0.000 HD
ENDBRANCH   3   6
BRANCH   1  19
ATOM     16  C   UNL     1      -0.092  11.151  21.480  0.00  0.00    +0.000 A 
ATOM     17  C   UNL     1       0.159  10.918  20.119  0.00  0.00    +0.000 A 
ATOM     18  C   UNL     1       0.781   9.739  19.695  0.00  0.00    +0.000 A 
ATOM     19  C   UNL     1       1.165   8.768  20.629  0.00  0.00    +0.000 A 
ATOM     20  C   UNL     1       0.951   9.012  21.995  0.00  0.00    +0.000 A 
ATOM     21  C   UNL     1       0.328  10.192  22.413  0.00  0.00    +0.000 A 
BRANCH  16  22
ATOM     22  C   UNL     1      -0.870  12.380  21.939  0.00  0.00    +0.000 C 
BRANCH  22  23
ATOM     23  C   UNL     1      -2.063  12.050  22.905  0.00  0.00    +0.000 C 
ATOM     24  F   UNL     1      -1.931  10.818  23.456  0.00  0.00    +0.000 F 
ATOM     25  F   UNL     1      -2.117  12.942  23.924  0.00  0.00    +0.000 F 
ATOM     26  F   UNL     1      -3.268  12.072  22.292  0.00  0.00    +0.000 F 
ENDBRANCH  22  23
BRANCH  22  27
ATOM     27  N   UNL     1       0.103  13.409  22.411  0.00  0.00    +0.000 NA
ATOM     28  H   UNL     1       1.027  12.981  22.470  0.00  0.00    +0.000 HD
ATOM     29  H   UNL     1      -0.146  13.692  23.358  0.00  0.00    +0.000 HD
ENDBRANCH  22  27
ENDBRANCH  16  22
ENDBRANCH   1  19
BRANCH   4  30
ATOM     30  C   UNL     1       2.226   4.020  20.787  0.00  0.00    +0.000 C 
ATOM     31  F   UNL     1       1.177   3.266  20.365  0.00  0.00    +0.000 F 
ATOM     32  F   UNL     1       3.344   3.330  20.429  0.00  0.00    +0.000 F 
ATOM     33  F   UNL     1       2.177   4.000  22.149  0.00  0.00    +0.000 F 
ENDBRANCH   4  30
TORSDOF 6
ENDMDL
MODEL 8
REMARK VINA RESULT:      -8.6      3.305      9.390
REMARK  Name = 
REMARK  6 active torsions:
REMARK  status: ('A' for Active; 'I' for Inactive)
REMARK    1  A    between atoms: N_1  and  C_2
REMARK    2  A    between atoms: C_2  and  C_3
REMARK    3  A    between atoms: C_2  and  C_27
REMARK    4  A    between atoms: C_6  and  N_7
REMARK    5  A    between atoms: C_9  and  C_10
REMARK    6  A    between atoms: C_19  and  C_20
REMARK                            x       y       z     vdW  Elec       q    Type
REMARK                         _______ _______ _______ _____ _____    ______ ____
ROOT
ATOM      1  N   UNL     1       1.593   7.537  20.177  0.00  0.00    +0.000 N 
ATOM      2  C   UNL     1       2.346   7.300  19.056  0.00  0.00    +0.000 A 
ATOM      3  C   UNL     1       2.774   5.988  19.097  0.00  0.00    +0.000 A 
ATOM      4  C   UNL     1       2.201   5.471  20.301  0.00  0.00    +0.000 A 
ATOM      5  N   UNL     1       1.493   6.426  20.943  0.00  0.00    +0.000 NA
ENDROOT
BRANCH   3   6
ATOM      6  C   UNL     1       3.604   5.415  18.042  0.00  0.00    +0.000 A 
ATOM      7  C   UNL     1       3.272   4.167  17.489  0.00  0.00    +0.000 A 
ATOM      8  C   UNL     1       4.063   3.564  16.500  0.00  0.00    +0.000 A 
ATOM      9  C   UNL     1       5.196   4.245  16.023  0.00  0.00    +0.000 A 
ATOM     10  C   UNL     1       6.194   3.951  15.054  0.00  0.00    +0.000 A 
ATOM     11  C   UNL     1       7.051   5.026  14.996  0.00  0.00    +0.000 A 
ATOM     12  N   UNL     1       6.619   5.955  15.903  0.00  0.00    +0.000 N 
ATOM     13  C   UNL     1       5.503   5.491  16.563  0.00  0.00    +0.000 A 
ATOM     14  C   UNL     1       4.749   6.082  17.588  0.00  0.00    +0.000 A 
ATOM     15  H   UNL     1       7.043   6.859  16.061  0.00  0.00    +0.000 HD
ENDBRANCH   3   6
BRANCH   1  19
ATOM     16  C   UNL     1      -0.271  11.195  21.272  0.00  0.00    +0.000 A 
ATOM     17  C   UNL     1      -0.280  10.100  22.150  0.00  0.00    +0.000 A 
ATOM     18  C   UNL     1       0.315   8.886  21.790  0.00  0.00    +0.000 A 
ATOM     19  C   UNL     1       0.933   8.745  20.541  0.00  0.00    +0.000 A 
ATOM     20  C   UNL     1       0.913   9.825  19.644  0.00  0.00    +0.000 A 
ATOM     21  C   UNL     1       0.318  11.036  20.009  0.00  0.00    +0.000 A 
BRANCH  16  22
ATOM     22  C   UNL     1      -0.816  12.553  21.701  0.00  0.00    +0.000 C 
BRANCH  22  23
ATOM     23  C   UNL     1      -2.345  12.745  21.398  0.00  0.00    +0.000 C 
ATOM     24  F   UNL     1      -2.695  12.174  20.220  0.00  0.00    +0.000 F 
ATOM     25  F   UNL     1      -3.102  12.170  22.364  0.00  0.00    +0.000 F 
ATOM     26  F   UNL     1      -2.715  14.045  21.324  0.00  0.00    +0.000 F 
ENDBRANCH  22  23
BRANCH  22  27
ATOM     27  N   UNL     1      -0.376  12.821  23.101  0.00  0.00    +0.000 NA
ATOM     28  H   UNL     1      -1.151  12.615  23.732  0.00  0.00    +0.000 HD
ATOM     29  H   UNL     1      -0.178  13.816  23.203  0.00  0.00    +0.000 HD
ENDBRANCH  22  27
ENDBRANCH  16  22
ENDBRANCH   1  19
BRANCH   4  30
ATOM     30  C   UNL     1       2.295   4.085  20.895  0.00  0.00    +0.000 C 
ATOM     31  F   UNL     1       3.388   3.384  20.494  0.00  0.00    +0.000 F 
ATOM     32  F   UNL     1       2.349   4.105  22.256  0.00  0.00    +0.000 F 
ATOM     33  F   UNL     1       1.217   3.322  20.559  0.00  0.00    +0.000 F 
ENDBRANCH   4  30
TORSDOF 6
ENDMDL
MODEL 9
REMARK VINA RESULT:      -8.6      3.299      9.495
REMARK  Name = 
REMARK  6 active torsions:
REMARK  status: ('A' for Active; 'I' for Inactive)
REMARK    1  A    between atoms: N_1  and  C_2
REMARK    2  A    between atoms: C_2  and  C_3
REMARK    3  A    between atoms: C_2  and  C_27
REMARK    4  A    between atoms: C_6  and  N_7
REMARK    5  A    between atoms: C_9  and  C_10
REMARK    6  A    between atoms: C_19  and  C_20
REMARK                            x       y       z     vdW  Elec       q    Type
REMARK                         _______ _______ _______ _____ _____    ______ ____
ROOT
ATOM      1  N   UNL     1       1.651   7.446  20.224  0.00  0.00    +0.000 N 
ATOM      2  C   UNL     1       2.396   7.236  19.092  0.00  0.00    +0.000 A 
ATOM      3  C   UNL     1       2.819   5.921  19.096  0.00  0.00    +0.000 A 
ATOM      4  C   UNL     1       2.251   5.374  20.288  0.00  0.00    +0.000 A 
ATOM      5  N   UNL     1       1.552   6.314  20.960  0.00  0.00    +0.000 NA
ENDROOT
BRANCH   3   6
ATOM      6  C   UNL     1       3.639   5.374  18.020  0.00  0.00    +0.000 A 
ATOM      7  C   UNL     1       3.316   4.128  17.455  0.00  0.00    +0.000 A 
ATOM      8  C   UNL     1       4.099   3.550  16.445  0.00  0.00    +0.000 A 
ATOM      9  C   UNL     1       5.215   4.252  15.960  0.00  0.00    +0.000 A 
ATOM     10  C   UNL     1       6.201   3.985  14.971  0.00  0.00    +0.000 A 
ATOM     11  C   UNL     1       7.042   5.072  14.914  0.00  0.00    +0.000 A 
ATOM     12  N   UNL     1       6.612   5.984  15.841  0.00  0.00    +0.000 N 
ATOM     13  C   UNL     1       5.514   5.495  16.512  0.00  0.00    +0.000 A 
ATOM     14  C   UNL     1       4.768   6.062  17.557  0.00  0.00    +0.000 A 
ATOM     15  H   UNL     1       7.027   6.891  16.005  0.00  0.00    +0.000 HD
ENDBRANCH   3   6
BRANCH   1  19
ATOM     16  C   UNL     1      -0.201  11.089  21.386  0.00  0.00    +0.000 A 
ATOM     17  C   UNL     1       0.209  10.158  22.353  0.00  0.00    +0.000 A 
ATOM     18  C   UNL     1       0.803   8.948  21.979  0.00  0.00    +0.000 A 
ATOM     19  C   UNL     1       0.999   8.645  20.625  0.00  0.00    +0.000 A 
ATOM     20  C   UNL     1       0.557   9.556  19.652  0.00  0.00    +0.000 A 
ATOM     21  C   UNL     1      -0.036  10.764  20.032  0.00  0.00    +0.000 A 
BRANCH  16  22
ATOM     22  C   UNL     1      -0.744  12.456  21.788  0.00  0.00    +0.000 C 
BRANCH  22  23
ATOM     23  C   UNL     1      -2.043  12.387  22.668  0.00  0.00    +0.000 C 
ATOM     24  F   UNL     1      -2.037  11.302  23.481  0.00  0.00    +0.000 F 
ATOM     25  F   UNL     1      -2.145  13.481  23.461  0.00  0.00    +0.000 F 
ATOM     26  F   UNL     1      -3.179  12.317  21.938  0.00  0.00    +0.000 F 
ENDBRANCH  22  23
BRANCH  22  27
ATOM     27  N   UNL     1       0.381  13.274  22.326  0.00  0.00    +0.000 NA
ATOM     28  H   UNL     1       0.240  13.405  23.328  0.00  0.00    +0.000 HD
ATOM     29  H   UNL     1       0.348  14.203  21.906  0.00  0.00    +0.000 HD
ENDBRANCH  22  27
ENDBRANCH  16  22
ENDBRANCH   1  19
BRANCH   4  30
ATOM     30  C   UNL     1       2.343   3.973  20.844  0.00  0.00    +0.000 C 
ATOM     31  F   UNL     1       2.259   3.908  22.199  0.00  0.00    +0.000 F 
ATOM     32  F   UNL     1       1.356   3.160  20.375  0.00  0.00    +0.000 F 
ATOM     33  F   UNL     1       3.525   3.379  20.513  0.00  0.00    +0.000 F 
ENDBRANCH   4  30
TORSDOF 6
ENDMDL
