MODEL 1
REMARK VINA RESULT:      -7.8      0.000      0.000
REMARK  Name = 
REMARK  9 active torsions:
REMARK  status: ('A' for Active; 'I' for Inactive)
REMARK    1  A    between atoms: C_1  and  C_2
REMARK    2  A    between atoms: C_2  and  C_3
REMARK    3  A    between atoms: C_3  and  C_4
REMARK    4  A    between atoms: C_4  and  O_5
REMARK    5  A    between atoms: O_5  and  C_6
REMARK    6  A    between atoms: C_9  and  N_10
REMARK    7  A    between atoms: N_10  and  S_11
REMARK    8  A    between atoms: S_11  and  C_14
REMARK    9  A    between atoms: C_17  and  N_18
REMARK                            x       y       z     vdW  Elec       q    Type
REMARK                         _______ _______ _______ _____ _____    ______ ____
ROOT
ATOM      1  S   UNL     1       2.153   4.309  20.406  0.00  0.00    +0.000 S 
ATOM      2  O   UNL     1       2.600   3.295  21.374  0.00  0.00    +0.000 OA
ATOM      3  O   UNL     1       0.836   4.243  19.851  0.00  0.00    +0.000 OA
ENDROOT
BRANCH   1   4
ATOM      4  C   UNL     1       3.327   4.278  19.074  0.00  0.00    +0.000 A 
ATOM      5  C   UNL     1       2.889   4.149  17.758  0.00  0.00    +0.000 A 
ATOM      6  C   UNL     1       3.812   4.240  16.718  0.00  0.00    +0.000 A 
ATOM      7  C   UNL     1       5.170   4.458  16.982  0.00  0.00    +0.000 A 
ATOM      8  C   UNL     1       5.594   4.578  18.310  0.00  0.00    +0.000 A 
ATOM      9  C   UNL     1       4.676   4.510  19.356  0.00  0.00    +0.000 A 
BRANCH   7  10
ATOM     10  N   UNL     1       6.101   4.541  15.934  0.00  0.00    +0.000 N 
ATOM     11  C   UNL     1       6.083   3.670  14.775  0.00  0.00    +0.000 C 
ATOM     12  C   UNL     1       6.861   4.478  13.749  0.00  0.00    +0.000 C 
ATOM     13  N   UNL     1       7.699   5.317  14.554  0.00  0.00    +0.000 N 
ATOM     14  C   UNL     1       7.118   5.498  15.802  0.00  0.00    +0.000 C 
ATOM     15  O   UNL     1       7.461   6.388  16.566  0.00  0.00    +0.000 OA
ATOM     16  H   UNL     1       8.328   6.030  14.212  0.00  0.00    +0.000 HD
ENDBRANCH   7  10
ENDBRANCH   1   4
BRANCH   1  17
ATOM     17  N   UNL     1       2.400   5.821  21.119  0.00  0.00    +0.000 N 
ATOM     18  H   UNL     1       2.564   5.824  22.122  0.00  0.00    +0.000 HD
BRANCH  17  22
ATOM     19  C   UNL     1       0.962   9.386  19.305  0.00  0.00    +0.000 A 
ATOM     20  C   UNL     1       0.577   9.010  20.588  0.00  0.00    +0.000 A 
ATOM     21  C   UNL     1       1.032   7.844  21.182  0.00  0.00    +0.000 A 
ATOM     22  C   UNL     1       1.889   6.994  20.490  0.00  0.00    +0.000 A 
ATOM     23  C   UNL     1       2.306   7.359  19.206  0.00  0.00    +0.000 A 
ATOM     24  C   UNL     1       1.847   8.549  18.606  0.00  0.00    +0.000 A 
BRANCH  19  25
ATOM     25  O   UNL     1       0.510  10.562  18.750  0.00  0.00    +0.000 OA
BRANCH  25  26
ATOM     26  C   UNL     1      -0.922  10.739  18.856  0.00  0.00    +0.000 C 
BRANCH  26  27
ATOM     27  C   UNL     1      -1.576  10.488  17.507  0.00  0.00    +0.000 C 
BRANCH  27  29
ATOM     28  C   UNL     1      -4.081  10.690  17.368  0.00  0.00    +0.000 C 
ATOM     29  C   UNL     1      -2.912   9.766  17.661  0.00  0.00    +0.000 C 
ENDBRANCH  27  29
ENDBRANCH  26  27
ENDBRANCH  25  26
ENDBRANCH  19  25
ENDBRANCH  17  22
ENDBRANCH   1  17
TORSDOF 8
ENDMDL
MODEL 2
REMARK VINA RESULT:      -7.8      2.645      8.077
REMARK  Name = 
REMARK  9 active torsions:
REMARK  status: ('A' for Active; 'I' for Inactive)
REMARK    1  A    between atoms: C_1  and  C_2
REMARK    2  A    between atoms: C_2  and  C_3
REMARK    3  A    between atoms: C_3  and  C_4
REMARK    4  A    between atoms: C_4  and  O_5
REMARK    5  A    between atoms: O_5  and  C_6
REMARK    6  A    between atoms: C_9  and  N_10
REMARK    7  A    between atoms: N_10  and  S_11
REMARK    8  A    between atoms: S_11  and  C_14
REMARK    9  A    between atoms: C_17  and  N_18
REMARK                            x       y       z     vdW  Elec       q    Type
REMARK                         _______ _______ _______ _____ _____    ______ ____
ROOT
ATOM      1  S   UNL     1       2.559   5.817  19.456  0.00  0.00    +0.000 S 
ATOM      2  O   UNL     1       2.333   5.171  18.154  0.00  0.00    +0.000 OA
ATOM      3  O   UNL     1       1.940   5.295  20.636  0.00  0.00    +0.000 OA
ENDROOT
BRANCH   1   4
ATOM      4  C   UNL     1       2.065   7.512  19.264  0.00  0.00    +0.000 A 
ATOM      5  C   UNL     1       2.134   8.125  18.016  0.00  0.00    +0.000 A 
ATOM      6  C   UNL     1       1.637   9.417  17.859  0.00  0.00    +0.000 A 
ATOM      7  C   UNL     1       1.071  10.104  18.941  0.00  0.00    +0.000 A 
ATOM      8  C   UNL     1       1.015   9.475  20.190  0.00  0.00    +0.000 A 
ATOM      9  C   UNL     1       1.490   8.176  20.353  0.00  0.00    +0.000 A 
BRANCH   7  10
ATOM     10  N   UNL     1       0.579  11.409  18.784  0.00  0.00    +0.000 N 
ATOM     11  C   UNL     1      -0.831  11.728  18.681  0.00  0.00    +0.000 C 
ATOM     12  C   UNL     1      -0.865  13.193  19.085  0.00  0.00    +0.000 C 
ATOM     13  N   UNL     1       0.453  13.655  18.763  0.00  0.00    +0.000 N 
ATOM     14  C   UNL     1       1.340  12.587  18.781  0.00  0.00    +0.000 C 
ATOM     15  O   UNL     1       2.552  12.738  18.834  0.00  0.00    +0.000 OA
ATOM     16  H   UNL     1       0.817  14.581  18.939  0.00  0.00    +0.000 HD
ENDBRANCH   7  10
ENDBRANCH   1   4
BRANCH   1  17
ATOM     17  N   UNL     1       4.231   5.913  19.681  0.00  0.00    +0.000 N 
ATOM     18  H   UNL     1       4.549   6.504  20.444  0.00  0.00    +0.000 HD
BRANCH  17  22
ATOM     19  C   UNL     1       6.758   5.055  16.373  0.00  0.00    +0.000 A 
ATOM     20  C   UNL     1       6.485   4.104  17.352  0.00  0.00    +0.000 A 
ATOM     21  C   UNL     1       5.673   4.380  18.440  0.00  0.00    +0.000 A 
ATOM     22  C   UNL     1       5.111   5.644  18.591  0.00  0.00    +0.000 A 
ATOM     23  C   UNL     1       5.354   6.611  17.610  0.00  0.00    +0.000 A 
ATOM     24  C   UNL     1       6.177   6.326  16.501  0.00  0.00    +0.000 A 
BRANCH  19  25
ATOM     25  O   UNL     1       7.552   4.743  15.292  0.00  0.00    +0.000 OA
BRANCH  25  26
ATOM     26  C   UNL     1       6.910   4.976  14.016  0.00  0.00    +0.000 C 
BRANCH  26  27
ATOM     27  C   UNL     1       5.913   3.864  13.729  0.00  0.00    +0.000 C 
BRANCH  27  29
ATOM     28  C   UNL     1       4.625   3.169  11.682  0.00  0.00    +0.000 C 
ATOM     29  C   UNL     1       6.003   3.398  12.278  0.00  0.00    +0.000 C 
ENDBRANCH  27  29
ENDBRANCH  26  27
ENDBRANCH  25  26
ENDBRANCH  19  25
ENDBRANCH  17  22
ENDBRANCH   1  17
TORSDOF 8
ENDMDL
MODEL 3
REMARK VINA RESULT:      -7.6      2.687      8.295
REMARK  Name = 
REMARK  9 active torsions:
REMARK  status: ('A' for Active; 'I' for Inactive)
REMARK    1  A    between atoms: C_1  and  C_2
REMARK    2  A    between atoms: C_2  and  C_3
REMARK    3  A    between atoms: C_3  and  C_4
REMARK    4  A    between atoms: C_4  and  O_5
REMARK    5  A    between atoms: O_5  and  C_6
REMARK    6  A    between atoms: C_9  and  N_10
REMARK    7  A    between atoms: N_10  and  S_11
REMARK    8  A    between atoms: S_11  and  C_14
REMARK    9  A    between atoms: C_17  and  N_18
REMARK                            x       y       z     vdW  Elec       q    Type
REMARK                         _______ _______ _______ _____ _____    ______ ____
ROOT
ATOM      1  S   UNL     1       2.498   5.505  19.775  0.00  0.00    +0.000 S 
ATOM      2  O   UNL     1       1.844   4.772  18.679  0.00  0.00    +0.000 OA
ATOM      3  O   UNL     1       2.276   5.115  21.134  0.00  0.00    +0.000 OA
ENDROOT
BRANCH   1   4
ATOM      4  C   UNL     1       2.021   7.205  19.593  0.00  0.00    +0.000 A 
ATOM      5  C   UNL     1       2.079   7.819  18.343  0.00  0.00    +0.000 A 
ATOM      6  C   UNL     1       1.595   9.117  18.196  0.00  0.00    +0.000 A 
ATOM      7  C   UNL     1       1.054   9.809  19.287  0.00  0.00    +0.000 A 
ATOM      8  C   UNL     1       1.010   9.180  20.536  0.00  0.00    +0.000 A 
ATOM      9  C   UNL     1       1.471   7.875  20.690  0.00  0.00    +0.000 A 
BRANCH   7  10
ATOM     10  N   UNL     1       0.575  11.120  19.139  0.00  0.00    +0.000 N 
ATOM     11  C   UNL     1       1.360  12.300  19.445  0.00  0.00    +0.000 C 
ATOM     12  C   UNL     1       0.662  13.376  18.630  0.00  0.00    +0.000 C 
ATOM     13  N   UNL     1      -0.676  12.877  18.498  0.00  0.00    +0.000 N 
ATOM     14  C   UNL     1      -0.671  11.494  18.614  0.00  0.00    +0.000 C 
ATOM     15  O   UNL     1      -1.611  10.799  18.254  0.00  0.00    +0.000 OA
ATOM     16  H   UNL     1      -1.421  13.310  17.971  0.00  0.00    +0.000 HD
ENDBRANCH   7  10
ENDBRANCH   1   4
BRANCH   1  17
ATOM     17  N   UNL     1       4.156   5.518  19.446  0.00  0.00    +0.000 N 
ATOM     18  H   UNL     1       4.745   5.992  20.125  0.00  0.00    +0.000 HD
BRANCH  17  22
ATOM     19  C   UNL     1       5.641   5.089  15.487  0.00  0.00    +0.000 A 
ATOM     20  C   UNL     1       5.487   6.339  16.080  0.00  0.00    +0.000 A 
ATOM     21  C   UNL     1       4.991   6.488  17.365  0.00  0.00    +0.000 A 
ATOM     22  C   UNL     1       4.615   5.371  18.104  0.00  0.00    +0.000 A 
ATOM     23  C   UNL     1       4.779   4.103  17.538  0.00  0.00    +0.000 A 
ATOM     24  C   UNL     1       5.288   3.953  16.232  0.00  0.00    +0.000 A 
BRANCH  19  25
ATOM     25  O   UNL     1       6.156   4.972  14.215  0.00  0.00    +0.000 OA
BRANCH  25  26
ATOM     26  C   UNL     1       6.280   3.603  13.765  0.00  0.00    +0.000 C 
BRANCH  26  27
ATOM     27  C   UNL     1       6.398   3.565  12.251  0.00  0.00    +0.000 C 
BRANCH  27  29
ATOM     28  C   UNL     1       6.401   1.317  11.118  0.00  0.00    +0.000 C 
ATOM     29  C   UNL     1       5.543   2.450  11.653  0.00  0.00    +0.000 C 
ENDBRANCH  27  29
ENDBRANCH  26  27
ENDBRANCH  25  26
ENDBRANCH  19  25
ENDBRANCH  17  22
ENDBRANCH   1  17
TORSDOF 8
ENDMDL
MODEL 4
REMARK VINA RESULT:      -7.5      2.510      8.200
REMARK  Name = 
REMARK  9 active torsions:
REMARK  status: ('A' for Active; 'I' for Inactive)
REMARK    1  A    between atoms: C_1  and  C_2
REMARK    2  A    between atoms: C_2  and  C_3
REMARK    3  A    between atoms: C_3  and  C_4
REMARK    4  A    between atoms: C_4  and  O_5
REMARK    5  A    between atoms: O_5  and  C_6
REMARK    6  A    between atoms: C_9  and  N_10
REMARK    7  A    between atoms: N_10  and  S_11
REMARK    8  A    between atoms: S_11  and  C_14
REMARK    9  A    between atoms: C_17  and  N_18
REMARK                            x       y       z     vdW  Elec       q    Type
REMARK                         _______ _______ _______ _____ _____    ______ ____
ROOT
ATOM      1  S   UNL     1       2.964   5.431  19.549  0.00  0.00    +0.000 S 
ATOM      2  O   UNL     1       2.515   4.789  18.304  0.00  0.00    +0.000 OA
ATOM      3  O   UNL     1       2.692   4.817  20.813  0.00  0.00    +0.000 OA
ENDROOT
BRANCH   1   4
ATOM      4  C   UNL     1       2.260   7.060  19.553  0.00  0.00    +0.000 A 
ATOM      5  C   UNL     1       2.227   7.812  18.380  0.00  0.00    +0.000 A 
ATOM      6  C   UNL     1       1.571   9.041  18.374  0.00  0.00    +0.000 A 
ATOM      7  C   UNL     1       0.946   9.527  19.529  0.00  0.00    +0.000 A 
ATOM      8  C   UNL     1       0.995   8.762  20.700  0.00  0.00    +0.000 A 
ATOM      9  C   UNL     1       1.630   7.523  20.712  0.00  0.00    +0.000 A 
BRANCH   7  10
ATOM     10  N   UNL     1       0.293  10.770  19.524  0.00  0.00    +0.000 N 
ATOM     11  C   UNL     1      -0.852  11.070  18.688  0.00  0.00    +0.000 C 
ATOM     12  C   UNL     1      -1.492  12.239  19.420  0.00  0.00    +0.000 C 
ATOM     13  N   UNL     1      -0.395  12.822  20.134  0.00  0.00    +0.000 N 
ATOM     14  C   UNL     1       0.583  11.862  20.355  0.00  0.00    +0.000 C 
ATOM     15  O   UNL     1       1.474  12.006  21.180  0.00  0.00    +0.000 OA
ATOM     16  H   UNL     1      -0.452  13.602  20.775  0.00  0.00    +0.000 HD
ENDBRANCH   7  10
ENDBRANCH   1   4
BRANCH   1  17
ATOM     17  N   UNL     1       4.623   5.714  19.394  0.00  0.00    +0.000 N 
ATOM     18  H   UNL     1       5.050   6.290  20.114  0.00  0.00    +0.000 HD
BRANCH  17  22
ATOM     19  C   UNL     1       6.387   5.350  15.544  0.00  0.00    +0.000 A 
ATOM     20  C   UNL     1       6.698   4.473  16.579  0.00  0.00    +0.000 A 
ATOM     21  C   UNL     1       6.137   4.592  17.840  0.00  0.00    +0.000 A 
ATOM     22  C   UNL     1       5.242   5.622  18.113  0.00  0.00    +0.000 A 
ATOM     23  C   UNL     1       4.898   6.505  17.085  0.00  0.00    +0.000 A 
ATOM     24  C   UNL     1       5.466   6.378  15.801  0.00  0.00    +0.000 A 
BRANCH  19  25
ATOM     25  O   UNL     1       6.944   5.192  14.295  0.00  0.00    +0.000 OA
BRANCH  25  26
ATOM     26  C   UNL     1       6.690   3.894  13.708  0.00  0.00    +0.000 C 
BRANCH  26  27
ATOM     27  C   UNL     1       5.226   3.782  13.317  0.00  0.00    +0.000 C 
BRANCH  27  29
ATOM     28  C   UNL     1       5.609   2.063  11.519  0.00  0.00    +0.000 C 
ATOM     29  C   UNL     1       5.069   3.447  11.836  0.00  0.00    +0.000 C 
ENDBRANCH  27  29
ENDBRANCH  26  27
ENDBRANCH  25  26
ENDBRANCH  19  25
ENDBRANCH  17  22
ENDBRANCH   1  17
TORSDOF 8
ENDMDL
MODEL 5
REMARK VINA RESULT:      -7.4      3.291      7.569
REMARK  Name = 
REMARK  9 active torsions:
REMARK  status: ('A' for Active; 'I' for Inactive)
REMARK    1  A    between atoms: C_1  and  C_2
REMARK    2  A    between atoms: C_2  and  C_3
REMARK    3  A    between atoms: C_3  and  C_4
REMARK    4  A    between atoms: C_4  and  O_5
REMARK    5  A    between atoms: O_5  and  C_6
REMARK    6  A    between atoms: C_9  and  N_10
REMARK    7  A    between atoms: N_10  and  S_11
REMARK    8  A    between atoms: S_11  and  C_14
REMARK    9  A    between atoms: C_17  and  N_18
REMARK                            x       y       z     vdW  Elec       q    Type
REMARK                         _______ _______ _______ _____ _____    ______ ____
ROOT
ATOM      1  S   UNL     1       4.124   3.311  18.450  0.00  0.00    +0.000 S 
ATOM      2  O   UNL     1       3.200   2.483  17.661  0.00  0.00    +0.000 OA
ATOM      3  O   UNL     1       4.676   2.809  19.672  0.00  0.00    +0.000 OA
ENDROOT
BRANCH   1   4
ATOM      4  C   UNL     1       3.263   4.823  18.801  0.00  0.00    +0.000 A 
ATOM      5  C   UNL     1       2.902   5.136  20.110  0.00  0.00    +0.000 A 
ATOM      6  C   UNL     1       2.329   6.376  20.383  0.00  0.00    +0.000 A 
ATOM      7  C   UNL     1       2.113   7.308  19.360  0.00  0.00    +0.000 A 
ATOM      8  C   UNL     1       2.475   6.974  18.050  0.00  0.00    +0.000 A 
ATOM      9  C   UNL     1       3.068   5.746  17.769  0.00  0.00    +0.000 A 
BRANCH   7  10
ATOM     10  N   UNL     1       1.527   8.554  19.636  0.00  0.00    +0.000 N 
ATOM     11  C   UNL     1       1.137   9.501  18.610  0.00  0.00    +0.000 C 
ATOM     12  C   UNL     1       0.106  10.354  19.331  0.00  0.00    +0.000 C 
ATOM     13  N   UNL     1       0.477  10.228  20.710  0.00  0.00    +0.000 N 
ATOM     14  C   UNL     1       1.164   9.037  20.901  0.00  0.00    +0.000 C 
ATOM     15  O   UNL     1       1.334   8.544  22.008  0.00  0.00    +0.000 OA
ATOM     16  H   UNL     1      -0.017  10.626  21.496  0.00  0.00    +0.000 HD
ENDBRANCH   7  10
ENDBRANCH   1   4
BRANCH   1  17
ATOM     17  N   UNL     1       5.370   3.793  17.415  0.00  0.00    +0.000 N 
ATOM     18  H   UNL     1       5.731   3.082  16.784  0.00  0.00    +0.000 HD
BRANCH  17  22
ATOM     19  C   UNL     1       7.926   7.039  18.413  0.00  0.00    +0.000 A 
ATOM     20  C   UNL     1       7.803   5.923  19.235  0.00  0.00    +0.000 A 
ATOM     21  C   UNL     1       6.963   4.867  18.923  0.00  0.00    +0.000 A 
ATOM     22  C   UNL     1       6.194   4.902  17.765  0.00  0.00    +0.000 A 
ATOM     23  C   UNL     1       6.315   6.003  16.910  0.00  0.00    +0.000 A 
ATOM     24  C   UNL     1       7.175   7.075  17.228  0.00  0.00    +0.000 A 
BRANCH  19  25
ATOM     25  O   UNL     1       8.786   8.063  18.739  0.00  0.00    +0.000 OA
BRANCH  25  26
ATOM     26  C   UNL     1       8.418   9.335  18.156  0.00  0.00    +0.000 C 
BRANCH  26  27
ATOM     27  C   UNL     1       9.056  10.469  18.942  0.00  0.00    +0.000 C 
BRANCH  27  29
ATOM     28  C   UNL     1      10.859  11.707  17.697  0.00  0.00    +0.000 C 
ATOM     29  C   UNL     1       9.380  11.658  18.041  0.00  0.00    +0.000 C 
ENDBRANCH  27  29
ENDBRANCH  26  27
ENDBRANCH  25  26
ENDBRANCH  19  25
ENDBRANCH  17  22
ENDBRANCH   1  17
TORSDOF 8
ENDMDL
MODEL 6
REMARK VINA RESULT:      -7.4      2.561      8.070
REMARK  Name = 
REMARK  9 active torsions:
REMARK  status: ('A' for Active; 'I' for Inactive)
REMARK    1  A    between atoms: C_1  and  C_2
REMARK    2  A    between atoms: C_2  and  C_3
REMARK    3  A    between atoms: C_3  and  C_4
REMARK    4  A    between atoms: C_4  and  O_5
REMARK    5  A    between atoms: O_5  and  C_6
REMARK    6  A    between atoms: C_9  and  N_10
REMARK    7  A    between atoms: N_10  and  S_11
REMARK    8  A    between atoms: S_11  and  C_14
REMARK    9  A    between atoms: C_17  and  N_18
REMARK                            x       y       z     vdW  Elec       q    Type
REMARK                         _______ _______ _______ _____ _____    ______ ____
ROOT
ATOM      1  S   UNL     1       2.824   5.599  19.539  0.00  0.00    +0.000 S 
ATOM      2  O   UNL     1       2.560   4.914  18.264  0.00  0.00    +0.000 OA
ATOM      3  O   UNL     1       2.411   5.006  20.774  0.00  0.00    +0.000 OA
ENDROOT
BRANCH   1   4
ATOM      4  C   UNL     1       2.076   7.204  19.407  0.00  0.00    +0.000 A 
ATOM      5  C   UNL     1       1.575   7.838  20.542  0.00  0.00    +0.000 A 
ATOM      6  C   UNL     1       1.095   9.142  20.441  0.00  0.00    +0.000 A 
ATOM      7  C   UNL     1       1.110   9.819  19.214  0.00  0.00    +0.000 A 
ATOM      8  C   UNL     1       1.610   9.164  18.083  0.00  0.00    +0.000 A 
ATOM      9  C   UNL     1       2.112   7.868  18.178  0.00  0.00    +0.000 A 
BRANCH   7  10
ATOM     10  N   UNL     1       0.617  11.129  19.112  0.00  0.00    +0.000 N 
ATOM     11  C   UNL     1      -0.738  11.506  19.461  0.00  0.00    +0.000 C 
ATOM     12  C   UNL     1      -0.607  12.999  19.713  0.00  0.00    +0.000 C 
ATOM     13  N   UNL     1       0.531  13.369  18.923  0.00  0.00    +0.000 N 
ATOM     14  C   UNL     1       1.352  12.265  18.742  0.00  0.00    +0.000 C 
ATOM     15  O   UNL     1       2.513  12.360  18.368  0.00  0.00    +0.000 OA
ATOM     16  H   UNL     1       0.950  14.288  18.880  0.00  0.00    +0.000 HD
ENDBRANCH   7  10
ENDBRANCH   1   4
BRANCH   1  17
ATOM     17  N   UNL     1       4.480   5.935  19.590  0.00  0.00    +0.000 N 
ATOM     18  H   UNL     1       4.786   6.576  20.317  0.00  0.00    +0.000 HD
BRANCH  17  22
ATOM     19  C   UNL     1       6.776   5.365  16.059  0.00  0.00    +0.000 A 
ATOM     20  C   UNL     1       7.030   4.645  17.223  0.00  0.00    +0.000 A 
ATOM     21  C   UNL     1       6.295   4.834  18.381  0.00  0.00    +0.000 A 
ATOM     22  C   UNL     1       5.273   5.777  18.416  0.00  0.00    +0.000 A 
ATOM     23  C   UNL     1       4.984   6.500  17.254  0.00  0.00    +0.000 A 
ATOM     24  C   UNL     1       5.731   6.302  16.074  0.00  0.00    +0.000 A 
BRANCH  19  25
ATOM     25  O   UNL     1       7.511   5.140  14.917  0.00  0.00    +0.000 OA
BRANCH  25  26
ATOM     26  C   UNL     1       6.698   4.971  13.731  0.00  0.00    +0.000 C 
BRANCH  26  27
ATOM     27  C   UNL     1       6.390   3.498  13.520  0.00  0.00    +0.000 C 
BRANCH  27  29
ATOM     28  C   UNL     1       4.562   3.458  11.791  0.00  0.00    +0.000 C 
ATOM     29  C   UNL     1       6.035   3.207  12.064  0.00  0.00    +0.000 C 
ENDBRANCH  27  29
ENDBRANCH  26  27
ENDBRANCH  25  26
ENDBRANCH  19  25
ENDBRANCH  17  22
ENDBRANCH   1  17
TORSDOF 8
ENDMDL
MODEL 7
REMARK VINA RESULT:      -7.4      2.643      8.472
REMARK  Name = 
REMARK  9 active torsions:
REMARK  status: ('A' for Active; 'I' for Inactive)
REMARK    1  A    between atoms: C_1  and  C_2
REMARK    2  A    between atoms: C_2  and  C_3
REMARK    3  A    between atoms: C_3  and  C_4
REMARK    4  A    between atoms: C_4  and  O_5
REMARK    5  A    between atoms: O_5  and  C_6
REMARK    6  A    between atoms: C_9  and  N_10
REMARK    7  A    between atoms: N_10  and  S_11
REMARK    8  A    between atoms: S_11  and  C_14
REMARK    9  A    between atoms: C_17  and  N_18
REMARK                            x       y       z     vdW  Elec       q    Type
REMARK                         _______ _______ _______ _____ _____    ______ ____
ROOT
ATOM      1  S   UNL     1       2.680   5.443  19.637  0.00  0.00    +0.000 S 
ATOM      2  O   UNL     1       2.032   4.789  18.490  0.00  0.00    +0.000 OA
ATOM      3  O   UNL     1       2.543   4.893  20.952  0.00  0.00    +0.000 OA
ENDROOT
BRANCH   1   4
ATOM      4  C   UNL     1       2.083   7.115  19.662  0.00  0.00    +0.000 A 
ATOM      5  C   UNL     1       2.130   7.893  18.508  0.00  0.00    +0.000 A 
ATOM      6  C   UNL     1       1.555   9.162  18.514  0.00  0.00    +0.000 A 
ATOM      7  C   UNL     1       0.932   9.661  19.665  0.00  0.00    +0.000 A 
ATOM      8  C   UNL     1       0.900   8.869  20.818  0.00  0.00    +0.000 A 
ATOM      9  C   UNL     1       1.453   7.591  20.816  0.00  0.00    +0.000 A 
BRANCH   7  10
ATOM     10  N   UNL     1       0.360  10.944  19.672  0.00  0.00    +0.000 N 
ATOM     11  C   UNL     1      -0.811  11.305  18.898  0.00  0.00    +0.000 C 
ATOM     12  C   UNL     1      -1.331  12.523  19.643  0.00  0.00    +0.000 C 
ATOM     13  N   UNL     1      -0.158  13.046  20.281  0.00  0.00    +0.000 N 
ATOM     14  C   UNL     1       0.768  12.028  20.463  0.00  0.00    +0.000 C 
ATOM     15  O   UNL     1       1.713  12.126  21.233  0.00  0.00    +0.000 OA
ATOM     16  H   UNL     1      -0.127  13.838  20.908  0.00  0.00    +0.000 HD
ENDBRANCH   7  10
ENDBRANCH   1   4
BRANCH   1  17
ATOM     17  N   UNL     1       4.318   5.612  19.255  0.00  0.00    +0.000 N 
ATOM     18  H   UNL     1       4.866   6.201  19.875  0.00  0.00    +0.000 HD
BRANCH  17  22
ATOM     19  C   UNL     1       5.745   5.038  15.292  0.00  0.00    +0.000 A 
ATOM     20  C   UNL     1       5.318   6.283  15.744  0.00  0.00    +0.000 A 
ATOM     21  C   UNL     1       4.839   6.475  17.030  0.00  0.00    +0.000 A 
ATOM     22  C   UNL     1       4.759   5.405  17.915  0.00  0.00    +0.000 A 
ATOM     23  C   UNL     1       5.201   4.147  17.491  0.00  0.00    +0.000 A 
ATOM     24  C   UNL     1       5.692   3.955  16.183  0.00  0.00    +0.000 A 
BRANCH  19  25
ATOM     25  O   UNL     1       6.235   4.883  14.015  0.00  0.00    +0.000 OA
BRANCH  25  26
ATOM     26  C   UNL     1       6.160   3.522  13.528  0.00  0.00    +0.000 C 
BRANCH  26  27
ATOM     27  C   UNL     1       6.201   3.512  12.009  0.00  0.00    +0.000 C 
BRANCH  27  29
ATOM     28  C   UNL     1       6.185   1.139  11.172  0.00  0.00    +0.000 C 
ATOM     29  C   UNL     1       7.043   2.353  11.482  0.00  0.00    +0.000 C 
ENDBRANCH  27  29
ENDBRANCH  26  27
ENDBRANCH  25  26
ENDBRANCH  19  25
ENDBRANCH  17  22
ENDBRANCH   1  17
TORSDOF 8
ENDMDL
MODEL 8
REMARK VINA RESULT:      -7.4      2.564      8.223
REMARK  Name = 
REMARK  9 active torsions:
REMARK  status: ('A' for Active; 'I' for Inactive)
REMARK    1  A    between atoms: C_1  and  C_2
REMARK    2  A    between atoms: C_2  and  C_3
REMARK    3  A    between atoms: C_3  and  C_4
REMARK    4  A    between atoms: C_4  and  O_5
REMARK    5  A    between atoms: O_5  and  C_6
REMARK    6  A    between atoms: C_9  and  N_10
REMARK    7  A    between atoms: N_10  and  S_11
REMARK    8  A    between atoms: S_11  and  C_14
REMARK    9  A    between atoms: C_17  and  N_18
REMARK                            x       y       z     vdW  Elec       q    Type
REMARK                         _______ _______ _______ _____ _____    ______ ____
ROOT
ATOM      1  S   UNL     1       3.072   5.448  19.455  0.00  0.00    +0.000 S 
ATOM      2  O   UNL     1       2.790   4.716  18.211  0.00  0.00    +0.000 OA
ATOM      3  O   UNL     1       2.738   4.870  20.721  0.00  0.00    +0.000 OA
ENDROOT
BRANCH   1   4
ATOM      4  C   UNL     1       2.241   7.010  19.314  0.00  0.00    +0.000 A 
ATOM      5  C   UNL     1       1.765   7.656  20.452  0.00  0.00    +0.000 A 
ATOM      6  C   UNL     1       1.217   8.932  20.337  0.00  0.00    +0.000 A 
ATOM      7  C   UNL     1       1.141   9.570  19.093  0.00  0.00    +0.000 A 
ATOM      8  C   UNL     1       1.618   8.904  17.958  0.00  0.00    +0.000 A 
ATOM      9  C   UNL     1       2.186   7.637  18.065  0.00  0.00    +0.000 A 
BRANCH   7  10
ATOM     10  N   UNL     1       0.581  10.852  18.976  0.00  0.00    +0.000 N 
ATOM     11  C   UNL     1       1.259  12.064  19.388  0.00  0.00    +0.000 C 
ATOM     12  C   UNL     1       0.539  13.132  18.581  0.00  0.00    +0.000 C 
ATOM     13  N   UNL     1      -0.749  12.550  18.339  0.00  0.00    +0.000 N 
ATOM     14  C   UNL     1      -0.654  11.167  18.390  0.00  0.00    +0.000 C 
ATOM     15  O   UNL     1      -1.518  10.429  17.936  0.00  0.00    +0.000 OA
ATOM     16  H   UNL     1      -1.489  12.959  17.785  0.00  0.00    +0.000 HD
ENDBRANCH   7  10
ENDBRANCH   1   4
BRANCH   1  17
ATOM     17  N   UNL     1       4.710   5.864  19.429  0.00  0.00    +0.000 N 
ATOM     18  H   UNL     1       5.011   6.549  20.116  0.00  0.00    +0.000 HD
BRANCH  17  22
ATOM     19  C   UNL     1       6.899   5.253  15.837  0.00  0.00    +0.000 A 
ATOM     20  C   UNL     1       7.214   4.577  17.011  0.00  0.00    +0.000 A 
ATOM     21  C   UNL     1       6.514   4.780  18.189  0.00  0.00    +0.000 A 
ATOM     22  C   UNL     1       5.466   5.693  18.232  0.00  0.00    +0.000 A 
ATOM     23  C   UNL     1       5.116   6.371  17.060  0.00  0.00    +0.000 A 
ATOM     24  C   UNL     1       5.827   6.159  15.861  0.00  0.00    +0.000 A 
BRANCH  19  25
ATOM     25  O   UNL     1       7.600   5.014  14.676  0.00  0.00    +0.000 OA
BRANCH  25  26
ATOM     26  C   UNL     1       6.756   4.883  13.508  0.00  0.00    +0.000 C 
BRANCH  26  27
ATOM     27  C   UNL     1       6.536   3.413  13.191  0.00  0.00    +0.000 C 
BRANCH  27  29
ATOM     28  C   UNL     1       5.681   1.909  11.364  0.00  0.00    +0.000 C 
ATOM     29  C   UNL     1       5.495   3.230  12.089  0.00  0.00    +0.000 C 
ENDBRANCH  27  29
ENDBRANCH  26  27
ENDBRANCH  25  26
ENDBRANCH  19  25
ENDBRANCH  17  22
ENDBRANCH   1  17
TORSDOF 8
ENDMDL
MODEL 9
REMARK VINA RESULT:      -7.4      2.776      7.285
REMARK  Name = 
REMARK  9 active torsions:
REMARK  status: ('A' for Active; 'I' for Inactive)
REMARK    1  A    between atoms: C_1  and  C_2
REMARK    2  A    between atoms: C_2  and  C_3
REMARK    3  A    between atoms: C_3  and  C_4
REMARK    4  A    between atoms: C_4  and  O_5
REMARK    5  A    between atoms: O_5  and  C_6
REMARK    6  A    between atoms: C_9  and  N_10
REMARK    7  A    between atoms: N_10  and  S_11
REMARK    8  A    between atoms: S_11  and  C_14
REMARK    9  A    between atoms: C_17  and  N_18
REMARK                            x       y       z     vdW  Elec       q    Type
REMARK                         _______ _______ _______ _____ _____    ______ ____
ROOT
ATOM      1  S   UNL     1       3.315   2.855  18.771  0.00  0.00    +0.000 S 
ATOM      2  O   UNL     1       2.112   2.189  18.249  0.00  0.00    +0.000 OA
ATOM      3  O   UNL     1       3.895   2.427  20.008  0.00  0.00    +0.000 OA
ENDROOT
BRANCH   1   4
ATOM      4  C   UNL     1       2.914   4.579  18.906  0.00  0.00    +0.000 A 
ATOM      5  C   UNL     1       2.504   5.292  17.782  0.00  0.00    +0.000 A 
ATOM      6  C   UNL     1       2.085   6.613  17.925  0.00  0.00    +0.000 A 
ATOM      7  C   UNL     1       2.071   7.229  19.183  0.00  0.00    +0.000 A 
ATOM      8  C   UNL     1       2.492   6.500  20.300  0.00  0.00    +0.000 A 
ATOM      9  C   UNL     1       2.894   5.172  20.172  0.00  0.00    +0.000 A 
BRANCH   7  10
ATOM     10  N   UNL     1       1.657   8.563  19.325  0.00  0.00    +0.000 N 
ATOM     11  C   UNL     1       1.709   9.537  18.253  0.00  0.00    +0.000 C 
ATOM     12  C   UNL     1       0.691  10.572  18.703  0.00  0.00    +0.000 C 
ATOM     13  N   UNL     1       0.671  10.418  20.129  0.00  0.00    +0.000 N 
ATOM     14  C   UNL     1       1.071   9.132  20.465  0.00  0.00    +0.000 C 
ATOM     15  O   UNL     1       0.867   8.645  21.568  0.00  0.00    +0.000 OA
ATOM     16  H   UNL     1       0.069  10.914  20.771  0.00  0.00    +0.000 HD
ENDBRANCH   7  10
ENDBRANCH   1   4
BRANCH   1  17
ATOM     17  N   UNL     1       4.480   2.811  17.547  0.00  0.00    +0.000 N 
ATOM     18  H   UNL     1       4.777   1.889  17.241  0.00  0.00    +0.000 HD
BRANCH  17  22
ATOM     19  C   UNL     1       6.973   6.209  16.992  0.00  0.00    +0.000 A 
ATOM     20  C   UNL     1       6.159   5.723  15.974  0.00  0.00    +0.000 A 
ATOM     21  C   UNL     1       5.353   4.609  16.142  0.00  0.00    +0.000 A 
ATOM     22  C   UNL     1       5.349   3.925  17.354  0.00  0.00    +0.000 A 
ATOM     23  C   UNL     1       6.143   4.405  18.400  0.00  0.00    +0.000 A 
ATOM     24  C   UNL     1       6.958   5.542  18.227  0.00  0.00    +0.000 A 
BRANCH  19  25
ATOM     25  O   UNL     1       7.746   7.331  16.801  0.00  0.00    +0.000 OA
BRANCH  25  26
ATOM     26  C   UNL     1       8.181   7.952  18.034  0.00  0.00    +0.000 C 
BRANCH  26  27
ATOM     27  C   UNL     1       8.144   9.464  17.893  0.00  0.00    +0.000 C 
BRANCH  27  29
ATOM     28  C   UNL     1       9.932  11.213  18.180  0.00  0.00    +0.000 C 
ATOM     29  C   UNL     1       9.108  10.138  18.867  0.00  0.00    +0.000 C 
ENDBRANCH  27  29
ENDBRANCH  26  27
ENDBRANCH  25  26
ENDBRANCH  19  25
ENDBRANCH  17  22
ENDBRANCH   1  17
TORSDOF 8
ENDMDL
