MODEL 1
REMARK VINA RESULT:      -7.3      0.000      0.000
REMARK  Name = 
REMARK  7 active torsions:
REMARK  status: ('A' for Active; 'I' for Inactive)
REMARK    1  A    between atoms: C_1  and  O_2
REMARK    2  A    between atoms: O_2  and  C_3
REMARK    3  A    between atoms: C_9  and  C_10
REMARK    4  A    between atoms: N_12  and  C_13
REMARK    5  A    between atoms: C_16  and  N_17
REMARK    6  A    between atoms: C_24  and  O_25
REMARK    7  A    between atoms: O_25  and  C_26
REMARK                            x       y       z     vdW  Elec       q    Type
REMARK                         _______ _______ _______ _____ _____    ______ ____
ROOT
ATOM      1  C   UNL     1       1.342   8.567  20.417  0.00  0.00    +0.000 A 
ATOM      2  C   UNL     1       1.398   8.796  21.789  0.00  0.00    +0.000 A 
ATOM      3  C   UNL     1       0.672   9.837  22.369  0.00  0.00    +0.000 A 
ATOM      4  C   UNL     1      -0.118  10.689  21.589  0.00  0.00    +0.000 A 
ATOM      5  C   UNL     1      -0.168  10.476  20.192  0.00  0.00    +0.000 A 
ATOM      6  C   UNL     1       0.571   9.424  19.620  0.00  0.00    +0.000 A 
ENDROOT
BRANCH   4   7
ATOM      7  N   UNL     1      -0.820  11.755  22.251  0.00  0.00    +0.000 N 
ATOM      8  C   UNL     1      -1.985  11.396  23.060  0.00  0.00    +0.000 C 
ATOM      9  C   UNL     1      -2.932  12.562  23.283  0.00  0.00    +0.000 C 
ATOM     10  C   UNL     1      -2.133  13.686  23.910  0.00  0.00    +0.000 C 
ATOM     11  C   UNL     1      -1.064  14.143  22.939  0.00  0.00    +0.000 C 
ATOM     12  C   UNL     1      -0.270  13.039  22.259  0.00  0.00    +0.000 C 
ATOM     13  O   UNL     1       0.791  13.346  21.707  0.00  0.00    +0.000 OA
ENDBRANCH   4   7
BRANCH   1  16
ATOM     14  C   UNL     1       2.553   7.521  18.504  0.00  0.00    +0.000 C 
ATOM     15  O   UNL     1       2.547   8.496  17.756  0.00  0.00    +0.000 OA
ATOM     16  N   UNL     1       2.025   7.504  19.783  0.00  0.00    +0.000 N 
ATOM     17  H   UNL     1       2.193   6.665  20.328  0.00  0.00    +0.000 HD
BRANCH  14  24
ATOM     18  C   UNL     1       2.664   4.977  18.039  0.00  0.00    +0.000 A 
ATOM     19  C   UNL     1       3.385   3.911  17.476  0.00  0.00    +0.000 A 
ATOM     20  C   UNL     1       4.651   4.119  16.921  0.00  0.00    +0.000 A 
ATOM     21  C   UNL     1       5.209   5.386  16.919  0.00  0.00    +0.000 A 
ATOM     22 CL   UNL     1       6.775   5.633  16.255  0.00  0.00    +0.000 Cl
ATOM     23  C   UNL     1       4.501   6.455  17.448  0.00  0.00    +0.000 A 
ATOM     24  C   UNL     1       3.216   6.274  18.001  0.00  0.00    +0.000 A 
BRANCH  18  26
ATOM     25  C   UNL     1       1.345   3.916  19.712  0.00  0.00    +0.000 C 
ATOM     26  O   UNL     1       1.422   4.812  18.603  0.00  0.00    +0.000 OA
ENDBRANCH  18  26
ENDBRANCH  14  24
ENDBRANCH   1  16
BRANCH   5  27
ATOM     27  O   UNL     1      -1.016  11.283  19.475  0.00  0.00    +0.000 OA
ATOM     28  C   UNL     1      -0.463  12.227  18.571  0.00  0.00    +0.000 C 
ENDBRANCH   5  27
TORSDOF 5
ENDMDL
MODEL 2
REMARK VINA RESULT:      -7.2      2.412      3.531
REMARK  Name = 
REMARK  7 active torsions:
REMARK  status: ('A' for Active; 'I' for Inactive)
REMARK    1  A    between atoms: C_1  and  O_2
REMARK    2  A    between atoms: O_2  and  C_3
REMARK    3  A    between atoms: C_9  and  C_10
REMARK    4  A    between atoms: N_12  and  C_13
REMARK    5  A    between atoms: C_16  and  N_17
REMARK    6  A    between atoms: C_24  and  O_25
REMARK    7  A    between atoms: O_25  and  C_26
REMARK                            x       y       z     vdW  Elec       q    Type
REMARK                         _______ _______ _______ _____ _____    ______ ____
ROOT
ATOM      1  C   UNL     1       1.714   9.541  18.310  0.00  0.00    +0.000 A 
ATOM      2  C   UNL     1       2.445  10.644  17.876  0.00  0.00    +0.000 A 
ATOM      3  C   UNL     1       2.103  11.933  18.285  0.00  0.00    +0.000 A 
ATOM      4  C   UNL     1       1.008  12.157  19.126  0.00  0.00    +0.000 A 
ATOM      5  C   UNL     1       0.247  11.046  19.560  0.00  0.00    +0.000 A 
ATOM      6  C   UNL     1       0.603   9.752  19.137  0.00  0.00    +0.000 A 
ENDROOT
BRANCH   4   7
ATOM      7  N   UNL     1       0.699  13.514  19.488  0.00  0.00    +0.000 N 
ATOM      8  C   UNL     1      -0.315  14.211  18.695  0.00  0.00    +0.000 C 
ATOM      9  C   UNL     1      -0.209  15.722  18.798  0.00  0.00    +0.000 C 
ATOM     10  C   UNL     1      -0.290  16.087  20.266  0.00  0.00    +0.000 C 
ATOM     11  C   UNL     1       0.897  15.495  20.997  0.00  0.00    +0.000 C 
ATOM     12  C   UNL     1       1.219  14.045  20.671  0.00  0.00    +0.000 C 
ATOM     13  O   UNL     1       1.964  13.431  21.442  0.00  0.00    +0.000 OA
ENDBRANCH   4   7
BRANCH   1  16
ATOM     14  C   UNL     1       2.366   7.193  18.838  0.00  0.00    +0.000 C 
ATOM     15  O   UNL     1       2.361   7.295  20.062  0.00  0.00    +0.000 OA
ATOM     16  N   UNL     1       2.041   8.211  17.959  0.00  0.00    +0.000 N 
ATOM     17  H   UNL     1       1.984   7.959  16.979  0.00  0.00    +0.000 HD
BRANCH  14  24
ATOM     18  C   UNL     1       3.802   5.584  17.406  0.00  0.00    +0.000 A 
ATOM     19  C   UNL     1       4.035   4.263  16.992  0.00  0.00    +0.000 A 
ATOM     20  C   UNL     1       3.179   3.230  17.385  0.00  0.00    +0.000 A 
ATOM     21  C   UNL     1       2.088   3.501  18.193  0.00  0.00    +0.000 A 
ATOM     22 CL   UNL     1       1.025   2.231  18.656  0.00  0.00    +0.000 Cl
ATOM     23  C   UNL     1       1.857   4.796  18.633  0.00  0.00    +0.000 A 
ATOM     24  C   UNL     1       2.714   5.853  18.262  0.00  0.00    +0.000 A 
BRANCH  18  26
ATOM     25  C   UNL     1       6.018   6.369  17.035  0.00  0.00    +0.000 C 
ATOM     26  O   UNL     1       4.614   6.629  17.034  0.00  0.00    +0.000 OA
ENDBRANCH  18  26
ENDBRANCH  14  24
ENDBRANCH   1  16
BRANCH   5  27
ATOM     27  O   UNL     1      -0.768  11.301  20.446  0.00  0.00    +0.000 OA
ATOM     28  C   UNL     1      -0.621  10.888  21.795  0.00  0.00    +0.000 C 
ENDBRANCH   5  27
TORSDOF 5
ENDMDL
MODEL 3
REMARK VINA RESULT:      -7.2      2.963      8.591
REMARK  Name = 
REMARK  7 active torsions:
REMARK  status: ('A' for Active; 'I' for Inactive)
REMARK    1  A    between atoms: C_1  and  O_2
REMARK    2  A    between atoms: O_2  and  C_3
REMARK    3  A    between atoms: C_9  and  C_10
REMARK    4  A    between atoms: N_12  and  C_13
REMARK    5  A    between atoms: C_16  and  N_17
REMARK    6  A    between atoms: C_24  and  O_25
REMARK    7  A    between atoms: O_25  and  C_26
REMARK                            x       y       z     vdW  Elec       q    Type
REMARK                         _______ _______ _______ _____ _____    ______ ____
ROOT
ATOM      1  C   UNL     1       1.510   8.400  20.158  0.00  0.00    +0.000 A 
ATOM      2  C   UNL     1       1.264   7.316  20.998  0.00  0.00    +0.000 A 
ATOM      3  C   UNL     1       1.649   6.026  20.631  0.00  0.00    +0.000 A 
ATOM      4  C   UNL     1       2.276   5.781  19.405  0.00  0.00    +0.000 A 
ATOM      5  C   UNL     1       2.516   6.872  18.536  0.00  0.00    +0.000 A 
ATOM      6  C   UNL     1       2.120   8.167  18.918  0.00  0.00    +0.000 A 
ENDROOT
BRANCH   4   7
ATOM      7  N   UNL     1       2.624   4.424  19.082  0.00  0.00    +0.000 N 
ATOM      8  C   UNL     1       1.632   3.626  18.360  0.00  0.00    +0.000 C 
ATOM      9  C   UNL     1       1.851   2.132  18.513  0.00  0.00    +0.000 C 
ATOM     10  C   UNL     1       3.263   1.827  18.056  0.00  0.00    +0.000 C 
ATOM     11  C   UNL     1       4.248   2.530  18.968  0.00  0.00    +0.000 C 
ATOM     12  C   UNL     1       3.933   3.983  19.288  0.00  0.00    +0.000 C 
ATOM     13  O   UNL     1       4.836   4.679  19.763  0.00  0.00    +0.000 OA
ENDBRANCH   4   7
BRANCH   1  16
ATOM     14  C   UNL     1       0.194  10.502  19.903  0.00  0.00    +0.000 C 
ATOM     15  O   UNL     1      -0.571  10.109  19.026  0.00  0.00    +0.000 OA
ATOM     16  N   UNL     1       1.178   9.731  20.498  0.00  0.00    +0.000 N 
ATOM     17  H   UNL     1       1.665  10.149  21.282  0.00  0.00    +0.000 HD
BRANCH  14  24
ATOM     18  C   UNL     1      -0.119  12.303  21.736  0.00  0.00    +0.000 A 
ATOM     19  C   UNL     1      -0.221  13.670  22.041  0.00  0.00    +0.000 A 
ATOM     20  C   UNL     1      -0.231  14.630  21.025  0.00  0.00    +0.000 A 
ATOM     21  C   UNL     1      -0.138  14.240  19.700  0.00  0.00    +0.000 A 
ATOM     22 CL   UNL     1      -0.173  15.422  18.452  0.00  0.00    +0.000 Cl
ATOM     23  C   UNL     1      -0.010  12.896  19.381  0.00  0.00    +0.000 A 
ATOM     24  C   UNL     1       0.016  11.910  20.389  0.00  0.00    +0.000 A 
BRANCH  18  26
ATOM     25  C   UNL     1      -1.390  10.950  23.225  0.00  0.00    +0.000 C 
ATOM     26  O   UNL     1      -0.115  11.329  22.705  0.00  0.00    +0.000 OA
ENDBRANCH  18  26
ENDBRANCH  14  24
ENDBRANCH   1  16
BRANCH   5  27
ATOM     27  O   UNL     1       3.205   6.601  17.380  0.00  0.00    +0.000 OA
ATOM     28  C   UNL     1       4.540   7.063  17.253  0.00  0.00    +0.000 C 
ENDBRANCH   5  27
TORSDOF 5
ENDMDL
MODEL 4
REMARK VINA RESULT:      -7.1      3.204      8.974
REMARK  Name = 
REMARK  7 active torsions:
REMARK  status: ('A' for Active; 'I' for Inactive)
REMARK    1  A    between atoms: C_1  and  O_2
REMARK    2  A    between atoms: O_2  and  C_3
REMARK    3  A    between atoms: C_9  and  C_10
REMARK    4  A    between atoms: N_12  and  C_13
REMARK    5  A    between atoms: C_16  and  N_17
REMARK    6  A    between atoms: C_24  and  O_25
REMARK    7  A    between atoms: O_25  and  C_26
REMARK                            x       y       z     vdW  Elec       q    Type
REMARK                         _______ _______ _______ _____ _____    ______ ____
ROOT
ATOM      1  C   UNL     1       1.480   8.442  19.425  0.00  0.00    +0.000 A 
ATOM      2  C   UNL     1       1.937   8.717  18.139  0.00  0.00    +0.000 A 
ATOM      3  C   UNL     1       2.883   7.894  17.526  0.00  0.00    +0.000 A 
ATOM      4  C   UNL     1       3.411   6.782  18.190  0.00  0.00    +0.000 A 
ATOM      5  C   UNL     1       2.967   6.503  19.504  0.00  0.00    +0.000 A 
ATOM      6  C   UNL     1       2.014   7.343  20.110  0.00  0.00    +0.000 A 
ENDROOT
BRANCH   4   7
ATOM      7  N   UNL     1       4.400   5.993  17.507  0.00  0.00    +0.000 N 
ATOM      8  C   UNL     1       5.781   6.477  17.525  0.00  0.00    +0.000 C 
ATOM      9  C   UNL     1       6.623   5.902  16.401  0.00  0.00    +0.000 C 
ATOM     10  C   UNL     1       6.552   4.392  16.502  0.00  0.00    +0.000 C 
ATOM     11  C   UNL     1       5.122   3.942  16.280  0.00  0.00    +0.000 C 
ATOM     12  C   UNL     1       4.057   4.727  17.028  0.00  0.00    +0.000 C 
ATOM     13  O   UNL     1       2.932   4.226  17.127  0.00  0.00    +0.000 OA
ENDBRANCH   4   7
BRANCH   1  16
ATOM     14  C   UNL     1       0.456  10.601  20.139  0.00  0.00    +0.000 C 
ATOM     15  O   UNL     1       1.253  11.351  19.582  0.00  0.00    +0.000 OA
ATOM     16  N   UNL     1       0.494   9.218  20.077  0.00  0.00    +0.000 N 
ATOM     17  H   UNL     1      -0.287   8.727  20.495  0.00  0.00    +0.000 HD
BRANCH  14  24
ATOM     18  C   UNL     1      -0.757  11.305  22.315  0.00  0.00    +0.000 A 
ATOM     19  C   UNL     1      -1.839  11.987  22.895  0.00  0.00    +0.000 A 
ATOM     20  C   UNL     1      -2.835  12.556  22.096  0.00  0.00    +0.000 A 
ATOM     21  C   UNL     1      -2.763  12.454  20.717  0.00  0.00    +0.000 A 
ATOM     22 CL   UNL     1      -4.001  13.136  19.739  0.00  0.00    +0.000 Cl
ATOM     23  C   UNL     1      -1.687  11.807  20.126  0.00  0.00    +0.000 A 
ATOM     24  C   UNL     1      -0.662  11.237  20.910  0.00  0.00    +0.000 A 
BRANCH  18  26
ATOM     25  C   UNL     1      -0.002   9.388  23.506  0.00  0.00    +0.000 C 
ATOM     26  O   UNL     1       0.237  10.724  23.066  0.00  0.00    +0.000 OA
ENDBRANCH  18  26
ENDBRANCH  14  24
ENDBRANCH   1  16
BRANCH   5  27
ATOM     27  O   UNL     1       3.450   5.360  20.089  0.00  0.00    +0.000 OA
ATOM     28  C   UNL     1       2.539   4.475  20.722  0.00  0.00    +0.000 C 
ENDBRANCH   5  27
TORSDOF 5
ENDMDL
MODEL 5
REMARK VINA RESULT:      -7.1      2.861      8.655
REMARK  Name = 
REMARK  7 active torsions:
REMARK  status: ('A' for Active; 'I' for Inactive)
REMARK    1  A    between atoms: C_1  and  O_2
REMARK    2  A    between atoms: O_2  and  C_3
REMARK    3  A    between atoms: C_9  and  C_10
REMARK    4  A    between atoms: N_12  and  C_13
REMARK    5  A    between atoms: C_16  and  N_17
REMARK    6  A    between atoms: C_24  and  O_25
REMARK    7  A    between atoms: O_25  and  C_26
REMARK                            x       y       z     vdW  Elec       q    Type
REMARK                         _______ _______ _______ _____ _____    ______ ____
ROOT
ATOM      1  C   UNL     1       1.621   8.286  20.075  0.00  0.00    +0.000 A 
ATOM      2  C   UNL     1       1.297   7.178  20.854  0.00  0.00    +0.000 A 
ATOM      3  C   UNL     1       1.691   5.896  20.473  0.00  0.00    +0.000 A 
ATOM      4  C   UNL     1       2.407   5.682  19.290  0.00  0.00    +0.000 A 
ATOM      5  C   UNL     1       2.727   6.797  18.481  0.00  0.00    +0.000 A 
ATOM      6  C   UNL     1       2.320   8.085  18.877  0.00  0.00    +0.000 A 
ENDROOT
BRANCH   4   7
ATOM      7  N   UNL     1       2.760   4.331  18.948  0.00  0.00    +0.000 N 
ATOM      8  C   UNL     1       3.762   3.663  19.780  0.00  0.00    +0.000 C 
ATOM      9  C   UNL     1       4.430   2.495  19.077  0.00  0.00    +0.000 C 
ATOM     10  C   UNL     1       3.338   1.543  18.633  0.00  0.00    +0.000 C 
ATOM     11  C   UNL     1       2.448   2.238  17.622  0.00  0.00    +0.000 C 
ATOM     12  C   UNL     1       2.017   3.651  17.980  0.00  0.00    +0.000 C 
ATOM     13  O   UNL     1       1.067   4.140  17.360  0.00  0.00    +0.000 OA
ENDBRANCH   4   7
BRANCH   1  16
ATOM     14  C   UNL     1       0.380  10.427  19.774  0.00  0.00    +0.000 C 
ATOM     15  O   UNL     1      -0.297  10.089  18.807  0.00  0.00    +0.000 OA
ATOM     16  N   UNL     1       1.281   9.610  20.434  0.00  0.00    +0.000 N 
ATOM     17  H   UNL     1       1.693   9.984  21.281  0.00  0.00    +0.000 HD
BRANCH  14  24
ATOM     18  C   UNL     1      -0.305  12.153  21.579  0.00  0.00    +0.000 A 
ATOM     19  C   UNL     1      -0.383  13.505  21.948  0.00  0.00    +0.000 A 
ATOM     20  C   UNL     1      -0.026  14.513  21.048  0.00  0.00    +0.000 A 
ATOM     21  C   UNL     1       0.414  14.186  19.777  0.00  0.00    +0.000 A 
ATOM     22 CL   UNL     1       0.831  15.429  18.665  0.00  0.00    +0.000 Cl
ATOM     23  C   UNL     1       0.522  12.854  19.404  0.00  0.00    +0.000 A 
ATOM     24  C   UNL     1       0.181  11.819  20.298  0.00  0.00    +0.000 A 
BRANCH  18  26
ATOM     25  C   UNL     1      -1.801  11.362  23.252  0.00  0.00    +0.000 C 
ATOM     26  O   UNL     1      -0.656  11.133  22.431  0.00  0.00    +0.000 OA
ENDBRANCH  18  26
ENDBRANCH  14  24
ENDBRANCH   1  16
BRANCH   5  27
ATOM     27  O   UNL     1       3.498   6.554  17.372  0.00  0.00    +0.000 OA
ATOM     28  C   UNL     1       4.896   6.785  17.444  0.00  0.00    +0.000 C 
ENDBRANCH   5  27
TORSDOF 5
ENDMDL
MODEL 6
REMARK VINA RESULT:      -7.1      1.543      2.212
REMARK  Name = 
REMARK  7 active torsions:
REMARK  status: ('A' for Active; 'I' for Inactive)
REMARK    1  A    between atoms: C_1  and  O_2
REMARK    2  A    between atoms: O_2  and  C_3
REMARK    3  A    between atoms: C_9  and  C_10
REMARK    4  A    between atoms: N_12  and  C_13
REMARK    5  A    between atoms: C_16  and  N_17
REMARK    6  A    between atoms: C_24  and  O_25
REMARK    7  A    between atoms: O_25  and  C_26
REMARK                            x       y       z     vdW  Elec       q    Type
REMARK                         _______ _______ _______ _____ _____    ______ ____
ROOT
ATOM      1  C   UNL     1       1.318   8.570  20.435  0.00  0.00    +0.000 A 
ATOM      2  C   UNL     1       1.378   8.829  21.802  0.00  0.00    +0.000 A 
ATOM      3  C   UNL     1       0.697   9.915  22.354  0.00  0.00    +0.000 A 
ATOM      4  C   UNL     1      -0.051  10.782  21.551  0.00  0.00    +0.000 A 
ATOM      5  C   UNL     1      -0.105  10.538  20.159  0.00  0.00    +0.000 A 
ATOM      6  C   UNL     1       0.589   9.441  19.615  0.00  0.00    +0.000 A 
ENDROOT
BRANCH   4   7
ATOM      7  N   UNL     1      -0.708  11.893  22.184  0.00  0.00    +0.000 N 
ATOM      8  C   UNL     1      -1.880  11.603  23.011  0.00  0.00    +0.000 C 
ATOM      9  C   UNL     1      -2.781  12.810  23.203  0.00  0.00    +0.000 C 
ATOM     10  C   UNL     1      -1.936  13.922  23.791  0.00  0.00    +0.000 C 
ATOM     11  C   UNL     1      -0.857  14.309  22.800  0.00  0.00    +0.000 C 
ATOM     12  C   UNL     1      -0.110  13.155  22.150  0.00  0.00    +0.000 C 
ATOM     13  O   UNL     1       0.958  13.405  21.582  0.00  0.00    +0.000 OA
ENDBRANCH   4   7
BRANCH   1  16
ATOM     14  C   UNL     1       2.470   7.421  18.546  0.00  0.00    +0.000 C 
ATOM     15  O   UNL     1       2.490   8.370  17.767  0.00  0.00    +0.000 OA
ATOM     16  N   UNL     1       1.956   7.463  19.831  0.00  0.00    +0.000 N 
ATOM     17  H   UNL     1       2.099   6.637  20.401  0.00  0.00    +0.000 HD
BRANCH  14  24
ATOM     18  C   UNL     1       4.371   5.994  17.520  0.00  0.00    +0.000 A 
ATOM     19  C   UNL     1       4.831   4.711  17.179  0.00  0.00    +0.000 A 
ATOM     20  C   UNL     1       4.013   3.590  17.349  0.00  0.00    +0.000 A 
ATOM     21  C   UNL     1       2.734   3.735  17.860  0.00  0.00    +0.000 A 
ATOM     22 CL   UNL     1       1.723   2.356  18.046  0.00  0.00    +0.000 Cl
ATOM     23  C   UNL     1       2.272   4.991  18.226  0.00  0.00    +0.000 A 
ATOM     24  C   UNL     1       3.083   6.134  18.078  0.00  0.00    +0.000 A 
BRANCH  18  26
ATOM     25  C   UNL     1       6.533   6.908  17.128  0.00  0.00    +0.000 C 
ATOM     26  O   UNL     1       5.140   7.121  17.360  0.00  0.00    +0.000 OA
ENDBRANCH  18  26
ENDBRANCH  14  24
ENDBRANCH   1  16
BRANCH   5  27
ATOM     27  O   UNL     1      -0.913  11.364  19.418  0.00  0.00    +0.000 OA
ATOM     28  C   UNL     1      -1.635  10.819  18.325  0.00  0.00    +0.000 C 
ENDBRANCH   5  27
TORSDOF 5
ENDMDL
MODEL 7
REMARK VINA RESULT:      -7.1      3.218      8.926
REMARK  Name = 
REMARK  7 active torsions:
REMARK  status: ('A' for Active; 'I' for Inactive)
REMARK    1  A    between atoms: C_1  and  O_2
REMARK    2  A    between atoms: O_2  and  C_3
REMARK    3  A    between atoms: C_9  and  C_10
REMARK    4  A    between atoms: N_12  and  C_13
REMARK    5  A    between atoms: C_16  and  N_17
REMARK    6  A    between atoms: C_24  and  O_25
REMARK    7  A    between atoms: O_25  and  C_26
REMARK                            x       y       z     vdW  Elec       q    Type
REMARK                         _______ _______ _______ _____ _____    ______ ____
ROOT
ATOM      1  C   UNL     1       1.545   8.076  20.481  0.00  0.00    +0.000 A 
ATOM      2  C   UNL     1       1.277   6.893  21.165  0.00  0.00    +0.000 A 
ATOM      3  C   UNL     1       1.694   5.663  20.656  0.00  0.00    +0.000 A 
ATOM      4  C   UNL     1       2.378   5.580  19.439  0.00  0.00    +0.000 A 
ATOM      5  C   UNL     1       2.642   6.773  18.727  0.00  0.00    +0.000 A 
ATOM      6  C   UNL     1       2.212   8.007  19.250  0.00  0.00    +0.000 A 
ENDROOT
BRANCH   4   7
ATOM      7  N   UNL     1       2.758   4.277  18.964  0.00  0.00    +0.000 N 
ATOM      8  C   UNL     1       3.785   3.556  19.718  0.00  0.00    +0.000 C 
ATOM      9  C   UNL     1       4.471   2.478  18.899  0.00  0.00    +0.000 C 
ATOM     10  C   UNL     1       3.396   1.547  18.376  0.00  0.00    +0.000 C 
ATOM     11  C   UNL     1       2.477   2.314  17.446  0.00  0.00    +0.000 C 
ATOM     12  C   UNL     1       2.019   3.676  17.943  0.00  0.00    +0.000 C 
ATOM     13  O   UNL     1       1.051   4.199  17.383  0.00  0.00    +0.000 OA
ENDBRANCH   4   7
BRANCH   1  16
ATOM     14  C   UNL     1       0.109  10.114  20.537  0.00  0.00    +0.000 C 
ATOM     15  O   UNL     1      -0.712   9.757  19.696  0.00  0.00    +0.000 OA
ATOM     16  N   UNL     1       1.180   9.351  20.970  0.00  0.00    +0.000 N 
ATOM     17  H   UNL     1       1.716   9.726  21.744  0.00  0.00    +0.000 HD
BRANCH  14  24
ATOM     18  C   UNL     1       0.727  12.592  20.962  0.00  0.00    +0.000 A 
ATOM     19  C   UNL     1       0.378  13.806  21.575  0.00  0.00    +0.000 A 
ATOM     20  C   UNL     1      -0.740  13.889  22.410  0.00  0.00    +0.000 A 
ATOM     21  C   UNL     1      -1.521  12.769  22.639  0.00  0.00    +0.000 A 
ATOM     22 CL   UNL     1      -2.883  12.871  23.683  0.00  0.00    +0.000 Cl
ATOM     23  C   UNL     1      -1.206  11.568  22.021  0.00  0.00    +0.000 A 
ATOM     24  C   UNL     1      -0.092  11.462  21.164  0.00  0.00    +0.000 A 
BRANCH  18  26
ATOM     25  C   UNL     1       1.657  12.900  18.793  0.00  0.00    +0.000 C 
ATOM     26  O   UNL     1       1.824  12.466  20.143  0.00  0.00    +0.000 OA
ENDBRANCH  18  26
ENDBRANCH  14  24
ENDBRANCH   1  16
BRANCH   5  27
ATOM     27  O   UNL     1       3.384   6.655  17.579  0.00  0.00    +0.000 OA
ATOM     28  C   UNL     1       4.798   6.734  17.664  0.00  0.00    +0.000 C 
ENDBRANCH   5  27
TORSDOF 5
ENDMDL
MODEL 8
REMARK VINA RESULT:      -7.1      1.143      1.143
REMARK  Name = 
REMARK  7 active torsions:
REMARK  status: ('A' for Active; 'I' for Inactive)
REMARK    1  A    between atoms: C_1  and  O_2
REMARK    2  A    between atoms: O_2  and  C_3
REMARK    3  A    between atoms: C_9  and  C_10
REMARK    4  A    between atoms: N_12  and  C_13
REMARK    5  A    between atoms: C_16  and  N_17
REMARK    6  A    between atoms: C_24  and  O_25
REMARK    7  A    between atoms: O_25  and  C_26
REMARK                            x       y       z     vdW  Elec       q    Type
REMARK                         _______ _______ _______ _____ _____    ______ ____
ROOT
ATOM      1  C   UNL     1       1.570   8.657  19.766  0.00  0.00    +0.000 A 
ATOM      2  C   UNL     1       1.534   8.723  21.156  0.00  0.00    +0.000 A 
ATOM      3  C   UNL     1       0.846   9.749  21.805  0.00  0.00    +0.000 A 
ATOM      4  C   UNL     1       0.187  10.747  21.081  0.00  0.00    +0.000 A 
ATOM      5  C   UNL     1       0.230  10.700  19.668  0.00  0.00    +0.000 A 
ATOM      6  C   UNL     1       0.931   9.662  19.026  0.00  0.00    +0.000 A 
ENDROOT
BRANCH   4   7
ATOM      7  N   UNL     1      -0.482  11.786  21.815  0.00  0.00    +0.000 N 
ATOM      8  C   UNL     1      -1.668  11.411  22.588  0.00  0.00    +0.000 C 
ATOM      9  C   UNL     1      -2.574  12.591  22.891  0.00  0.00    +0.000 C 
ATOM     10  C   UNL     1      -1.741  13.635  23.605  0.00  0.00    +0.000 C 
ATOM     11  C   UNL     1      -0.647  14.124  22.678  0.00  0.00    +0.000 C 
ATOM     12  C   UNL     1       0.113  13.045  21.923  0.00  0.00    +0.000 C 
ATOM     13  O   UNL     1       1.190  13.353  21.402  0.00  0.00    +0.000 OA
ENDBRANCH   4   7
BRANCH   1  16
ATOM     14  C   UNL     1       2.365   6.311  19.485  0.00  0.00    +0.000 C 
ATOM     15  O   UNL     1       1.898   5.855  20.525  0.00  0.00    +0.000 OA
ATOM     16  N   UNL     1       2.218   7.619  19.058  0.00  0.00    +0.000 N 
ATOM     17  H   UNL     1       2.565   7.832  18.130  0.00  0.00    +0.000 HD
BRANCH  14  24
ATOM     18  C   UNL     1       2.571   4.235  17.951  0.00  0.00    +0.000 A 
ATOM     19  C   UNL     1       3.389   3.472  17.102  0.00  0.00    +0.000 A 
ATOM     20  C   UNL     1       4.738   3.797  16.929  0.00  0.00    +0.000 A 
ATOM     21  C   UNL     1       5.283   4.882  17.595  0.00  0.00    +0.000 A 
ATOM     22 CL   UNL     1       6.947   5.264  17.396  0.00  0.00    +0.000 Cl
ATOM     23  C   UNL     1       4.483   5.662  18.417  0.00  0.00    +0.000 A 
ATOM     24  C   UNL     1       3.117   5.364  18.597  0.00  0.00    +0.000 A 
BRANCH  18  26
ATOM     25  C   UNL     1       0.961   2.692  18.781  0.00  0.00    +0.000 C 
ATOM     26  O   UNL     1       1.244   3.943  18.155  0.00  0.00    +0.000 OA
ENDBRANCH  18  26
ENDBRANCH  14  24
ENDBRANCH   1  16
BRANCH   5  27
ATOM     27  O   UNL     1      -0.495  11.652  18.996  0.00  0.00    +0.000 OA
ATOM     28  C   UNL     1      -1.756  11.297  18.451  0.00  0.00    +0.000 C 
ENDBRANCH   5  27
TORSDOF 5
ENDMDL
MODEL 9
REMARK VINA RESULT:      -7.1      1.380      1.966
REMARK  Name = 
REMARK  7 active torsions:
REMARK  status: ('A' for Active; 'I' for Inactive)
REMARK    1  A    between atoms: C_1  and  O_2
REMARK    2  A    between atoms: O_2  and  C_3
REMARK    3  A    between atoms: C_9  and  C_10
REMARK    4  A    between atoms: N_12  and  C_13
REMARK    5  A    between atoms: C_16  and  N_17
REMARK    6  A    between atoms: C_24  and  O_25
REMARK    7  A    between atoms: O_25  and  C_26
REMARK                            x       y       z     vdW  Elec       q    Type
REMARK                         _______ _______ _______ _____ _____    ______ ____
ROOT
ATOM      1  C   UNL     1       1.563   8.644  19.418  0.00  0.00    +0.000 A 
ATOM      2  C   UNL     1       1.147   9.649  18.548  0.00  0.00    +0.000 A 
ATOM      3  C   UNL     1       0.557  10.815  19.035  0.00  0.00    +0.000 A 
ATOM      4  C   UNL     1       0.350  11.002  20.406  0.00  0.00    +0.000 A 
ATOM      5  C   UNL     1       0.753   9.981  21.297  0.00  0.00    +0.000 A 
ATOM      6  C   UNL     1       1.345   8.809  20.792  0.00  0.00    +0.000 A 
ENDROOT
BRANCH   4   7
ATOM      7  N   UNL     1      -0.285  12.219  20.834  0.00  0.00    +0.000 N 
ATOM      8  C   UNL     1      -1.744  12.213  20.954  0.00  0.00    +0.000 C 
ATOM      9  C   UNL     1      -2.347  13.606  20.903  0.00  0.00    +0.000 C 
ATOM     10  C   UNL     1      -1.693  14.427  21.995  0.00  0.00    +0.000 C 
ATOM     11  C   UNL     1      -0.211  14.558  21.705  0.00  0.00    +0.000 C 
ATOM     12  C   UNL     1       0.499  13.278  21.296  0.00  0.00    +0.000 C 
ATOM     13  O   UNL     1       1.733  13.261  21.345  0.00  0.00    +0.000 OA
ENDBRANCH   4   7
BRANCH   1  16
ATOM     14  C   UNL     1       3.020   7.338  17.872  0.00  0.00    +0.000 C 
ATOM     15  O   UNL     1       3.350   8.266  17.138  0.00  0.00    +0.000 OA
ATOM     16  N   UNL     1       2.202   7.461  18.982  0.00  0.00    +0.000 N 
ATOM     17  H   UNL     1       2.098   6.634  19.558  0.00  0.00    +0.000 HD
BRANCH  14  24
ATOM     18  C   UNL     1       2.924   4.753  17.775  0.00  0.00    +0.000 A 
ATOM     19  C   UNL     1       3.555   3.563  17.377  0.00  0.00    +0.000 A 
ATOM     20  C   UNL     1       4.834   3.587  16.814  0.00  0.00    +0.000 A 
ATOM     21  C   UNL     1       5.494   4.791  16.639  0.00  0.00    +0.000 A 
ATOM     22 CL   UNL     1       7.076   4.814  15.966  0.00  0.00    +0.000 Cl
ATOM     23  C   UNL     1       4.875   5.979  17.002  0.00  0.00    +0.000 A 
ATOM     24  C   UNL     1       3.580   5.982  17.559  0.00  0.00    +0.000 A 
BRANCH  18  26
ATOM     25  C   UNL     1       1.332   3.652  19.159  0.00  0.00    +0.000 C 
ATOM     26  O   UNL     1       1.672   4.771  18.341  0.00  0.00    +0.000 OA
ENDBRANCH  18  26
ENDBRANCH  14  24
ENDBRANCH   1  16
BRANCH   5  27
ATOM     27  O   UNL     1       0.605  10.238  22.637  0.00  0.00    +0.000 OA
ATOM     28  C   UNL     1      -0.440   9.595  23.348  0.00  0.00    +0.000 C 
ENDBRANCH   5  27
TORSDOF 5
ENDMDL
