MODEL 1
REMARK VINA RESULT:      -8.9      0.000      0.000
REMARK  Name = 
REMARK  9 active torsions:
REMARK  status: ('A' for Active; 'I' for Inactive)
REMARK    1  A    between atoms: C_1  and  C_2
REMARK    2  A    between atoms: C_5  and  O_6
REMARK    3  A    between atoms: O_6  and  C_7
REMARK    4  A    between atoms: C_12  and  C_13
REMARK    5  A    between atoms: C_13  and  O_14
REMARK    6  A    between atoms: O_14  and  C_15
REMARK    7  A    between atoms: C_19  and  C_20
REMARK    8  A    between atoms: C_20  and  O_22
REMARK    9  A    between atoms: N_24  and  C_25
REMARK                            x       y       z     vdW  Elec       q    Type
REMARK                         _______ _______ _______ _____ _____    ______ ____
ROOT
ATOM      1  C   UNL     1       5.077   4.409  16.928  0.00  0.00    +0.000 A 
ATOM      2  C   UNL     1       4.786   5.374  15.963  0.00  0.00    +0.000 A 
ATOM      3  C   UNL     1       5.495   6.588  15.930  0.00  0.00    +0.000 A 
ATOM      4  C   UNL     1       6.476   6.821  16.907  0.00  0.00    +0.000 A 
ATOM      5  N   UNL     1       7.235   7.937  17.143  0.00  0.00    +0.000 NA
ATOM      6  C   UNL     1       7.975   7.665  18.204  0.00  0.00    +0.000 A 
ATOM      7  N   UNL     1       7.714   6.391  18.657  0.00  0.00    +0.000 N 
ATOM      8  C   UNL     1       8.214   5.745  19.849  0.00  0.00    +0.000 C 
ATOM      9  C   UNL     1       6.773   5.823  17.825  0.00  0.00    +0.000 A 
ATOM     10  C   UNL     1       6.138   4.583  17.827  0.00  0.00    +0.000 A 
ENDROOT
BRANCH   1  11
ATOM     11  O   UNL     1       4.265   3.289  16.959  0.00  0.00    +0.000 OA
BRANCH  11  16
ATOM     12  C   UNL     1       1.252   2.691  21.744  0.00  0.00    +0.000 C 
ATOM     13  C   UNL     1       2.021   2.817  20.463  0.00  0.00    +0.000 A 
ATOM     14  C   UNL     1       1.378   3.217  19.287  0.00  0.00    +0.000 A 
ATOM     15  C   UNL     1       2.095   3.329  18.096  0.00  0.00    +0.000 A 
ATOM     16  C   UNL     1       3.472   3.099  18.077  0.00  0.00    +0.000 A 
ATOM     17  C   UNL     1       4.114   2.652  19.233  0.00  0.00    +0.000 A 
ATOM     18  C   UNL     1       3.387   2.506  20.419  0.00  0.00    +0.000 A 
ENDBRANCH  11  16
ENDBRANCH   1  11
BRANCH   6  19
ATOM     19  C   UNL     1       8.914   8.630  18.851  0.00  0.00    +0.000 C 
BRANCH  19  20
ATOM     20  O   UNL     1       8.666   9.914  18.274  0.00  0.00    +0.000 OA
BRANCH  20  21
ATOM     21  C   UNL     1       9.441  10.953  18.716  0.00  0.00    +0.000 A 
ATOM     22  C   UNL     1       9.761  11.230  20.046  0.00  0.00    +0.000 A 
ATOM     23  C   UNL     1      10.611  12.295  20.362  0.00  0.00    +0.000 A 
ATOM     24  C   UNL     1      11.144  13.095  19.350  0.00  0.00    +0.000 A 
ATOM     25  C   UNL     1      10.802  12.845  18.017  0.00  0.00    +0.000 A 
ATOM     26  C   UNL     1       9.955  11.773  17.706  0.00  0.00    +0.000 A 
BRANCH  25  27
ATOM     27  C   UNL     1      11.366  13.640  16.895  0.00  0.00    +0.000 C 
ATOM     28  O   UNL     1      11.146  14.831  16.754  0.00  0.00    +0.000 OA
BRANCH  27  29
ATOM     29  O   UNL     1      12.154  12.935  16.056  0.00  0.00    +0.000 OA
ATOM     30  H   UNL     1      12.936  12.523  16.464  0.00  0.00    +0.000 HD
ENDBRANCH  27  29
ENDBRANCH  25  27
ENDBRANCH  20  21
ENDBRANCH  19  20
ENDBRANCH   6  19
TORSDOF 7
ENDMDL
MODEL 2
REMARK VINA RESULT:      -8.3      0.386      1.135
REMARK  Name = 
REMARK  9 active torsions:
REMARK  status: ('A' for Active; 'I' for Inactive)
REMARK    1  A    between atoms: C_1  and  C_2
REMARK    2  A    between atoms: C_5  and  O_6
REMARK    3  A    between atoms: O_6  and  C_7
REMARK    4  A    between atoms: C_12  and  C_13
REMARK    5  A    between atoms: C_13  and  O_14
REMARK    6  A    between atoms: O_14  and  C_15
REMARK    7  A    between atoms: C_19  and  C_20
REMARK    8  A    between atoms: C_20  and  O_22
REMARK    9  A    between atoms: N_24  and  C_25
REMARK                            x       y       z     vdW  Elec       q    Type
REMARK                         _______ _______ _______ _____ _____    ______ ____
ROOT
ATOM      1  C   UNL     1       4.847   4.333  17.185  0.00  0.00    +0.000 A 
ATOM      2  C   UNL     1       4.535   5.253  16.183  0.00  0.00    +0.000 A 
ATOM      3  C   UNL     1       5.278   6.439  16.046  0.00  0.00    +0.000 A 
ATOM      4  C   UNL     1       6.316   6.692  16.956  0.00  0.00    +0.000 A 
ATOM      5  N   UNL     1       7.120   7.793  17.090  0.00  0.00    +0.000 NA
ATOM      6  C   UNL     1       7.907   7.555  18.125  0.00  0.00    +0.000 A 
ATOM      7  N   UNL     1       7.632   6.317  18.662  0.00  0.00    +0.000 N 
ATOM      8  C   UNL     1       8.175   5.720  19.860  0.00  0.00    +0.000 C 
ATOM      9  C   UNL     1       6.631   5.736  17.912  0.00  0.00    +0.000 A 
ATOM     10  C   UNL     1       5.959   4.520  18.017  0.00  0.00    +0.000 A 
ENDROOT
BRANCH   1  11
ATOM     11  O   UNL     1       4.005   3.244  17.320  0.00  0.00    +0.000 OA
BRANCH  11  16
ATOM     12  C   UNL     1       1.026   2.439  22.096  0.00  0.00    +0.000 C 
ATOM     13  C   UNL     1       1.839   2.680  20.859  0.00  0.00    +0.000 A 
ATOM     14  C   UNL     1       3.194   2.334  20.823  0.00  0.00    +0.000 A 
ATOM     15  C   UNL     1       3.948   2.563  19.673  0.00  0.00    +0.000 A 
ATOM     16  C   UNL     1       3.346   3.085  18.527  0.00  0.00    +0.000 A 
ATOM     17  C   UNL     1       2.007   3.478  18.567  0.00  0.00    +0.000 A 
ATOM     18  C   UNL     1       1.260   3.281  19.733  0.00  0.00    +0.000 A 
ENDBRANCH  11  16
ENDBRANCH   1  11
BRANCH   6  19
ATOM     19  C   UNL     1       8.908   8.522  18.668  0.00  0.00    +0.000 C 
BRANCH  19  20
ATOM     20  O   UNL     1       8.497   9.830  18.263  0.00  0.00    +0.000 OA
BRANCH  20  21
ATOM     21  C   UNL     1       9.202  10.888  18.771  0.00  0.00    +0.000 A 
ATOM     22  C   UNL     1       9.471  11.120  20.121  0.00  0.00    +0.000 A 
ATOM     23  C   UNL     1      10.253  12.214  20.508  0.00  0.00    +0.000 A 
ATOM     24  C   UNL     1      10.768  13.086  19.548  0.00  0.00    +0.000 A 
ATOM     25  C   UNL     1      10.475  12.880  18.196  0.00  0.00    +0.000 A 
ATOM     26  C   UNL     1       9.697  11.778  17.814  0.00  0.00    +0.000 A 
BRANCH  25  27
ATOM     27  C   UNL     1      11.024  13.753  17.127  0.00  0.00    +0.000 C 
ATOM     28  O   UNL     1      11.925  13.399  16.384  0.00  0.00    +0.000 OA
BRANCH  27  29
ATOM     29  O   UNL     1      10.432  14.962  17.038  0.00  0.00    +0.000 OA
ATOM     30  H   UNL     1       9.462  14.947  16.955  0.00  0.00    +0.000 HD
ENDBRANCH  27  29
ENDBRANCH  25  27
ENDBRANCH  20  21
ENDBRANCH  19  20
ENDBRANCH   6  19
TORSDOF 7
ENDMDL
MODEL 3
REMARK VINA RESULT:      -8.2      8.538     11.192
REMARK  Name = 
REMARK  9 active torsions:
REMARK  status: ('A' for Active; 'I' for Inactive)
REMARK    1  A    between atoms: C_1  and  C_2
REMARK    2  A    between atoms: C_5  and  O_6
REMARK    3  A    between atoms: O_6  and  C_7
REMARK    4  A    between atoms: C_12  and  C_13
REMARK    5  A    between atoms: C_13  and  O_14
REMARK    6  A    between atoms: O_14  and  C_15
REMARK    7  A    between atoms: C_19  and  C_20
REMARK    8  A    between atoms: C_20  and  O_22
REMARK    9  A    between atoms: N_24  and  C_25
REMARK                            x       y       z     vdW  Elec       q    Type
REMARK                         _______ _______ _______ _____ _____    ______ ____
ROOT
ATOM      1  C   UNL     1       2.120   8.005  19.456  0.00  0.00    +0.000 A 
ATOM      2  C   UNL     1       2.002   8.561  18.181  0.00  0.00    +0.000 A 
ATOM      3  C   UNL     1       1.148   9.655  17.954  0.00  0.00    +0.000 A 
ATOM      4  C   UNL     1       0.394  10.154  19.028  0.00  0.00    +0.000 A 
ATOM      5  N   UNL     1      -0.558  11.139  19.052  0.00  0.00    +0.000 NA
ATOM      6  C   UNL     1      -1.000  11.197  20.296  0.00  0.00    +0.000 A 
ATOM      7  N   UNL     1      -0.348  10.273  21.082  0.00  0.00    +0.000 N 
ATOM      8  C   UNL     1      -0.607   9.928  22.461  0.00  0.00    +0.000 C 
ATOM      9  C   UNL     1       0.568   9.609  20.293  0.00  0.00    +0.000 A 
ATOM     10  C   UNL     1       1.465   8.576  20.556  0.00  0.00    +0.000 A 
ENDROOT
BRANCH   1  11
ATOM     11  O   UNL     1       2.898   6.868  19.575  0.00  0.00    +0.000 OA
BRANCH  11  16
ATOM     12  C   UNL     1       0.619   1.721  18.765  0.00  0.00    +0.000 C 
ATOM     13  C   UNL     1       1.179   3.093  18.992  0.00  0.00    +0.000 A 
ATOM     14  C   UNL     1       1.164   3.663  20.269  0.00  0.00    +0.000 A 
ATOM     15  C   UNL     1       1.681   4.941  20.476  0.00  0.00    +0.000 A 
ATOM     16  C   UNL     1       2.273   5.642  19.424  0.00  0.00    +0.000 A 
ATOM     17  C   UNL     1       2.251   5.103  18.136  0.00  0.00    +0.000 A 
ATOM     18  C   UNL     1       1.699   3.836  17.922  0.00  0.00    +0.000 A 
ENDBRANCH  11  16
ENDBRANCH   1  11
BRANCH   6  19
ATOM     19  C   UNL     1      -2.096  12.099  20.764  0.00  0.00    +0.000 C 
BRANCH  19  20
ATOM     20  O   UNL     1      -2.749  12.610  19.600  0.00  0.00    +0.000 OA
BRANCH  20  21
ATOM     21  C   UNL     1      -4.016  12.152  19.348  0.00  0.00    +0.000 A 
ATOM     22  C   UNL     1      -4.425  11.456  18.210  0.00  0.00    +0.000 A 
ATOM     23  C   UNL     1      -5.740  10.994  18.099  0.00  0.00    +0.000 A 
ATOM     24  C   UNL     1      -6.658  11.229  19.123  0.00  0.00    +0.000 A 
ATOM     25  C   UNL     1      -6.266  11.956  20.252  0.00  0.00    +0.000 A 
ATOM     26  C   UNL     1      -4.945  12.410  20.361  0.00  0.00    +0.000 A 
BRANCH  25  27
ATOM     27  C   UNL     1      -7.188  12.205  21.390  0.00  0.00    +0.000 C 
ATOM     28  O   UNL     1      -7.638  13.311  21.644  0.00  0.00    +0.000 OA
BRANCH  27  29
ATOM     29  O   UNL     1      -7.497  11.105  22.107  0.00  0.00    +0.000 OA
ATOM     30  H   UNL     1      -8.193  11.226  22.778  0.00  0.00    +0.000 HD
ENDBRANCH  27  29
ENDBRANCH  25  27
ENDBRANCH  20  21
ENDBRANCH  19  20
ENDBRANCH   6  19
TORSDOF 7
ENDMDL
MODEL 4
REMARK VINA RESULT:      -8.1      5.494      8.040
REMARK  Name = 
REMARK  9 active torsions:
REMARK  status: ('A' for Active; 'I' for Inactive)
REMARK    1  A    between atoms: C_1  and  C_2
REMARK    2  A    between atoms: C_5  and  O_6
REMARK    3  A    between atoms: O_6  and  C_7
REMARK    4  A    between atoms: C_12  and  C_13
REMARK    5  A    between atoms: C_13  and  O_14
REMARK    6  A    between atoms: O_14  and  C_15
REMARK    7  A    between atoms: C_19  and  C_20
REMARK    8  A    between atoms: C_20  and  O_22
REMARK    9  A    between atoms: N_24  and  C_25
REMARK                            x       y       z     vdW  Elec       q    Type
REMARK                         _______ _______ _______ _____ _____    ______ ____
ROOT
ATOM      1  C   UNL     1       1.201   9.446  19.291  0.00  0.00    +0.000 A 
ATOM      2  C   UNL     1       0.803   9.002  20.553  0.00  0.00    +0.000 A 
ATOM      3  C   UNL     1       1.199   7.737  21.022  0.00  0.00    +0.000 A 
ATOM      4  C   UNL     1       1.974   6.920  20.184  0.00  0.00    +0.000 A 
ATOM      5  N   UNL     1       2.410   5.635  20.367  0.00  0.00    +0.000 NA
ATOM      6  C   UNL     1       3.064   5.304  19.266  0.00  0.00    +0.000 A 
ATOM      7  N   UNL     1       3.065   6.355  18.375  0.00  0.00    +0.000 N 
ATOM      8  C   UNL     1       3.562   6.377  17.019  0.00  0.00    +0.000 C 
ATOM      9  C   UNL     1       2.392   7.410  18.954  0.00  0.00    +0.000 A 
ATOM     10  C   UNL     1       2.076   8.689  18.501  0.00  0.00    +0.000 A 
ENDROOT
BRANCH   1  11
ATOM     11  O   UNL     1       0.683  10.655  18.860  0.00  0.00    +0.000 OA
BRANCH  11  16
ATOM     12  C   UNL     1      -4.812  11.201  17.501  0.00  0.00    +0.000 C 
ATOM     13  C   UNL     1      -3.371  11.014  17.873  0.00  0.00    +0.000 A 
ATOM     14  C   UNL     1      -2.590  10.053  17.223  0.00  0.00    +0.000 A 
ATOM     15  C   UNL     1      -1.252   9.878  17.573  0.00  0.00    +0.000 A 
ATOM     16  C   UNL     1      -0.661  10.700  18.535  0.00  0.00    +0.000 A 
ATOM     17  C   UNL     1      -1.443  11.630  19.223  0.00  0.00    +0.000 A 
ATOM     18  C   UNL     1      -2.794  11.780  18.896  0.00  0.00    +0.000 A 
ENDBRANCH  11  16
ENDBRANCH   1  11
BRANCH   6  19
ATOM     19  C   UNL     1       3.663   3.960  19.008  0.00  0.00    +0.000 C 
BRANCH  19  20
ATOM     20  O   UNL     1       5.004   3.992  19.500  0.00  0.00    +0.000 OA
BRANCH  20  21
ATOM     21  C   UNL     1       5.908   4.736  18.789  0.00  0.00    +0.000 A 
ATOM     22  C   UNL     1       6.735   5.735  19.306  0.00  0.00    +0.000 A 
ATOM     23  C   UNL     1       7.658   6.386  18.480  0.00  0.00    +0.000 A 
ATOM     24  C   UNL     1       7.757   6.047  17.130  0.00  0.00    +0.000 A 
ATOM     25  C   UNL     1       6.908   5.072  16.596  0.00  0.00    +0.000 A 
ATOM     26  C   UNL     1       5.991   4.418  17.430  0.00  0.00    +0.000 A 
BRANCH  25  27
ATOM     27  C   UNL     1       6.993   4.643  15.176  0.00  0.00    +0.000 C 
ATOM     28  O   UNL     1       7.650   5.246  14.343  0.00  0.00    +0.000 OA
BRANCH  27  29
ATOM     29  O   UNL     1       6.294   3.525  14.890  0.00  0.00    +0.000 OA
ATOM     30  H   UNL     1       6.824   2.715  14.792  0.00  0.00    +0.000 HD
ENDBRANCH  27  29
ENDBRANCH  25  27
ENDBRANCH  20  21
ENDBRANCH  19  20
ENDBRANCH   6  19
TORSDOF 7
ENDMDL
MODEL 5
REMARK VINA RESULT:      -8.1      5.699      8.139
REMARK  Name = 
REMARK  9 active torsions:
REMARK  status: ('A' for Active; 'I' for Inactive)
REMARK    1  A    between atoms: C_1  and  C_2
REMARK    2  A    between atoms: C_5  and  O_6
REMARK    3  A    between atoms: O_6  and  C_7
REMARK    4  A    between atoms: C_12  and  C_13
REMARK    5  A    between atoms: C_13  and  O_14
REMARK    6  A    between atoms: O_14  and  C_15
REMARK    7  A    between atoms: C_19  and  C_20
REMARK    8  A    between atoms: C_20  and  O_22
REMARK    9  A    between atoms: N_24  and  C_25
REMARK                            x       y       z     vdW  Elec       q    Type
REMARK                         _______ _______ _______ _____ _____    ______ ____
ROOT
ATOM      1  C   UNL     1       0.828   9.809  20.037  0.00  0.00    +0.000 A 
ATOM      2  C   UNL     1       0.419   9.267  21.257  0.00  0.00    +0.000 A 
ATOM      3  C   UNL     1       0.761   7.948  21.603  0.00  0.00    +0.000 A 
ATOM      4  C   UNL     1       1.492   7.179  20.684  0.00  0.00    +0.000 A 
ATOM      5  N   UNL     1       1.870   5.863  20.742  0.00  0.00    +0.000 NA
ATOM      6  C   UNL     1       2.501   5.607  19.609  0.00  0.00    +0.000 A 
ATOM      7  N   UNL     1       2.543   6.735  18.819  0.00  0.00    +0.000 N 
ATOM      8  C   UNL     1       3.030   6.861  17.464  0.00  0.00    +0.000 C 
ATOM      9  C   UNL     1       1.923   7.761  19.500  0.00  0.00    +0.000 A 
ATOM     10  C   UNL     1       1.662   9.089  19.171  0.00  0.00    +0.000 A 
ENDROOT
BRANCH   1  11
ATOM     11  O   UNL     1       0.363  11.074  19.726  0.00  0.00    +0.000 OA
BRANCH  11  16
ATOM     12  C   UNL     1      -4.860  11.140  17.479  0.00  0.00    +0.000 C 
ATOM     13  C   UNL     1      -3.478  11.166  18.059  0.00  0.00    +0.000 A 
ATOM     14  C   UNL     1      -3.168  12.032  19.113  0.00  0.00    +0.000 A 
ATOM     15  C   UNL     1      -1.880  12.057  19.647  0.00  0.00    +0.000 A 
ATOM     16  C   UNL     1      -0.903  11.178  19.177  0.00  0.00    +0.000 A 
ATOM     17  C   UNL     1      -1.188  10.344  18.094  0.00  0.00    +0.000 A 
ATOM     18  C   UNL     1      -2.470  10.345  17.535  0.00  0.00    +0.000 A 
ENDBRANCH  11  16
ENDBRANCH   1  11
BRANCH   6  19
ATOM     19  C   UNL     1       3.035   4.268  19.220  0.00  0.00    +0.000 C 
BRANCH  19  20
ATOM     20  O   UNL     1       4.438   4.277  19.492  0.00  0.00    +0.000 OA
BRANCH  20  21
ATOM     21  C   UNL     1       5.271   4.576  18.446  0.00  0.00    +0.000 A 
ATOM     22  C   UNL     1       5.308   3.919  17.215  0.00  0.00    +0.000 A 
ATOM     23  C   UNL     1       6.171   4.359  16.205  0.00  0.00    +0.000 A 
ATOM     24  C   UNL     1       7.007   5.455  16.421  0.00  0.00    +0.000 A 
ATOM     25  C   UNL     1       7.000   6.098  17.664  0.00  0.00    +0.000 A 
ATOM     26  C   UNL     1       6.128   5.657  18.668  0.00  0.00    +0.000 A 
BRANCH  25  27
ATOM     27  C   UNL     1       7.840   7.292  17.940  0.00  0.00    +0.000 C 
ATOM     28  O   UNL     1       7.842   8.278  17.221  0.00  0.00    +0.000 OA
BRANCH  27  29
ATOM     29  O   UNL     1       8.589   7.198  19.058  0.00  0.00    +0.000 OA
ATOM     30  H   UNL     1       9.204   7.937  19.212  0.00  0.00    +0.000 HD
ENDBRANCH  27  29
ENDBRANCH  25  27
ENDBRANCH  20  21
ENDBRANCH  19  20
ENDBRANCH   6  19
TORSDOF 7
ENDMDL
MODEL 6
REMARK VINA RESULT:      -8.1      5.552      7.875
REMARK  Name = 
REMARK  9 active torsions:
REMARK  status: ('A' for Active; 'I' for Inactive)
REMARK    1  A    between atoms: C_1  and  C_2
REMARK    2  A    between atoms: C_5  and  O_6
REMARK    3  A    between atoms: O_6  and  C_7
REMARK    4  A    between atoms: C_12  and  C_13
REMARK    5  A    between atoms: C_13  and  O_14
REMARK    6  A    between atoms: O_14  and  C_15
REMARK    7  A    between atoms: C_19  and  C_20
REMARK    8  A    between atoms: C_20  and  O_22
REMARK    9  A    between atoms: N_24  and  C_25
REMARK                            x       y       z     vdW  Elec       q    Type
REMARK                         _______ _______ _______ _____ _____    ______ ____
ROOT
ATOM      1  C   UNL     1       1.066   9.626  19.269  0.00  0.00    +0.000 A 
ATOM      2  C   UNL     1       0.706   9.299  20.577  0.00  0.00    +0.000 A 
ATOM      3  C   UNL     1       1.108   8.077  21.144  0.00  0.00    +0.000 A 
ATOM      4  C   UNL     1       1.849   7.181  20.357  0.00  0.00    +0.000 A 
ATOM      5  N   UNL     1       2.282   5.912  20.639  0.00  0.00    +0.000 NA
ATOM      6  C   UNL     1       2.897   5.479  19.552  0.00  0.00    +0.000 A 
ATOM      7  N   UNL     1       2.876   6.447  18.571  0.00  0.00    +0.000 N 
ATOM      8  C   UNL     1       3.328   6.344  17.203  0.00  0.00    +0.000 C 
ATOM      9  C   UNL     1       2.230   7.555  19.076  0.00  0.00    +0.000 A 
ATOM     10  C   UNL     1       1.909   8.793  18.521  0.00  0.00    +0.000 A 
ENDROOT
BRANCH   1  11
ATOM     11  O   UNL     1       0.543  10.797  18.750  0.00  0.00    +0.000 OA
BRANCH  11  16
ATOM     12  C   UNL     1      -5.000  11.286  17.579  0.00  0.00    +0.000 C 
ATOM     13  C   UNL     1      -3.545  11.114  17.899  0.00  0.00    +0.000 A 
ATOM     14  C   UNL     1      -2.770  10.184  17.198  0.00  0.00    +0.000 A 
ATOM     15  C   UNL     1      -1.419  10.023  17.502  0.00  0.00    +0.000 A 
ATOM     16  C   UNL     1      -0.812  10.828  18.467  0.00  0.00    +0.000 A 
ATOM     17  C   UNL     1      -1.586  11.725  19.206  0.00  0.00    +0.000 A 
ATOM     18  C   UNL     1      -2.949  11.861  18.925  0.00  0.00    +0.000 A 
ENDBRANCH  11  16
ENDBRANCH   1  11
BRANCH   6  19
ATOM     19  C   UNL     1       3.476   4.111  19.394  0.00  0.00    +0.000 C 
BRANCH  19  20
ATOM     20  O   UNL     1       4.882   4.217  19.634  0.00  0.00    +0.000 OA
BRANCH  20  21
ATOM     21  C   UNL     1       5.668   4.570  18.570  0.00  0.00    +0.000 A 
ATOM     22  C   UNL     1       5.776   3.876  17.364  0.00  0.00    +0.000 A 
ATOM     23  C   UNL     1       6.577   4.373  16.331  0.00  0.00    +0.000 A 
ATOM     24  C   UNL     1       7.280   5.566  16.498  0.00  0.00    +0.000 A 
ATOM     25  C   UNL     1       7.205   6.251  17.716  0.00  0.00    +0.000 A 
ATOM     26  C   UNL     1       6.396   5.751  18.744  0.00  0.00    +0.000 A 
BRANCH  25  27
ATOM     27  C   UNL     1       7.903   7.544  17.939  0.00  0.00    +0.000 C 
ATOM     28  O   UNL     1       7.788   8.494  17.182  0.00  0.00    +0.000 OA
BRANCH  27  29
ATOM     29  O   UNL     1       8.659   7.582  19.055  0.00  0.00    +0.000 OA
ATOM     30  H   UNL     1       9.061   8.445  19.259  0.00  0.00    +0.000 HD
ENDBRANCH  27  29
ENDBRANCH  25  27
ENDBRANCH  20  21
ENDBRANCH  19  20
ENDBRANCH   6  19
TORSDOF 7
ENDMDL
MODEL 7
REMARK VINA RESULT:      -8.1      8.342     10.176
REMARK  Name = 
REMARK  9 active torsions:
REMARK  status: ('A' for Active; 'I' for Inactive)
REMARK    1  A    between atoms: C_1  and  C_2
REMARK    2  A    between atoms: C_5  and  O_6
REMARK    3  A    between atoms: O_6  and  C_7
REMARK    4  A    between atoms: C_12  and  C_13
REMARK    5  A    between atoms: C_13  and  O_14
REMARK    6  A    between atoms: O_14  and  C_15
REMARK    7  A    between atoms: C_19  and  C_20
REMARK    8  A    between atoms: C_20  and  O_22
REMARK    9  A    between atoms: N_24  and  C_25
REMARK                            x       y       z     vdW  Elec       q    Type
REMARK                         _______ _______ _______ _____ _____    ______ ____
ROOT
ATOM      1  C   UNL     1       2.393   7.108  19.454  0.00  0.00    +0.000 A 
ATOM      2  C   UNL     1       2.420   7.733  18.206  0.00  0.00    +0.000 A 
ATOM      3  C   UNL     1       1.750   8.952  18.003  0.00  0.00    +0.000 A 
ATOM      4  C   UNL     1       1.029   9.510  19.070  0.00  0.00    +0.000 A 
ATOM      5  N   UNL     1       0.235  10.626  19.107  0.00  0.00    +0.000 NA
ATOM      6  C   UNL     1      -0.252  10.695  20.334  0.00  0.00    +0.000 A 
ATOM      7  N   UNL     1       0.217   9.647  21.095  0.00  0.00    +0.000 N 
ATOM      8  C   UNL     1      -0.156   9.283  22.443  0.00  0.00    +0.000 C 
ATOM      9  C   UNL     1       1.060   8.889  20.310  0.00  0.00    +0.000 A 
ATOM     10  C   UNL     1       1.780   7.721  20.555  0.00  0.00    +0.000 A 
ENDROOT
BRANCH   1  11
ATOM     11  O   UNL     1       2.986   5.862  19.544  0.00  0.00    +0.000 OA
BRANCH  11  16
ATOM     12  C   UNL     1       5.848   4.106  14.955  0.00  0.00    +0.000 C 
ATOM     13  C   UNL     1       5.129   4.558  16.191  0.00  0.00    +0.000 A 
ATOM     14  C   UNL     1       5.628   5.621  16.952  0.00  0.00    +0.000 A 
ATOM     15  C   UNL     1       4.960   6.036  18.103  0.00  0.00    +0.000 A 
ATOM     16  C   UNL     1       3.756   5.436  18.476  0.00  0.00    +0.000 A 
ATOM     17  C   UNL     1       3.275   4.344  17.751  0.00  0.00    +0.000 A 
ATOM     18  C   UNL     1       3.965   3.905  16.617  0.00  0.00    +0.000 A 
ENDBRANCH  11  16
ENDBRANCH   1  11
BRANCH   6  19
ATOM     19  C   UNL     1      -1.222  11.730  20.804  0.00  0.00    +0.000 C 
BRANCH  19  20
ATOM     20  O   UNL     1      -0.518  12.592  21.701  0.00  0.00    +0.000 OA
BRANCH  20  21
ATOM     21  C   UNL     1      -1.258  13.214  22.672  0.00  0.00    +0.000 A 
ATOM     22  C   UNL     1      -0.882  14.354  23.384  0.00  0.00    +0.000 A 
ATOM     23  C   UNL     1      -1.756  14.925  24.316  0.00  0.00    +0.000 A 
ATOM     24  C   UNL     1      -3.010  14.357  24.545  0.00  0.00    +0.000 A 
ATOM     25  C   UNL     1      -3.380  13.195  23.861  0.00  0.00    +0.000 A 
ATOM     26  C   UNL     1      -2.504  12.632  22.924  0.00  0.00    +0.000 A 
BRANCH  25  27
ATOM     27  C   UNL     1      -4.715  12.567  24.036  0.00  0.00    +0.000 C 
ATOM     28  O   UNL     1      -5.562  12.561  23.159  0.00  0.00    +0.000 OA
BRANCH  27  29
ATOM     29  O   UNL     1      -4.905  11.992  25.242  0.00  0.00    +0.000 OA
ATOM     30  H   UNL     1      -5.828  11.773  25.460  0.00  0.00    +0.000 HD
ENDBRANCH  27  29
ENDBRANCH  25  27
ENDBRANCH  20  21
ENDBRANCH  19  20
ENDBRANCH   6  19
TORSDOF 7
ENDMDL
MODEL 8
REMARK VINA RESULT:      -8.1      7.949     10.947
REMARK  Name = 
REMARK  9 active torsions:
REMARK  status: ('A' for Active; 'I' for Inactive)
REMARK    1  A    between atoms: C_1  and  C_2
REMARK    2  A    between atoms: C_5  and  O_6
REMARK    3  A    between atoms: O_6  and  C_7
REMARK    4  A    between atoms: C_12  and  C_13
REMARK    5  A    between atoms: C_13  and  O_14
REMARK    6  A    between atoms: O_14  and  C_15
REMARK    7  A    between atoms: C_19  and  C_20
REMARK    8  A    between atoms: C_20  and  O_22
REMARK    9  A    between atoms: N_24  and  C_25
REMARK                            x       y       z     vdW  Elec       q    Type
REMARK                         _______ _______ _______ _____ _____    ______ ____
ROOT
ATOM      1  C   UNL     1      -1.279  12.207  21.795  0.00  0.00    +0.000 A 
ATOM      2  C   UNL     1      -1.371  11.507  23.000  0.00  0.00    +0.000 A 
ATOM      3  C   UNL     1      -0.695  10.286  23.171  0.00  0.00    +0.000 A 
ATOM      4  C   UNL     1       0.045   9.771  22.095  0.00  0.00    +0.000 A 
ATOM      5  N   UNL     1       0.713   8.580  21.977  0.00  0.00    +0.000 NA
ATOM      6  C   UNL     1       1.209   8.553  20.752  0.00  0.00    +0.000 A 
ATOM      7  N   UNL     1       0.881   9.706  20.075  0.00  0.00    +0.000 N 
ATOM      8  C   UNL     1       1.122  10.029  18.688  0.00  0.00    +0.000 C 
ATOM      9  C   UNL     1       0.155  10.512  20.927  0.00  0.00    +0.000 A 
ATOM     10  C   UNL     1      -0.442  11.760  20.763  0.00  0.00    +0.000 A 
ENDROOT
BRANCH   1  11
ATOM     11  O   UNL     1      -2.056  13.344  21.670  0.00  0.00    +0.000 OA
BRANCH  11  16
ATOM     12  C   UNL     1      -7.597  12.322  20.907  0.00  0.00    +0.000 C 
ATOM     13  C   UNL     1      -6.145  12.636  21.111  0.00  0.00    +0.000 A 
ATOM     14  C   UNL     1      -5.712  13.252  22.290  0.00  0.00    +0.000 A 
ATOM     15  C   UNL     1      -4.362  13.547  22.474  0.00  0.00    +0.000 A 
ATOM     16  C   UNL     1      -3.421  13.178  21.511  0.00  0.00    +0.000 A 
ATOM     17  C   UNL     1      -3.848  12.607  20.311  0.00  0.00    +0.000 A 
ATOM     18  C   UNL     1      -5.207  12.343  20.112  0.00  0.00    +0.000 A 
ENDBRANCH  11  16
ENDBRANCH   1  11
BRANCH   6  19
ATOM     19  C   UNL     1       1.966   7.403  20.171  0.00  0.00    +0.000 C 
BRANCH  19  20
ATOM     20  O   UNL     1       1.502   6.218  20.821  0.00  0.00    +0.000 OA
BRANCH  20  21
ATOM     21  C   UNL     1       2.023   5.028  20.388  0.00  0.00    +0.000 A 
ATOM     22  C   UNL     1       1.376   3.792  20.413  0.00  0.00    +0.000 A 
ATOM     23  C   UNL     1       2.000   2.656  19.888  0.00  0.00    +0.000 A 
ATOM     24  C   UNL     1       3.281   2.746  19.340  0.00  0.00    +0.000 A 
ATOM     25  C   UNL     1       3.951   3.974  19.343  0.00  0.00    +0.000 A 
ATOM     26  C   UNL     1       3.316   5.110  19.863  0.00  0.00    +0.000 A 
BRANCH  25  27
ATOM     27  C   UNL     1       5.299   4.139  18.741  0.00  0.00    +0.000 C 
ATOM     28  O   UNL     1       6.230   4.654  19.338  0.00  0.00    +0.000 OA
BRANCH  27  29
ATOM     29  O   UNL     1       5.410   3.658  17.485  0.00  0.00    +0.000 OA
ATOM     30  H   UNL     1       6.316   3.622  17.130  0.00  0.00    +0.000 HD
ENDBRANCH  27  29
ENDBRANCH  25  27
ENDBRANCH  20  21
ENDBRANCH  19  20
ENDBRANCH   6  19
TORSDOF 7
ENDMDL
MODEL 9
REMARK VINA RESULT:      -8.0      7.541     11.078
REMARK  Name = 
REMARK  9 active torsions:
REMARK  status: ('A' for Active; 'I' for Inactive)
REMARK    1  A    between atoms: C_1  and  C_2
REMARK    2  A    between atoms: C_5  and  O_6
REMARK    3  A    between atoms: O_6  and  C_7
REMARK    4  A    between atoms: C_12  and  C_13
REMARK    5  A    between atoms: C_13  and  O_14
REMARK    6  A    between atoms: O_14  and  C_15
REMARK    7  A    between atoms: C_19  and  C_20
REMARK    8  A    between atoms: C_20  and  O_22
REMARK    9  A    between atoms: N_24  and  C_25
REMARK                            x       y       z     vdW  Elec       q    Type
REMARK                         _______ _______ _______ _____ _____    ______ ____
ROOT
ATOM      1  C   UNL     1      -0.805  11.596  22.022  0.00  0.00    +0.000 A 
ATOM      2  C   UNL     1      -0.825  10.655  23.052  0.00  0.00    +0.000 A 
ATOM      3  C   UNL     1      -0.157   9.426  22.911  0.00  0.00    +0.000 A 
ATOM      4  C   UNL     1       0.501   9.153  21.701  0.00  0.00    +0.000 A 
ATOM      5  N   UNL     1       1.142   8.016  21.285  0.00  0.00    +0.000 NA
ATOM      6  C   UNL     1       1.553   8.252  20.051  0.00  0.00    +0.000 A 
ATOM      7  N   UNL     1       1.196   9.524  19.661  0.00  0.00    +0.000 N 
ATOM      8  C   UNL     1       1.346  10.136  18.361  0.00  0.00    +0.000 C 
ATOM      9  C   UNL     1       0.541  10.127  20.713  0.00  0.00    +0.000 A 
ATOM     10  C   UNL     1      -0.048  11.382  20.862  0.00  0.00    +0.000 A 
ENDROOT
BRANCH   1  11
ATOM     11  O   UNL     1      -1.572  12.734  22.197  0.00  0.00    +0.000 OA
BRANCH  11  16
ATOM     12  C   UNL     1      -7.024  12.882  20.587  0.00  0.00    +0.000 C 
ATOM     13  C   UNL     1      -5.583  12.802  20.992  0.00  0.00    +0.000 A 
ATOM     14  C   UNL     1      -4.579  12.692  20.025  0.00  0.00    +0.000 A 
ATOM     15  C   UNL     1      -3.240  12.613  20.405  0.00  0.00    +0.000 A 
ATOM     16  C   UNL     1      -2.883  12.702  21.752  0.00  0.00    +0.000 A 
ATOM     17  C   UNL     1      -3.879  12.763  22.728  0.00  0.00    +0.000 A 
ATOM     18  C   UNL     1      -5.224  12.807  22.348  0.00  0.00    +0.000 A 
ENDBRANCH  11  16
ENDBRANCH   1  11
BRANCH   6  19
ATOM     19  C   UNL     1       2.252   7.254  19.186  0.00  0.00    +0.000 C 
BRANCH  19  20
ATOM     20  O   UNL     1       3.051   6.437  20.044  0.00  0.00    +0.000 OA
BRANCH  20  21
ATOM     21  C   UNL     1       2.672   5.128  20.185  0.00  0.00    +0.000 A 
ATOM     22  C   UNL     1       2.023   4.578  21.292  0.00  0.00    +0.000 A 
ATOM     23  C   UNL     1       1.639   3.233  21.289  0.00  0.00    +0.000 A 
ATOM     24  C   UNL     1       1.905   2.426  20.182  0.00  0.00    +0.000 A 
ATOM     25  C   UNL     1       2.585   2.961  19.083  0.00  0.00    +0.000 A 
ATOM     26  C   UNL     1       2.961   4.311  19.088  0.00  0.00    +0.000 A 
BRANCH  25  27
ATOM     27  C   UNL     1       2.864   2.162  17.861  0.00  0.00    +0.000 C 
ATOM     28  O   UNL     1       2.388   2.434  16.772  0.00  0.00    +0.000 OA
BRANCH  27  29
ATOM     29  O   UNL     1       3.699   1.121  18.057  0.00  0.00    +0.000 OA
ATOM     30  H   UNL     1       3.933   0.617  17.257  0.00  0.00    +0.000 HD
ENDBRANCH  27  29
ENDBRANCH  25  27
ENDBRANCH  20  21
ENDBRANCH  19  20
ENDBRANCH   6  19
TORSDOF 7
ENDMDL
