MODEL 1
REMARK VINA RESULT:      -6.5      0.000      0.000
REMARK  Name = 
REMARK  8 active torsions:
REMARK  status: ('A' for Active; 'I' for Inactive)
REMARK    1  A    between atoms: C_1  and  C_2
REMARK    2  A    between atoms: C_5  and  S_6
REMARK    3  A    between atoms: S_6  and  C_7
REMARK    4  A    between atoms: C_7  and  C_8
REMARK    5  A    between atoms: N_10  and  C_11
REMARK    6  A    between atoms: C_11  and  C_12
REMARK    7  A    between atoms: C_12  and  C_13
REMARK    8  A    between atoms: C_13  and  C_14
REMARK                            x       y       z     vdW  Elec       q    Type
REMARK                         _______ _______ _______ _____ _____    ______ ____
ROOT
ATOM      1  C   UNL     1       5.368   4.820  18.936  0.00  0.00    +0.000 C 
ATOM      2  O   UNL     1       4.361   5.521  19.023  0.00  0.00    +0.000 OA
ATOM      3  N   UNL     1       5.397   3.606  18.302  0.00  0.00    +0.000 N 
ATOM      4  H   UNL     1       6.278   3.111  18.192  0.00  0.00    +0.000 HD
ENDROOT
BRANCH   1   5
ATOM      5  C   UNL     1       6.674   5.316  19.506  0.00  0.00    +0.000 C 
BRANCH   5   6
ATOM      6  S   UNL     1       7.619   6.229  18.268  0.00  0.00    +0.000 S 
BRANCH   6  11
ATOM      7  C   UNL     1       6.443   4.081  13.743  0.00  0.00    +0.000 C 
ATOM      8  C   UNL     1       6.401   5.019  14.884  0.00  0.00    +0.000 A 
ATOM      9  N   UNL     1       5.518   6.020  14.976  0.00  0.00    +0.000 NA
ATOM     10  N   UNL     1       5.867   6.582  16.154  0.00  0.00    +0.000 N 
ATOM     11  C   UNL     1       6.900   5.903  16.730  0.00  0.00    +0.000 A 
ATOM     12  N   UNL     1       7.245   4.900  15.956  0.00  0.00    +0.000 NA
ATOM     13  H   UNL     1       5.323   7.361  16.515  0.00  0.00    +0.000 HD
ENDBRANCH   6  11
ENDBRANCH   5   6
ENDBRANCH   1   5
BRANCH   3  14
ATOM     14  C   UNL     1       4.229   3.064  17.623  0.00  0.00    +0.000 C 
BRANCH  14  15
ATOM     15  C   UNL     1       3.725   1.750  18.230  0.00  0.00    +0.000 C 
BRANCH  15  16
ATOM     16  C   UNL     1       2.269   1.823  18.688  0.00  0.00    +0.000 C 
BRANCH  16  17
ATOM     17  C   UNL     1       2.008   2.966  19.609  0.00  0.00    +0.000 A 
ATOM     18  N   UNL     1       1.111   3.916  19.476  0.00  0.00    +0.000 NA
ATOM     19  C   UNL     1       1.245   4.711  20.583  0.00  0.00    +0.000 A 
ATOM     20  C   UNL     1       2.242   4.237  21.405  0.00  0.00    +0.000 A 
ATOM     21  N   UNL     1       2.718   3.122  20.779  0.00  0.00    +0.000 N 
ATOM     22  H   UNL     1       3.455   2.512  21.107  0.00  0.00    +0.000 HD
ENDBRANCH  16  17
ENDBRANCH  15  16
ENDBRANCH  14  15
ENDBRANCH   3  14
TORSDOF 7
ENDMDL
MODEL 2
REMARK VINA RESULT:      -6.3      0.996      1.129
REMARK  Name = 
REMARK  8 active torsions:
REMARK  status: ('A' for Active; 'I' for Inactive)
REMARK    1  A    between atoms: C_1  and  C_2
REMARK    2  A    between atoms: C_5  and  S_6
REMARK    3  A    between atoms: S_6  and  C_7
REMARK    4  A    between atoms: C_7  and  C_8
REMARK    5  A    between atoms: N_10  and  C_11
REMARK    6  A    between atoms: C_11  and  C_12
REMARK    7  A    between atoms: C_12  and  C_13
REMARK    8  A    between atoms: C_13  and  C_14
REMARK                            x       y       z     vdW  Elec       q    Type
REMARK                         _______ _______ _______ _____ _____    ______ ____
ROOT
ATOM      1  C   UNL     1       5.973   5.036  19.310  0.00  0.00    +0.000 C 
ATOM      2  O   UNL     1       5.004   5.777  19.474  0.00  0.00    +0.000 OA
ATOM      3  N   UNL     1       5.870   3.717  18.956  0.00  0.00    +0.000 N 
ATOM      4  H   UNL     1       6.708   3.177  18.755  0.00  0.00    +0.000 HD
ENDROOT
BRANCH   1   5
ATOM      5  C   UNL     1       7.369   5.591  19.451  0.00  0.00    +0.000 C 
BRANCH   5   6
ATOM      6  S   UNL     1       7.747   6.747  18.117  0.00  0.00    +0.000 S 
BRANCH   6  11
ATOM      7  C   UNL     1       6.398   4.095  13.920  0.00  0.00    +0.000 C 
ATOM      8  C   UNL     1       6.343   5.103  14.999  0.00  0.00    +0.000 A 
ATOM      9  N   UNL     1       5.330   5.965  15.144  0.00  0.00    +0.000 NA
ATOM     10  N   UNL     1       5.723   6.664  16.230  0.00  0.00    +0.000 N 
ATOM     11  C   UNL     1       6.912   6.196  16.707  0.00  0.00    +0.000 A 
ATOM     12  N   UNL     1       7.317   5.198  15.957  0.00  0.00    +0.000 NA
ATOM     13  H   UNL     1       5.109   7.379  16.611  0.00  0.00    +0.000 HD
ENDBRANCH   6  11
ENDBRANCH   5   6
ENDBRANCH   1   5
BRANCH   3  14
ATOM     14  C   UNL     1       4.584   3.089  18.690  0.00  0.00    +0.000 C 
BRANCH  14  15
ATOM     15  C   UNL     1       4.029   3.402  17.296  0.00  0.00    +0.000 C 
BRANCH  15  16
ATOM     16  C   UNL     1       2.510   3.572  17.282  0.00  0.00    +0.000 C 
BRANCH  16  17
ATOM     17  C   UNL     1       1.931   3.720  18.647  0.00  0.00    +0.000 A 
ATOM     18  N   UNL     1       1.858   4.813  19.374  0.00  0.00    +0.000 NA
ATOM     19  C   UNL     1       1.224   4.445  20.531  0.00  0.00    +0.000 A 
ATOM     20  C   UNL     1       0.906   3.107  20.510  0.00  0.00    +0.000 A 
ATOM     21  N   UNL     1       1.355   2.656  19.303  0.00  0.00    +0.000 N 
ATOM     22  H   UNL     1       1.281   1.712  18.944  0.00  0.00    +0.000 HD
ENDBRANCH  16  17
ENDBRANCH  15  16
ENDBRANCH  14  15
ENDBRANCH   3  14
TORSDOF 7
ENDMDL
MODEL 3
REMARK VINA RESULT:      -6.2      1.410      2.478
REMARK  Name = 
REMARK  8 active torsions:
REMARK  status: ('A' for Active; 'I' for Inactive)
REMARK    1  A    between atoms: C_1  and  C_2
REMARK    2  A    between atoms: C_5  and  S_6
REMARK    3  A    between atoms: S_6  and  C_7
REMARK    4  A    between atoms: C_7  and  C_8
REMARK    5  A    between atoms: N_10  and  C_11
REMARK    6  A    between atoms: C_11  and  C_12
REMARK    7  A    between atoms: C_12  and  C_13
REMARK    8  A    between atoms: C_13  and  C_14
REMARK                            x       y       z     vdW  Elec       q    Type
REMARK                         _______ _______ _______ _____ _____    ______ ____
ROOT
ATOM      1  C   UNL     1       4.707   5.733  18.791  0.00  0.00    +0.000 C 
ATOM      2  O   UNL     1       4.287   6.250  17.755  0.00  0.00    +0.000 OA
ATOM      3  N   UNL     1       3.937   5.531  19.906  0.00  0.00    +0.000 N 
ATOM      4  H   UNL     1       4.318   5.025  20.701  0.00  0.00    +0.000 HD
ENDROOT
BRANCH   1   5
ATOM      5  C   UNL     1       6.131   5.238  18.853  0.00  0.00    +0.000 C 
BRANCH   5   6
ATOM      6  S   UNL     1       7.153   6.042  17.601  0.00  0.00    +0.000 S 
BRANCH   6  11
ATOM      7  C   UNL     1       7.315   4.644  12.652  0.00  0.00    +0.000 C 
ATOM      8  C   UNL     1       6.935   4.644  14.080  0.00  0.00    +0.000 A 
ATOM      9  N   UNL     1       6.115   3.734  14.619  0.00  0.00    +0.000 NA
ATOM     10  N   UNL     1       6.068   4.141  15.906  0.00  0.00    +0.000 N 
ATOM     11  C   UNL     1       6.860   5.234  16.101  0.00  0.00    +0.000 A 
ATOM     12  N   UNL     1       7.432   5.562  14.966  0.00  0.00    +0.000 NA
ATOM     13  H   UNL     1       5.541   3.594  16.582  0.00  0.00    +0.000 HD
ENDBRANCH   6  11
ENDBRANCH   5   6
ENDBRANCH   1   5
BRANCH   3  14
ATOM     14  C   UNL     1       2.522   5.871  19.937  0.00  0.00    +0.000 C 
BRANCH  14  15
ATOM     15  C   UNL     1       1.698   4.969  20.862  0.00  0.00    +0.000 C 
BRANCH  15  16
ATOM     16  C   UNL     1       0.897   3.909  20.106  0.00  0.00    +0.000 C 
BRANCH  16  17
ATOM     17  C   UNL     1       1.725   3.145  19.130  0.00  0.00    +0.000 A 
ATOM     18  N   UNL     1       1.671   3.196  17.818  0.00  0.00    +0.000 NA
ATOM     19  C   UNL     1       2.639   2.334  17.374  0.00  0.00    +0.000 A 
ATOM     20  C   UNL     1       3.293   1.748  18.433  0.00  0.00    +0.000 A 
ATOM     21  N   UNL     1       2.707   2.275  19.547  0.00  0.00    +0.000 N 
ATOM     22  H   UNL     1       2.946   2.074  20.509  0.00  0.00    +0.000 HD
ENDBRANCH  16  17
ENDBRANCH  15  16
ENDBRANCH  14  15
ENDBRANCH   3  14
TORSDOF 7
ENDMDL
MODEL 4
REMARK VINA RESULT:      -6.2      1.812      2.122
REMARK  Name = 
REMARK  8 active torsions:
REMARK  status: ('A' for Active; 'I' for Inactive)
REMARK    1  A    between atoms: C_1  and  C_2
REMARK    2  A    between atoms: C_5  and  S_6
REMARK    3  A    between atoms: S_6  and  C_7
REMARK    4  A    between atoms: C_7  and  C_8
REMARK    5  A    between atoms: N_10  and  C_11
REMARK    6  A    between atoms: C_11  and  C_12
REMARK    7  A    between atoms: C_12  and  C_13
REMARK    8  A    between atoms: C_13  and  C_14
REMARK                            x       y       z     vdW  Elec       q    Type
REMARK                         _______ _______ _______ _____ _____    ______ ____
ROOT
ATOM      1  C   UNL     1       4.726   5.545  18.385  0.00  0.00    +0.000 C 
ATOM      2  O   UNL     1       4.929   4.854  19.383  0.00  0.00    +0.000 OA
ATOM      3  N   UNL     1       3.481   5.776  17.861  0.00  0.00    +0.000 N 
ATOM      4  H   UNL     1       3.369   6.422  17.084  0.00  0.00    +0.000 HD
ENDROOT
BRANCH   1   5
ATOM      5  C   UNL     1       5.884   6.231  17.704  0.00  0.00    +0.000 C 
BRANCH   5   6
ATOM      6  S   UNL     1       7.167   5.044  17.252  0.00  0.00    +0.000 S 
BRANCH   6  11
ATOM      7  C   UNL     1       5.835   3.349  12.581  0.00  0.00    +0.000 C 
ATOM      8  C   UNL     1       6.522   4.138  13.624  0.00  0.00    +0.000 A 
ATOM      9  N   UNL     1       7.388   5.119  13.348  0.00  0.00    +0.000 NA
ATOM     10  N   UNL     1       7.742   5.524  14.587  0.00  0.00    +0.000 N 
ATOM     11  C   UNL     1       7.075   4.813  15.541  0.00  0.00    +0.000 A 
ATOM     12  N   UNL     1       6.285   3.942  14.959  0.00  0.00    +0.000 NA
ATOM     13  H   UNL     1       8.375   6.313  14.691  0.00  0.00    +0.000 HD
ENDBRANCH   6  11
ENDBRANCH   5   6
ENDBRANCH   1   5
BRANCH   3  14
ATOM     14  C   UNL     1       2.274   5.256  18.486  0.00  0.00    +0.000 C 
BRANCH  14  15
ATOM     15  C   UNL     1       1.463   4.332  17.572  0.00  0.00    +0.000 C 
BRANCH  15  16
ATOM     16  C   UNL     1       1.063   3.021  18.250  0.00  0.00    +0.000 C 
BRANCH  16  17
ATOM     17  C   UNL     1       1.630   2.882  19.621  0.00  0.00    +0.000 A 
ATOM     18  N   UNL     1       2.832   2.467  19.954  0.00  0.00    +0.000 NA
ATOM     19  C   UNL     1       2.883   2.539  21.321  0.00  0.00    +0.000 A 
ATOM     20  C   UNL     1       1.692   3.005  21.829  0.00  0.00    +0.000 A 
ATOM     21  N   UNL     1       0.903   3.225  20.738  0.00  0.00    +0.000 N 
ATOM     22  H   UNL     1      -0.045   3.580  20.738  0.00  0.00    +0.000 HD
ENDBRANCH  16  17
ENDBRANCH  15  16
ENDBRANCH  14  15
ENDBRANCH   3  14
TORSDOF 7
ENDMDL
MODEL 5
REMARK VINA RESULT:      -6.2      2.045      3.400
REMARK  Name = 
REMARK  8 active torsions:
REMARK  status: ('A' for Active; 'I' for Inactive)
REMARK    1  A    between atoms: C_1  and  C_2
REMARK    2  A    between atoms: C_5  and  S_6
REMARK    3  A    between atoms: S_6  and  C_7
REMARK    4  A    between atoms: C_7  and  C_8
REMARK    5  A    between atoms: N_10  and  C_11
REMARK    6  A    between atoms: C_11  and  C_12
REMARK    7  A    between atoms: C_12  and  C_13
REMARK    8  A    between atoms: C_13  and  C_14
REMARK                            x       y       z     vdW  Elec       q    Type
REMARK                         _______ _______ _______ _____ _____    ______ ____
ROOT
ATOM      1  C   UNL     1       4.301   4.353  17.415  0.00  0.00    +0.000 C 
ATOM      2  O   UNL     1       4.059   3.332  18.059  0.00  0.00    +0.000 OA
ATOM      3  N   UNL     1       4.199   5.618  17.928  0.00  0.00    +0.000 N 
ATOM      4  H   UNL     1       4.492   6.418  17.372  0.00  0.00    +0.000 HD
ENDROOT
BRANCH   1   5
ATOM      5  C   UNL     1       4.787   4.238  15.991  0.00  0.00    +0.000 C 
BRANCH   5   6
ATOM      6  S   UNL     1       6.587   4.118  15.927  0.00  0.00    +0.000 S 
BRANCH   6  11
ATOM      7  C   UNL     1       8.100   8.576  18.001  0.00  0.00    +0.000 C 
ATOM      8  C   UNL     1       7.826   7.130  17.874  0.00  0.00    +0.000 A 
ATOM      9  N   UNL     1       8.020   6.258  18.870  0.00  0.00    +0.000 NA
ATOM     10  N   UNL     1       7.645   5.097  18.290  0.00  0.00    +0.000 N 
ATOM     11  C   UNL     1       7.221   5.306  17.011  0.00  0.00    +0.000 A 
ATOM     12  N   UNL     1       7.309   6.585  16.729  0.00  0.00    +0.000 NA
ATOM     13  H   UNL     1       7.643   4.243  18.841  0.00  0.00    +0.000 HD
ENDBRANCH   6  11
ENDBRANCH   5   6
ENDBRANCH   1   5
BRANCH   3  14
ATOM     14  C   UNL     1       3.840   5.858  19.319  0.00  0.00    +0.000 C 
BRANCH  14  15
ATOM     15  C   UNL     1       2.523   6.625  19.485  0.00  0.00    +0.000 C 
BRANCH  15  16
ATOM     16  C   UNL     1       1.632   6.050  20.585  0.00  0.00    +0.000 C 
BRANCH  16  17
ATOM     17  C   UNL     1       1.687   4.562  20.656  0.00  0.00    +0.000 A 
ATOM     18  N   UNL     1       2.117   3.822  21.654  0.00  0.00    +0.000 NA
ATOM     19  C   UNL     1       1.944   2.524  21.253  0.00  0.00    +0.000 A 
ATOM     20  C   UNL     1       1.400   2.472  19.990  0.00  0.00    +0.000 A 
ATOM     21  N   UNL     1       1.235   3.775  19.622  0.00  0.00    +0.000 N 
ATOM     22  H   UNL     1       0.848   4.114  18.750  0.00  0.00    +0.000 HD
ENDBRANCH  16  17
ENDBRANCH  15  16
ENDBRANCH  14  15
ENDBRANCH   3  14
TORSDOF 7
ENDMDL
MODEL 6
REMARK VINA RESULT:      -6.1      0.987      1.169
REMARK  Name = 
REMARK  8 active torsions:
REMARK  status: ('A' for Active; 'I' for Inactive)
REMARK    1  A    between atoms: C_1  and  C_2
REMARK    2  A    between atoms: C_5  and  S_6
REMARK    3  A    between atoms: S_6  and  C_7
REMARK    4  A    between atoms: C_7  and  C_8
REMARK    5  A    between atoms: N_10  and  C_11
REMARK    6  A    between atoms: C_11  and  C_12
REMARK    7  A    between atoms: C_12  and  C_13
REMARK    8  A    between atoms: C_13  and  C_14
REMARK                            x       y       z     vdW  Elec       q    Type
REMARK                         _______ _______ _______ _____ _____    ______ ____
ROOT
ATOM      1  C   UNL     1       5.442   4.858  19.322  0.00  0.00    +0.000 C 
ATOM      2  O   UNL     1       4.399   5.472  19.544  0.00  0.00    +0.000 OA
ATOM      3  N   UNL     1       5.484   3.555  18.901  0.00  0.00    +0.000 N 
ATOM      4  H   UNL     1       6.373   3.129  18.655  0.00  0.00    +0.000 HD
ENDROOT
BRANCH   1   5
ATOM      5  C   UNL     1       6.767   5.566  19.462  0.00  0.00    +0.000 C 
BRANCH   5   6
ATOM      6  S   UNL     1       7.893   5.108  18.127  0.00  0.00    +0.000 S 
BRANCH   6  11
ATOM      7  C   UNL     1       5.590   3.959  13.672  0.00  0.00    +0.000 C 
ATOM      8  C   UNL     1       6.047   4.754  14.831  0.00  0.00    +0.000 A 
ATOM      9  N   UNL     1       5.718   6.038  15.014  0.00  0.00    +0.000 NA
ATOM     10  N   UNL     1       6.357   6.320  16.169  0.00  0.00    +0.000 N 
ATOM     11  C   UNL     1       7.008   5.221  16.646  0.00  0.00    +0.000 A 
ATOM     12  N   UNL     1       6.815   4.213  15.828  0.00  0.00    +0.000 NA
ATOM     13  H   UNL     1       6.246   7.240  16.588  0.00  0.00    +0.000 HD
ENDBRANCH   6  11
ENDBRANCH   5   6
ENDBRANCH   1   5
BRANCH   3  14
ATOM     14  C   UNL     1       4.272   2.795  18.630  0.00  0.00    +0.000 C 
BRANCH  14  15
ATOM     15  C   UNL     1       3.668   3.082  17.251  0.00  0.00    +0.000 C 
BRANCH  15  16
ATOM     16  C   UNL     1       2.177   3.413  17.310  0.00  0.00    +0.000 C 
BRANCH  16  17
ATOM     17  C   UNL     1       1.660   3.513  18.704  0.00  0.00    +0.000 A 
ATOM     18  N   UNL     1       1.160   2.551  19.447  0.00  0.00    +0.000 NA
ATOM     19  C   UNL     1       0.852   3.132  20.648  0.00  0.00    +0.000 A 
ATOM     20  C   UNL     1       1.168   4.471  20.637  0.00  0.00    +0.000 A 
ATOM     21  N   UNL     1       1.687   4.703  19.397  0.00  0.00    +0.000 N 
ATOM     22  H   UNL     1       2.035   5.584  19.041  0.00  0.00    +0.000 HD
ENDBRANCH  16  17
ENDBRANCH  15  16
ENDBRANCH  14  15
ENDBRANCH   3  14
TORSDOF 7
ENDMDL
MODEL 7
REMARK VINA RESULT:      -6.0      1.718      2.275
REMARK  Name = 
REMARK  8 active torsions:
REMARK  status: ('A' for Active; 'I' for Inactive)
REMARK    1  A    between atoms: C_1  and  C_2
REMARK    2  A    between atoms: C_5  and  S_6
REMARK    3  A    between atoms: S_6  and  C_7
REMARK    4  A    between atoms: C_7  and  C_8
REMARK    5  A    between atoms: N_10  and  C_11
REMARK    6  A    between atoms: C_11  and  C_12
REMARK    7  A    between atoms: C_12  and  C_13
REMARK    8  A    between atoms: C_13  and  C_14
REMARK                            x       y       z     vdW  Elec       q    Type
REMARK                         _______ _______ _______ _____ _____    ______ ____
ROOT
ATOM      1  C   UNL     1       4.969   3.747  18.759  0.00  0.00    +0.000 C 
ATOM      2  O   UNL     1       4.364   3.330  17.771  0.00  0.00    +0.000 OA
ATOM      3  N   UNL     1       4.726   3.317  20.036  0.00  0.00    +0.000 N 
ATOM      4  H   UNL     1       5.314   3.638  20.801  0.00  0.00    +0.000 HD
ENDROOT
BRANCH   1   5
ATOM      5  C   UNL     1       6.081   4.751  18.583  0.00  0.00    +0.000 C 
BRANCH   5   6
ATOM      6  S   UNL     1       5.662   5.970  17.319  0.00  0.00    +0.000 S 
BRANCH   6  11
ATOM      7  C   UNL     1       6.241   3.659  12.759  0.00  0.00    +0.000 C 
ATOM      8  C   UNL     1       6.558   4.479  13.947  0.00  0.00    +0.000 A 
ATOM      9  N   UNL     1       7.702   5.160  14.082  0.00  0.00    +0.000 NA
ATOM     10  N   UNL     1       7.535   5.730  15.295  0.00  0.00    +0.000 N 
ATOM     11  C   UNL     1       6.320   5.407  15.823  0.00  0.00    +0.000 A 
ATOM     12  N   UNL     1       5.676   4.630  14.983  0.00  0.00    +0.000 NA
ATOM     13  H   UNL     1       8.248   6.362  15.650  0.00  0.00    +0.000 HD
ENDBRANCH   6  11
ENDBRANCH   5   6
ENDBRANCH   1   5
BRANCH   3  14
ATOM     14  C   UNL     1       3.750   2.276  20.326  0.00  0.00    +0.000 C 
BRANCH  14  15
ATOM     15  C   UNL     1       2.692   2.700  21.350  0.00  0.00    +0.000 C 
BRANCH  15  16
ATOM     16  C   UNL     1       1.458   3.332  20.707  0.00  0.00    +0.000 C 
BRANCH  16  17
ATOM     17  C   UNL     1       1.778   4.554  19.917  0.00  0.00    +0.000 A 
ATOM     18  N   UNL     1       2.282   5.686  20.356  0.00  0.00    +0.000 NA
ATOM     19  C   UNL     1       2.415   6.485  19.252  0.00  0.00    +0.000 A 
ATOM     20  C   UNL     1       1.986   5.830  18.121  0.00  0.00    +0.000 A 
ATOM     21  N   UNL     1       1.588   4.599  18.554  0.00  0.00    +0.000 N 
ATOM     22  H   UNL     1       1.221   3.847  17.985  0.00  0.00    +0.000 HD
ENDBRANCH  16  17
ENDBRANCH  15  16
ENDBRANCH  14  15
ENDBRANCH   3  14
TORSDOF 7
ENDMDL
MODEL 8
REMARK VINA RESULT:      -6.0      1.714      1.920
REMARK  Name = 
REMARK  8 active torsions:
REMARK  status: ('A' for Active; 'I' for Inactive)
REMARK    1  A    between atoms: C_1  and  C_2
REMARK    2  A    between atoms: C_5  and  S_6
REMARK    3  A    between atoms: S_6  and  C_7
REMARK    4  A    between atoms: C_7  and  C_8
REMARK    5  A    between atoms: N_10  and  C_11
REMARK    6  A    between atoms: C_11  and  C_12
REMARK    7  A    between atoms: C_12  and  C_13
REMARK    8  A    between atoms: C_13  and  C_14
REMARK                            x       y       z     vdW  Elec       q    Type
REMARK                         _______ _______ _______ _____ _____    ______ ____
ROOT
ATOM      1  C   UNL     1       3.338   6.004  17.729  0.00  0.00    +0.000 C 
ATOM      2  O   UNL     1       2.319   6.559  18.139  0.00  0.00    +0.000 OA
ATOM      3  N   UNL     1       3.397   4.679  17.384  0.00  0.00    +0.000 N 
ATOM      4  H   UNL     1       4.245   4.298  16.975  0.00  0.00    +0.000 HD
ENDROOT
BRANCH   1   5
ATOM      5  C   UNL     1       4.600   6.809  17.537  0.00  0.00    +0.000 C 
BRANCH   5   6
ATOM      6  S   UNL     1       6.065   5.765  17.680  0.00  0.00    +0.000 S 
BRANCH   6  11
ATOM      7  C   UNL     1       6.141   3.615  13.006  0.00  0.00    +0.000 C 
ATOM      8  C   UNL     1       6.557   4.444  14.157  0.00  0.00    +0.000 A 
ATOM      9  N   UNL     1       7.627   5.246  14.133  0.00  0.00    +0.000 NA
ATOM     10  N   UNL     1       7.600   5.772  15.376  0.00  0.00    +0.000 N 
ATOM     11  C   UNL     1       6.528   5.305  16.079  0.00  0.00    +0.000 A 
ATOM     12  N   UNL     1       5.843   4.477  15.326  0.00  0.00    +0.000 NA
ATOM     13  H   UNL     1       8.289   6.472  15.636  0.00  0.00    +0.000 HD
ENDBRANCH   6  11
ENDBRANCH   5   6
ENDBRANCH   1   5
BRANCH   3  14
ATOM     14  C   UNL     1       2.222   3.820  17.428  0.00  0.00    +0.000 C 
BRANCH  14  15
ATOM     15  C   UNL     1       2.558   2.325  17.403  0.00  0.00    +0.000 C 
BRANCH  15  16
ATOM     16  C   UNL     1       3.223   1.841  18.691  0.00  0.00    +0.000 C 
BRANCH  16  17
ATOM     17  C   UNL     1       2.694   2.522  19.907  0.00  0.00    +0.000 A 
ATOM     18  N   UNL     1       3.205   3.559  20.532  0.00  0.00    +0.000 NA
ATOM     19  C   UNL     1       2.350   3.824  21.569  0.00  0.00    +0.000 A 
ATOM     20  C   UNL     1       1.301   2.934  21.576  0.00  0.00    +0.000 A 
ATOM     21  N   UNL     1       1.527   2.112  20.510  0.00  0.00    +0.000 N 
ATOM     22  H   UNL     1       0.946   1.341  20.207  0.00  0.00    +0.000 HD
ENDBRANCH  16  17
ENDBRANCH  15  16
ENDBRANCH  14  15
ENDBRANCH   3  14
TORSDOF 7
ENDMDL
MODEL 9
REMARK VINA RESULT:      -6.0      1.890      2.293
REMARK  Name = 
REMARK  8 active torsions:
REMARK  status: ('A' for Active; 'I' for Inactive)
REMARK    1  A    between atoms: C_1  and  C_2
REMARK    2  A    between atoms: C_5  and  S_6
REMARK    3  A    between atoms: S_6  and  C_7
REMARK    4  A    between atoms: C_7  and  C_8
REMARK    5  A    between atoms: N_10  and  C_11
REMARK    6  A    between atoms: C_11  and  C_12
REMARK    7  A    between atoms: C_12  and  C_13
REMARK    8  A    between atoms: C_13  and  C_14
REMARK                            x       y       z     vdW  Elec       q    Type
REMARK                         _______ _______ _______ _____ _____    ______ ____
ROOT
ATOM      1  C   UNL     1       5.601   4.439  18.994  0.00  0.00    +0.000 C 
ATOM      2  O   UNL     1       5.470   5.303  19.861  0.00  0.00    +0.000 OA
ATOM      3  N   UNL     1       4.991   3.213  19.043  0.00  0.00    +0.000 N 
ATOM      4  H   UNL     1       5.072   2.573  18.257  0.00  0.00    +0.000 HD
ENDROOT
BRANCH   1   5
ATOM      5  C   UNL     1       6.433   4.732  17.770  0.00  0.00    +0.000 C 
BRANCH   5   6
ATOM      6  S   UNL     1       5.406   5.343  16.417  0.00  0.00    +0.000 S 
BRANCH   6  11
ATOM      7  C   UNL     1       6.581   3.353  11.821  0.00  0.00    +0.000 C 
ATOM      8  C   UNL     1       6.699   4.164  13.050  0.00  0.00    +0.000 A 
ATOM      9  N   UNL     1       7.703   5.021  13.269  0.00  0.00    +0.000 NA
ATOM     10  N   UNL     1       7.386   5.504  14.489  0.00  0.00    +0.000 N 
ATOM     11  C   UNL     1       6.220   4.960  14.941  0.00  0.00    +0.000 A 
ATOM     12  N   UNL     1       5.756   4.123  14.042  0.00  0.00    +0.000 NA
ATOM     13  H   UNL     1       7.964   6.231  14.902  0.00  0.00    +0.000 HD
ENDBRANCH   6  11
ENDBRANCH   5   6
ENDBRANCH   1   5
BRANCH   3  14
ATOM     14  C   UNL     1       4.082   2.848  20.120  0.00  0.00    +0.000 C 
BRANCH  14  15
ATOM     15  C   UNL     1       2.695   2.421  19.629  0.00  0.00    +0.000 C 
BRANCH  15  16
ATOM     16  C   UNL     1       1.603   3.436  19.967  0.00  0.00    +0.000 C 
BRANCH  16  17
ATOM     17  C   UNL     1       1.953   4.823  19.551  0.00  0.00    +0.000 A 
ATOM     18  N   UNL     1       2.199   5.259  18.336  0.00  0.00    +0.000 NA
ATOM     19  C   UNL     1       2.445   6.600  18.466  0.00  0.00    +0.000 A 
ATOM     20  C   UNL     1       2.348   6.988  19.783  0.00  0.00    +0.000 A 
ATOM     21  N   UNL     1       2.029   5.850  20.464  0.00  0.00    +0.000 N 
ATOM     22  H   UNL     1       1.871   5.765  21.461  0.00  0.00    +0.000 HD
ENDBRANCH  16  17
ENDBRANCH  15  16
ENDBRANCH  14  15
ENDBRANCH   3  14
TORSDOF 7
ENDMDL
