MODEL 1
REMARK VINA RESULT:      -7.9      0.000      0.000
REMARK  Name = 
REMARK  3 active torsions:
REMARK  status: ('A' for Active; 'I' for Inactive)
REMARK    1  A    between atoms: C_2  and  C_3
REMARK    2  A    between atoms: C_4  and  C_5
REMARK    3  A    between atoms: C_6  and  C_7
REMARK                            x       y       z     vdW  Elec       q    Type
REMARK                         _______ _______ _______ _____ _____    ______ ____
ROOT
ATOM      1  C   UNL     1       5.008   5.789  17.210  0.00  0.00    +0.000 A 
ATOM      2  C   UNL     1       3.759   5.901  17.748  0.00  0.00    +0.000 A 
ATOM      3  C   UNL     1       2.920   4.684  17.821  0.00  0.00    +0.000 A 
ATOM      4  C   UNL     1       3.394   3.498  17.392  0.00  0.00    +0.000 A 
ATOM      5  N   UNL     1       4.651   3.421  16.840  0.00  0.00    +0.000 N 
ATOM      6  C   UNL     1       5.510   4.487  16.690  0.00  0.00    +0.000 A 
ATOM      7  S   UNL     1       6.995   4.195  15.971  0.00  0.00    +0.000 S 
ATOM      8  C   UNL     1       2.625   2.203  17.526  0.00  0.00    +0.000 C 
ATOM      9  C   UNL     1       2.384   1.806  18.988  0.00  0.00    +0.000 C 
ATOM     10  C   UNL     1       1.282   2.591  19.707  0.00  0.00    +0.000 C 
ATOM     11  C   UNL     1       1.492   4.103  19.799  0.00  0.00    +0.000 C 
ATOM     12  C   UNL     1       1.534   4.777  18.428  0.00  0.00    +0.000 C 
ATOM     13  H   UNL     1       4.996   2.525  16.511  0.00  0.00    +0.000 HD
ENDROOT
BRANCH   1  15
ATOM     14  N   UNL     1       6.586   8.077  17.126  0.00  0.00    +0.000 NA
ATOM     15  C   UNL     1       5.871   7.040  17.164  0.00  0.00    +0.000 C 
ENDBRANCH   1  15
BRANCH   2  16
ATOM     16  C   UNL     1       3.272   7.179  18.325  0.00  0.00    +0.000 C 
ATOM     17  C   UNL     1       2.386   8.024  17.766  0.00  0.00    +0.000 C 
BRANCH  17  18
ATOM     18  C   UNL     1       1.842   9.197  18.469  0.00  0.00    +0.000 A 
ATOM     19  C   UNL     1       1.152   9.084  19.683  0.00  0.00    +0.000 A 
ATOM     20  C   UNL     1       0.701  10.228  20.352  0.00  0.00    +0.000 A 
ATOM     21  C   UNL     1       0.928  11.492  19.815  0.00  0.00    +0.000 A 
ATOM     22  C   UNL     1       1.607  11.618  18.605  0.00  0.00    +0.000 A 
ATOM     23  C   UNL     1       2.060  10.475  17.937  0.00  0.00    +0.000 A 
ENDBRANCH  17  18
ENDBRANCH   2  16
TORSDOF 3
ENDMDL
MODEL 2
REMARK VINA RESULT:      -7.9      0.090      1.031
REMARK  Name = 
REMARK  3 active torsions:
REMARK  status: ('A' for Active; 'I' for Inactive)
REMARK    1  A    between atoms: C_2  and  C_3
REMARK    2  A    between atoms: C_4  and  C_5
REMARK    3  A    between atoms: C_6  and  C_7
REMARK                            x       y       z     vdW  Elec       q    Type
REMARK                         _______ _______ _______ _____ _____    ______ ____
ROOT
ATOM      1  C   UNL     1       5.051   5.766  17.192  0.00  0.00    +0.000 A 
ATOM      2  C   UNL     1       3.801   5.893  17.726  0.00  0.00    +0.000 A 
ATOM      3  C   UNL     1       2.946   4.687  17.796  0.00  0.00    +0.000 A 
ATOM      4  C   UNL     1       3.407   3.495  17.369  0.00  0.00    +0.000 A 
ATOM      5  N   UNL     1       4.665   3.403  16.822  0.00  0.00    +0.000 N 
ATOM      6  C   UNL     1       5.538   4.457  16.675  0.00  0.00    +0.000 A 
ATOM      7  S   UNL     1       7.022   4.146  15.961  0.00  0.00    +0.000 S 
ATOM      8  C   UNL     1       2.621   2.211  17.500  0.00  0.00    +0.000 C 
ATOM      9  C   UNL     1       2.369   1.817  18.961  0.00  0.00    +0.000 C 
ATOM     10  C   UNL     1       1.274   2.616  19.676  0.00  0.00    +0.000 C 
ATOM     11  C   UNL     1       1.504   4.125  19.768  0.00  0.00    +0.000 C 
ATOM     12  C   UNL     1       1.559   4.798  18.397  0.00  0.00    +0.000 C 
ATOM     13  H   UNL     1       5.000   2.501  16.493  0.00  0.00    +0.000 HD
ENDROOT
BRANCH   1  15
ATOM     14  N   UNL     1       6.658   8.034  17.114  0.00  0.00    +0.000 NA
ATOM     15  C   UNL     1       5.929   7.005  17.150  0.00  0.00    +0.000 C 
ENDBRANCH   1  15
BRANCH   2  16
ATOM     16  C   UNL     1       3.328   7.178  18.301  0.00  0.00    +0.000 C 
ATOM     17  C   UNL     1       2.378   7.983  17.790  0.00  0.00    +0.000 C 
BRANCH  17  18
ATOM     18  C   UNL     1       1.861   9.165  18.499  0.00  0.00    +0.000 A 
ATOM     19  C   UNL     1       1.974  10.458  17.971  0.00  0.00    +0.000 A 
ATOM     20  C   UNL     1       1.418  11.550  18.647  0.00  0.00    +0.000 A 
ATOM     21  C   UNL     1       0.751  11.366  19.854  0.00  0.00    +0.000 A 
ATOM     22  C   UNL     1       0.638  10.085  20.393  0.00  0.00    +0.000 A 
ATOM     23  C   UNL     1       1.192   8.993  19.717  0.00  0.00    +0.000 A 
ENDBRANCH  17  18
ENDBRANCH   2  16
TORSDOF 3
ENDMDL
MODEL 3
REMARK VINA RESULT:      -7.6      2.279      4.143
REMARK  Name = 
REMARK  3 active torsions:
REMARK  status: ('A' for Active; 'I' for Inactive)
REMARK    1  A    between atoms: C_2  and  C_3
REMARK    2  A    between atoms: C_4  and  C_5
REMARK    3  A    between atoms: C_6  and  C_7
REMARK                            x       y       z     vdW  Elec       q    Type
REMARK                         _______ _______ _______ _____ _____    ______ ____
ROOT
ATOM      1  C   UNL     1       3.513   4.315  19.516  0.00  0.00    +0.000 A 
ATOM      2  C   UNL     1       3.718   5.450  18.787  0.00  0.00    +0.000 A 
ATOM      3  C   UNL     1       4.982   5.571  18.025  0.00  0.00    +0.000 A 
ATOM      4  C   UNL     1       5.884   4.571  18.033  0.00  0.00    +0.000 A 
ATOM      5  N   UNL     1       5.655   3.446  18.789  0.00  0.00    +0.000 N 
ATOM      6  C   UNL     1       4.535   3.233  19.562  0.00  0.00    +0.000 A 
ATOM      7  S   UNL     1       4.450   1.804  20.433  0.00  0.00    +0.000 S 
ATOM      8  C   UNL     1       7.147   4.591  17.202  0.00  0.00    +0.000 C 
ATOM      9  C   UNL     1       6.865   4.595  15.695  0.00  0.00    +0.000 C 
ATOM     10  C   UNL     1       6.406   5.938  15.117  0.00  0.00    +0.000 C 
ATOM     11  C   UNL     1       5.114   6.509  15.704  0.00  0.00    +0.000 C 
ATOM     12  C   UNL     1       5.229   6.816  17.196  0.00  0.00    +0.000 C 
ATOM     13  H   UNL     1       6.346   2.702  18.797  0.00  0.00    +0.000 HD
ENDROOT
BRANCH   1  15
ATOM     14  N   UNL     1       1.112   4.088  20.901  0.00  0.00    +0.000 NA
ATOM     15  C   UNL     1       2.201   4.191  20.273  0.00  0.00    +0.000 C 
ENDBRANCH   1  15
BRANCH   2  16
ATOM     16  C   UNL     1       2.681   6.507  18.683  0.00  0.00    +0.000 C 
ATOM     17  C   UNL     1       2.417   7.464  19.593  0.00  0.00    +0.000 C 
BRANCH  17  18
ATOM     18  C   UNL     1       1.472   8.565  19.349  0.00  0.00    +0.000 A 
ATOM     19  C   UNL     1       1.224   9.062  18.063  0.00  0.00    +0.000 A 
ATOM     20  C   UNL     1       0.274  10.071  17.864  0.00  0.00    +0.000 A 
ATOM     21  C   UNL     1      -0.432  10.596  18.942  0.00  0.00    +0.000 A 
ATOM     22  C   UNL     1      -0.189  10.115  20.228  0.00  0.00    +0.000 A 
ATOM     23  C   UNL     1       0.759   9.105  20.427  0.00  0.00    +0.000 A 
ENDBRANCH  17  18
ENDBRANCH   2  16
TORSDOF 3
ENDMDL
MODEL 4
REMARK VINA RESULT:      -7.4      2.287      4.046
REMARK  Name = 
REMARK  3 active torsions:
REMARK  status: ('A' for Active; 'I' for Inactive)
REMARK    1  A    between atoms: C_2  and  C_3
REMARK    2  A    between atoms: C_4  and  C_5
REMARK    3  A    between atoms: C_6  and  C_7
REMARK                            x       y       z     vdW  Elec       q    Type
REMARK                         _______ _______ _______ _____ _____    ______ ____
ROOT
ATOM      1  C   UNL     1       3.501   4.239  19.586  0.00  0.00    +0.000 A 
ATOM      2  C   UNL     1       3.679   5.389  18.873  0.00  0.00    +0.000 A 
ATOM      3  C   UNL     1       4.934   5.547  18.105  0.00  0.00    +0.000 A 
ATOM      4  C   UNL     1       5.857   4.565  18.092  0.00  0.00    +0.000 A 
ATOM      5  N   UNL     1       5.655   3.425  18.833  0.00  0.00    +0.000 N 
ATOM      6  C   UNL     1       4.546   3.178  19.611  0.00  0.00    +0.000 A 
ATOM      7  S   UNL     1       4.495   1.735  20.461  0.00  0.00    +0.000 S 
ATOM      8  C   UNL     1       7.113   4.623  17.254  0.00  0.00    +0.000 C 
ATOM      9  C   UNL     1       6.820   4.643  15.748  0.00  0.00    +0.000 C 
ATOM     10  C   UNL     1       6.330   5.985  15.193  0.00  0.00    +0.000 C 
ATOM     11  C   UNL     1       5.031   6.520  15.797  0.00  0.00    +0.000 C 
ATOM     12  C   UNL     1       5.150   6.808  17.293  0.00  0.00    +0.000 C 
ATOM     13  H   UNL     1       6.361   2.695  18.826  0.00  0.00    +0.000 HD
ENDROOT
BRANCH   1  15
ATOM     14  N   UNL     1       1.115   3.944  20.984  0.00  0.00    +0.000 NA
ATOM     15  C   UNL     1       2.197   4.078  20.350  0.00  0.00    +0.000 C 
ENDBRANCH   1  15
BRANCH   2  16
ATOM     16  C   UNL     1       2.619   6.426  18.792  0.00  0.00    +0.000 C 
ATOM     17  C   UNL     1       2.432   7.449  19.646  0.00  0.00    +0.000 C 
BRANCH  17  18
ATOM     18  C   UNL     1       1.449   8.520  19.413  0.00  0.00    +0.000 A 
ATOM     19  C   UNL     1       0.689   9.073  20.452  0.00  0.00    +0.000 A 
ATOM     20  C   UNL     1      -0.193  10.131  20.200  0.00  0.00    +0.000 A 
ATOM     21  C   UNL     1      -0.328  10.642  18.913  0.00  0.00    +0.000 A 
ATOM     22  C   UNL     1       0.417  10.097  17.869  0.00  0.00    +0.000 A 
ATOM     23  C   UNL     1       1.300   9.041  18.121  0.00  0.00    +0.000 A 
ENDBRANCH  17  18
ENDBRANCH   2  16
TORSDOF 3
ENDMDL
MODEL 5
REMARK VINA RESULT:      -7.2      3.023      5.858
REMARK  Name = 
REMARK  3 active torsions:
REMARK  status: ('A' for Active; 'I' for Inactive)
REMARK    1  A    between atoms: C_2  and  C_3
REMARK    2  A    between atoms: C_4  and  C_5
REMARK    3  A    between atoms: C_6  and  C_7
REMARK                            x       y       z     vdW  Elec       q    Type
REMARK                         _______ _______ _______ _____ _____    ______ ____
ROOT
ATOM      1  C   UNL     1       2.577   7.028  18.983  0.00  0.00    +0.000 A 
ATOM      2  C   UNL     1       3.163   5.841  18.648  0.00  0.00    +0.000 A 
ATOM      3  C   UNL     1       3.057   4.717  19.605  0.00  0.00    +0.000 A 
ATOM      4  C   UNL     1       2.374   4.860  20.757  0.00  0.00    +0.000 A 
ATOM      5  N   UNL     1       1.808   6.073  21.072  0.00  0.00    +0.000 N 
ATOM      6  C   UNL     1       1.867   7.198  20.280  0.00  0.00    +0.000 A 
ATOM      7  S   UNL     1       1.132   8.592  20.851  0.00  0.00    +0.000 S 
ATOM      8  C   UNL     1       2.147   3.726  21.730  0.00  0.00    +0.000 C 
ATOM      9  C   UNL     1       1.300   2.595  21.135  0.00  0.00    +0.000 C 
ATOM     10  C   UNL     1       2.033   1.672  20.155  0.00  0.00    +0.000 C 
ATOM     11  C   UNL     1       2.615   2.348  18.913  0.00  0.00    +0.000 C 
ATOM     12  C   UNL     1       3.686   3.384  19.252  0.00  0.00    +0.000 C 
ATOM     13  H   UNL     1       1.304   6.175  21.949  0.00  0.00    +0.000 HD
ENDROOT
BRANCH   1  15
ATOM     14  N   UNL     1       2.748   9.113  17.150  0.00  0.00    +0.000 NA
ATOM     15  C   UNL     1       2.671   8.167  17.981  0.00  0.00    +0.000 C 
ENDBRANCH   1  15
BRANCH   2  16
ATOM     16  C   UNL     1       3.820   5.642  17.332  0.00  0.00    +0.000 C 
ATOM     17  C   UNL     1       5.134   5.445  17.113  0.00  0.00    +0.000 C 
BRANCH  17  18
ATOM     18  C   UNL     1       5.685   5.106  15.791  0.00  0.00    +0.000 A 
ATOM     19  C   UNL     1       6.980   5.480  15.407  0.00  0.00    +0.000 A 
ATOM     20  C   UNL     1       7.491   5.089  14.164  0.00  0.00    +0.000 A 
ATOM     21  C   UNL     1       6.717   4.328  13.293  0.00  0.00    +0.000 A 
ATOM     22  C   UNL     1       5.425   3.956  13.660  0.00  0.00    +0.000 A 
ATOM     23  C   UNL     1       4.914   4.346  14.903  0.00  0.00    +0.000 A 
ENDBRANCH  17  18
ENDBRANCH   2  16
TORSDOF 3
ENDMDL
MODEL 6
REMARK VINA RESULT:      -7.1      3.034      5.827
REMARK  Name = 
REMARK  3 active torsions:
REMARK  status: ('A' for Active; 'I' for Inactive)
REMARK    1  A    between atoms: C_2  and  C_3
REMARK    2  A    between atoms: C_4  and  C_5
REMARK    3  A    between atoms: C_6  and  C_7
REMARK                            x       y       z     vdW  Elec       q    Type
REMARK                         _______ _______ _______ _____ _____    ______ ____
ROOT
ATOM      1  C   UNL     1       2.594   6.986  18.984  0.00  0.00    +0.000 A 
ATOM      2  C   UNL     1       3.176   5.794  18.665  0.00  0.00    +0.000 A 
ATOM      3  C   UNL     1       3.061   4.680  19.633  0.00  0.00    +0.000 A 
ATOM      4  C   UNL     1       2.373   4.838  20.780  0.00  0.00    +0.000 A 
ATOM      5  N   UNL     1       1.811   6.056  21.080  0.00  0.00    +0.000 N 
ATOM      6  C   UNL     1       1.877   7.172  20.276  0.00  0.00    +0.000 A 
ATOM      7  S   UNL     1       1.146   8.575  20.829  0.00  0.00    +0.000 S 
ATOM      8  C   UNL     1       2.138   3.715  21.764  0.00  0.00    +0.000 C 
ATOM      9  C   UNL     1       1.289   2.581  21.176  0.00  0.00    +0.000 C 
ATOM     10  C   UNL     1       2.023   1.645  20.210  0.00  0.00    +0.000 C 
ATOM     11  C   UNL     1       2.613   2.305  18.963  0.00  0.00    +0.000 C 
ATOM     12  C   UNL     1       3.687   3.341  19.297  0.00  0.00    +0.000 C 
ATOM     13  H   UNL     1       1.303   6.169  21.953  0.00  0.00    +0.000 HD
ENDROOT
BRANCH   1  15
ATOM     14  N   UNL     1       2.782   9.051  17.131  0.00  0.00    +0.000 NA
ATOM     15  C   UNL     1       2.696   8.114  17.971  0.00  0.00    +0.000 C 
ENDBRANCH   1  15
BRANCH   2  16
ATOM     16  C   UNL     1       3.839   5.578  17.354  0.00  0.00    +0.000 C 
ATOM     17  C   UNL     1       5.142   5.308  17.149  0.00  0.00    +0.000 C 
BRANCH  17  18
ATOM     18  C   UNL     1       5.691   4.960  15.829  0.00  0.00    +0.000 A 
ATOM     19  C   UNL     1       4.956   4.230  14.885  0.00  0.00    +0.000 A 
ATOM     20  C   UNL     1       5.491   3.969  13.618  0.00  0.00    +0.000 A 
ATOM     21  C   UNL     1       6.761   4.427  13.283  0.00  0.00    +0.000 A 
ATOM     22  C   UNL     1       7.506   5.148  14.215  0.00  0.00    +0.000 A 
ATOM     23  C   UNL     1       6.971   5.410  15.481  0.00  0.00    +0.000 A 
ENDBRANCH  17  18
ENDBRANCH   2  16
TORSDOF 3
ENDMDL
MODEL 7
REMARK VINA RESULT:      -7.0      1.230      1.315
REMARK  Name = 
REMARK  3 active torsions:
REMARK  status: ('A' for Active; 'I' for Inactive)
REMARK    1  A    between atoms: C_2  and  C_3
REMARK    2  A    between atoms: C_4  and  C_5
REMARK    3  A    between atoms: C_6  and  C_7
REMARK                            x       y       z     vdW  Elec       q    Type
REMARK                         _______ _______ _______ _____ _____    ______ ____
ROOT
ATOM      1  C   UNL     1       5.122   5.765  17.957  0.00  0.00    +0.000 A 
ATOM      2  C   UNL     1       3.803   5.744  18.308  0.00  0.00    +0.000 A 
ATOM      3  C   UNL     1       3.247   4.488  18.859  0.00  0.00    +0.000 A 
ATOM      4  C   UNL     1       4.035   3.410  19.035  0.00  0.00    +0.000 A 
ATOM      5  N   UNL     1       5.356   3.458  18.657  0.00  0.00    +0.000 N 
ATOM      6  C   UNL     1       5.978   4.556  18.105  0.00  0.00    +0.000 A 
ATOM      7  S   UNL     1       7.594   4.409  17.688  0.00  0.00    +0.000 S 
ATOM      8  C   UNL     1       3.554   2.131  19.680  0.00  0.00    +0.000 C 
ATOM      9  C   UNL     1       3.148   2.323  21.147  0.00  0.00    +0.000 C 
ATOM     10  C   UNL     1       1.793   3.002  21.369  0.00  0.00    +0.000 C 
ATOM     11  C   UNL     1       1.652   4.412  20.792  0.00  0.00    +0.000 C 
ATOM     12  C   UNL     1       1.789   4.442  19.270  0.00  0.00    +0.000 C 
ATOM     13  H   UNL     1       5.941   2.636  18.784  0.00  0.00    +0.000 HD
ENDROOT
BRANCH   1  15
ATOM     14  N   UNL     1       6.156   8.149  16.967  0.00  0.00    +0.000 NA
ATOM     15  C   UNL     1       5.687   7.068  17.416  0.00  0.00    +0.000 C 
ENDBRANCH   1  15
BRANCH   2  16
ATOM     16  C   UNL     1       2.956   6.961  18.223  0.00  0.00    +0.000 C 
ATOM     17  C   UNL     1       2.364   7.599  19.250  0.00  0.00    +0.000 C 
BRANCH  17  18
ATOM     18  C   UNL     1       1.663   8.884  19.100  0.00  0.00    +0.000 A 
ATOM     19  C   UNL     1       0.672   9.301  19.998  0.00  0.00    +0.000 A 
ATOM     20  C   UNL     1       0.069  10.557  19.855  0.00  0.00    +0.000 A 
ATOM     21  C   UNL     1       0.444  11.404  18.817  0.00  0.00    +0.000 A 
ATOM     22  C   UNL     1       1.424  10.998  17.912  0.00  0.00    +0.000 A 
ATOM     23  C   UNL     1       2.028   9.743  18.055  0.00  0.00    +0.000 A 
ENDBRANCH  17  18
ENDBRANCH   2  16
TORSDOF 3
ENDMDL
MODEL 8
REMARK VINA RESULT:      -7.0      2.016      3.972
REMARK  Name = 
REMARK  3 active torsions:
REMARK  status: ('A' for Active; 'I' for Inactive)
REMARK    1  A    between atoms: C_2  and  C_3
REMARK    2  A    between atoms: C_4  and  C_5
REMARK    3  A    between atoms: C_6  and  C_7
REMARK                            x       y       z     vdW  Elec       q    Type
REMARK                         _______ _______ _______ _____ _____    ______ ____
ROOT
ATOM      1  C   UNL     1       3.007   4.197  18.830  0.00  0.00    +0.000 A 
ATOM      2  C   UNL     1       3.650   5.316  18.385  0.00  0.00    +0.000 A 
ATOM      3  C   UNL     1       4.750   5.146  17.409  0.00  0.00    +0.000 A 
ATOM      4  C   UNL     1       5.081   3.921  16.956  0.00  0.00    +0.000 A 
ATOM      5  N   UNL     1       4.424   2.813  17.436  0.00  0.00    +0.000 N 
ATOM      6  C   UNL     1       3.409   2.841  18.365  0.00  0.00    +0.000 A 
ATOM      7  S   UNL     1       2.748   1.376  18.842  0.00  0.00    +0.000 S 
ATOM      8  C   UNL     1       6.128   3.689  15.891  0.00  0.00    +0.000 C 
ATOM      9  C   UNL     1       5.745   4.306  14.540  0.00  0.00    +0.000 C 
ATOM     10  C   UNL     1       5.913   5.826  14.442  0.00  0.00    +0.000 C 
ATOM     11  C   UNL     1       5.093   6.652  15.434  0.00  0.00    +0.000 C 
ATOM     12  C   UNL     1       5.472   6.373  16.888  0.00  0.00    +0.000 C 
ATOM     13  H   UNL     1       4.688   1.892  17.096  0.00  0.00    +0.000 HD
ENDROOT
BRANCH   1  15
ATOM     14  N   UNL     1       0.912   4.542  20.626  0.00  0.00    +0.000 NA
ATOM     15  C   UNL     1       1.861   4.386  19.811  0.00  0.00    +0.000 C 
ENDBRANCH   1  15
BRANCH   2  16
ATOM     16  C   UNL     1       3.217   6.676  18.793  0.00  0.00    +0.000 C 
ATOM     17  C   UNL     1       2.338   7.465  18.147  0.00  0.00    +0.000 C 
BRANCH  17  18
ATOM     18  C   UNL     1       1.850   8.740  18.697  0.00  0.00    +0.000 A 
ATOM     19  C   UNL     1       1.897   9.933  17.964  0.00  0.00    +0.000 A 
ATOM     20  C   UNL     1       1.369  11.115  18.498  0.00  0.00    +0.000 A 
ATOM     21  C   UNL     1       0.796  11.119  19.766  0.00  0.00    +0.000 A 
ATOM     22  C   UNL     1       0.749   9.940  20.509  0.00  0.00    +0.000 A 
ATOM     23  C   UNL     1       1.275   8.759  19.974  0.00  0.00    +0.000 A 
ENDBRANCH  17  18
ENDBRANCH   2  16
TORSDOF 3
ENDMDL
MODEL 9
REMARK VINA RESULT:      -7.0      1.270      1.674
REMARK  Name = 
REMARK  3 active torsions:
REMARK  status: ('A' for Active; 'I' for Inactive)
REMARK    1  A    between atoms: C_2  and  C_3
REMARK    2  A    between atoms: C_4  and  C_5
REMARK    3  A    between atoms: C_6  and  C_7
REMARK                            x       y       z     vdW  Elec       q    Type
REMARK                         _______ _______ _______ _____ _____    ______ ____
ROOT
ATOM      1  C   UNL     1       5.125   5.754  17.979  0.00  0.00    +0.000 A 
ATOM      2  C   UNL     1       3.813   5.712  18.352  0.00  0.00    +0.000 A 
ATOM      3  C   UNL     1       3.284   4.444  18.901  0.00  0.00    +0.000 A 
ATOM      4  C   UNL     1       4.089   3.374  19.053  0.00  0.00    +0.000 A 
ATOM      5  N   UNL     1       5.403   3.443  18.653  0.00  0.00    +0.000 N 
ATOM      6  C   UNL     1       5.999   4.555  18.101  0.00  0.00    +0.000 A 
ATOM      7  S   UNL     1       7.610   4.434  17.655  0.00  0.00    +0.000 S 
ATOM      8  C   UNL     1       3.636   2.083  19.695  0.00  0.00    +0.000 C 
ATOM      9  C   UNL     1       3.254   2.257  21.170  0.00  0.00    +0.000 C 
ATOM     10  C   UNL     1       1.893   2.916  21.422  0.00  0.00    +0.000 C 
ATOM     11  C   UNL     1       1.723   4.328  20.860  0.00  0.00    +0.000 C 
ATOM     12  C   UNL     1       1.833   4.374  19.337  0.00  0.00    +0.000 C 
ATOM     13  H   UNL     1       6.000   2.629  18.762  0.00  0.00    +0.000 HD
ENDROOT
BRANCH   1  15
ATOM     14  N   UNL     1       6.110   8.161  16.993  0.00  0.00    +0.000 NA
ATOM     15  C   UNL     1       5.663   7.069  17.440  0.00  0.00    +0.000 C 
ENDBRANCH   1  15
BRANCH   2  16
ATOM     16  C   UNL     1       2.949   6.918  18.293  0.00  0.00    +0.000 C 
ATOM     17  C   UNL     1       2.330   7.512  19.330  0.00  0.00    +0.000 C 
BRANCH  17  18
ATOM     18  C   UNL     1       1.611   8.791  19.211  0.00  0.00    +0.000 A 
ATOM     19  C   UNL     1       1.643   9.556  18.037  0.00  0.00    +0.000 A 
ATOM     20  C   UNL     1       0.899  10.738  17.941  0.00  0.00    +0.000 A 
ATOM     21  C   UNL     1       0.123  11.169  19.012  0.00  0.00    +0.000 A 
ATOM     22  C   UNL     1       0.088  10.422  20.188  0.00  0.00    +0.000 A 
ATOM     23  C   UNL     1       0.831   9.239  20.284  0.00  0.00    +0.000 A 
ENDBRANCH  17  18
ENDBRANCH   2  16
TORSDOF 3
ENDMDL
