MODEL 1
REMARK VINA RESULT:      -8.4      0.000      0.000
REMARK  Name = 
REMARK  8 active torsions:
REMARK  status: ('A' for Active; 'I' for Inactive)
REMARK    1  A    between atoms: C_1  and  C_2
REMARK    2  A    between atoms: C_2  and  C_3
REMARK    3  A    between atoms: C_3  and  C_4
REMARK    4  A    between atoms: C_3  and  N_5
REMARK    5  A    between atoms: N_22  and  C_23
REMARK    6  A    between atoms: C_23  and  C_24
REMARK    7  A    between atoms: C_29  and  O_30
REMARK    8  A    between atoms: O_30  and  C_31
REMARK                            x       y       z     vdW  Elec       q    Type
REMARK                         _______ _______ _______ _____ _____    ______ ____
ROOT
ATOM      1  N   UNL     1       0.916  10.279  19.367  0.00  0.00    +0.000 N 
ATOM      2  C   UNL     1       1.578  10.482  18.159  0.00  0.00    +0.000 A 
ATOM      3  N   UNL     1       2.344   9.629  17.549  0.00  0.00    +0.000 NA
ATOM      4  C   UNL     1       2.474   8.457  18.208  0.00  0.00    +0.000 A 
ATOM      5  C   UNL     1       1.879   8.111  19.402  0.00  0.00    +0.000 A 
ATOM      6  C   UNL     1       1.041   9.070  20.070  0.00  0.00    +0.000 A 
ATOM      7  O   UNL     1       0.496   8.851  21.150  0.00  0.00    +0.000 OA
ATOM      8  C   UNL     1       2.234   6.783  19.689  0.00  0.00    +0.000 A 
ATOM      9  N   UNL     1       1.874   5.959  20.702  0.00  0.00    +0.000 NA
ATOM     10  C   UNL     1       2.404   4.729  20.636  0.00  0.00    +0.000 A 
ATOM     11  C   UNL     1       2.049   3.809  21.613  0.00  0.00    +0.000 A 
ATOM     12  C   UNL     1       2.565   2.512  21.616  0.00  0.00    +0.000 A 
ATOM     13  C   UNL     1       3.470   2.134  20.635  0.00  0.00    +0.000 A 
ATOM     14  C   UNL     1       3.830   3.048  19.642  0.00  0.00    +0.000 A 
ATOM     15  C   UNL     1       3.298   4.330  19.607  0.00  0.00    +0.000 A 
ATOM     16  N   UNL     1       3.646   5.135  18.589  0.00  0.00    +0.000 NA
ATOM     17  C   UNL     1       3.080   6.357  18.669  0.00  0.00    +0.000 A 
ATOM     18  N   UNL     1       3.219   7.389  17.768  0.00  0.00    +0.000 N 
ENDROOT
BRANCH   1  19
ATOM     19  C   UNL     1       0.081  11.342  19.947  0.00  0.00    +0.000 C 
ATOM     20  C   UNL     1      -1.300  11.373  19.283  0.00  0.00    +0.000 C 
BRANCH  19  22
ATOM     21  C   UNL     1      -0.048  13.737  19.074  0.00  0.00    +0.000 C 
ATOM     22  C   UNL     1       0.754  12.727  19.886  0.00  0.00    +0.000 C 
ENDBRANCH  19  22
ENDBRANCH   1  19
BRANCH  18  23
ATOM     23  C   UNL     1       3.929   7.300  16.491  0.00  0.00    +0.000 C 
BRANCH  23  24
ATOM     24  C   UNL     1       5.205   6.492  16.582  0.00  0.00    +0.000 A 
ATOM     25  C   UNL     1       5.155   5.217  15.955  0.00  0.00    +0.000 A 
ATOM     26  C   UNL     1       6.205   4.304  16.016  0.00  0.00    +0.000 A 
ATOM     27  C   UNL     1       7.364   4.652  16.682  0.00  0.00    +0.000 A 
ATOM     28  C   UNL     1       7.462   5.919  17.254  0.00  0.00    +0.000 A 
ATOM     29  C   UNL     1       6.406   6.854  17.212  0.00  0.00    +0.000 A 
BRANCH  29  30
ATOM     30  O   UNL     1       6.796   8.000  17.843  0.00  0.00    +0.000 OA
ATOM     31  C   UNL     1       8.131   8.455  17.846  0.00  0.00    +0.000 C 
ENDBRANCH  29  30
ENDBRANCH  23  24
ENDBRANCH  18  23
TORSDOF 5
ENDMDL
MODEL 2
REMARK VINA RESULT:      -8.3      1.080      1.722
REMARK  Name = 
REMARK  8 active torsions:
REMARK  status: ('A' for Active; 'I' for Inactive)
REMARK    1  A    between atoms: C_1  and  C_2
REMARK    2  A    between atoms: C_2  and  C_3
REMARK    3  A    between atoms: C_3  and  C_4
REMARK    4  A    between atoms: C_3  and  N_5
REMARK    5  A    between atoms: N_22  and  C_23
REMARK    6  A    between atoms: C_23  and  C_24
REMARK    7  A    between atoms: C_29  and  O_30
REMARK    8  A    between atoms: O_30  and  C_31
REMARK                            x       y       z     vdW  Elec       q    Type
REMARK                         _______ _______ _______ _____ _____    ______ ____
ROOT
ATOM      1  N   UNL     1       1.024  10.154  19.105  0.00  0.00    +0.000 N 
ATOM      2  C   UNL     1       1.802  10.323  17.963  0.00  0.00    +0.000 A 
ATOM      3  N   UNL     1       2.619   9.452  17.453  0.00  0.00    +0.000 NA
ATOM      4  C   UNL     1       2.676   8.297  18.150  0.00  0.00    +0.000 A 
ATOM      5  C   UNL     1       1.965   7.983  19.288  0.00  0.00    +0.000 A 
ATOM      6  C   UNL     1       1.072   8.963  19.847  0.00  0.00    +0.000 A 
ATOM      7  O   UNL     1       0.422   8.773  20.873  0.00  0.00    +0.000 OA
ATOM      8  C   UNL     1       2.282   6.662  19.642  0.00  0.00    +0.000 A 
ATOM      9  N   UNL     1       1.819   5.865  20.635  0.00  0.00    +0.000 NA
ATOM     10  C   UNL     1       2.345   4.632  20.652  0.00  0.00    +0.000 A 
ATOM     11  C   UNL     1       1.890   3.738  21.612  0.00  0.00    +0.000 A 
ATOM     12  C   UNL     1       2.395   2.440  21.697  0.00  0.00    +0.000 A 
ATOM     13  C   UNL     1       3.390   2.034  20.820  0.00  0.00    +0.000 A 
ATOM     14  C   UNL     1       3.851   2.920  19.844  0.00  0.00    +0.000 A 
ATOM     15  C   UNL     1       3.333   4.204  19.726  0.00  0.00    +0.000 A 
ATOM     16  N   UNL     1       3.784   4.981  18.727  0.00  0.00    +0.000 NA
ATOM     17  C   UNL     1       3.221   6.207  18.720  0.00  0.00    +0.000 A 
ATOM     18  N   UNL     1       3.454   7.215  17.812  0.00  0.00    +0.000 N 
ENDROOT
BRANCH   1  19
ATOM     19  C   UNL     1       0.143  11.234  19.574  0.00  0.00    +0.000 C 
ATOM     20  C   UNL     1      -1.259  11.093  18.972  0.00  0.00    +0.000 C 
BRANCH  19  22
ATOM     21  C   UNL     1      -0.231  13.525  18.512  0.00  0.00    +0.000 C 
ATOM     22  C   UNL     1       0.723  12.635  19.301  0.00  0.00    +0.000 C 
ENDBRANCH  19  22
ENDBRANCH   1  19
BRANCH  18  23
ATOM     23  C   UNL     1       4.285   7.091  16.614  0.00  0.00    +0.000 C 
BRANCH  23  24
ATOM     24  C   UNL     1       5.462   6.161  16.808  0.00  0.00    +0.000 A 
ATOM     25  C   UNL     1       6.319   6.494  17.893  0.00  0.00    +0.000 A 
ATOM     26  C   UNL     1       7.497   5.802  18.164  0.00  0.00    +0.000 A 
ATOM     27  C   UNL     1       7.843   4.724  17.375  0.00  0.00    +0.000 A 
ATOM     28  C   UNL     1       6.991   4.339  16.342  0.00  0.00    +0.000 A 
ATOM     29  C   UNL     1       5.798   5.032  16.044  0.00  0.00    +0.000 A 
BRANCH  29  30
ATOM     30  O   UNL     1       5.174   4.421  14.995  0.00  0.00    +0.000 OA
ATOM     31  C   UNL     1       5.868   3.950  13.861  0.00  0.00    +0.000 C 
ENDBRANCH  29  30
ENDBRANCH  23  24
ENDBRANCH  18  23
TORSDOF 5
ENDMDL
MODEL 3
REMARK VINA RESULT:      -7.6      2.332      7.255
REMARK  Name = 
REMARK  8 active torsions:
REMARK  status: ('A' for Active; 'I' for Inactive)
REMARK    1  A    between atoms: C_1  and  C_2
REMARK    2  A    between atoms: C_2  and  C_3
REMARK    3  A    between atoms: C_3  and  C_4
REMARK    4  A    between atoms: C_3  and  N_5
REMARK    5  A    between atoms: N_22  and  C_23
REMARK    6  A    between atoms: C_23  and  C_24
REMARK    7  A    between atoms: C_29  and  O_30
REMARK    8  A    between atoms: O_30  and  C_31
REMARK                            x       y       z     vdW  Elec       q    Type
REMARK                         _______ _______ _______ _____ _____    ______ ____
ROOT
ATOM      1  N   UNL     1       6.017   5.118  15.156  0.00  0.00    +0.000 N 
ATOM      2  C   UNL     1       6.318   4.137  16.096  0.00  0.00    +0.000 A 
ATOM      3  N   UNL     1       5.872   4.075  17.314  0.00  0.00    +0.000 NA
ATOM      4  C   UNL     1       5.047   5.096  17.636  0.00  0.00    +0.000 A 
ATOM      5  C   UNL     1       4.654   6.131  16.814  0.00  0.00    +0.000 A 
ATOM      6  C   UNL     1       5.166   6.190  15.471  0.00  0.00    +0.000 A 
ATOM      7  O   UNL     1       4.887   7.093  14.685  0.00  0.00    +0.000 OA
ATOM      8  C   UNL     1       3.748   6.928  17.531  0.00  0.00    +0.000 A 
ATOM      9  N   UNL     1       3.035   8.020  17.169  0.00  0.00    +0.000 NA
ATOM     10  C   UNL     1       2.240   8.513  18.129  0.00  0.00    +0.000 A 
ATOM     11  C   UNL     1       1.442   9.607  17.824  0.00  0.00    +0.000 A 
ATOM     12  C   UNL     1       0.594  10.179  18.774  0.00  0.00    +0.000 A 
ATOM     13  C   UNL     1       0.560   9.661  20.060  0.00  0.00    +0.000 A 
ATOM     14  C   UNL     1       1.352   8.556  20.379  0.00  0.00    +0.000 A 
ATOM     15  C   UNL     1       2.174   7.955  19.434  0.00  0.00    +0.000 A 
ATOM     16  N   UNL     1       2.863   6.861  19.797  0.00  0.00    +0.000 NA
ATOM     17  C   UNL     1       3.636   6.374  18.804  0.00  0.00    +0.000 A 
ATOM     18  N   UNL     1       4.435   5.254  18.856  0.00  0.00    +0.000 N 
ENDROOT
BRANCH   1  19
ATOM     19  C   UNL     1       6.603   5.065  13.808  0.00  0.00    +0.000 C 
ATOM     20  C   UNL     1       6.282   3.730  13.127  0.00  0.00    +0.000 C 
BRANCH  19  22
ATOM     21  C   UNL     1       8.601   6.004  12.526  0.00  0.00    +0.000 C 
ATOM     22  C   UNL     1       8.120   5.334  13.808  0.00  0.00    +0.000 C 
ENDBRANCH  19  22
ENDBRANCH   1  19
BRANCH  18  23
ATOM     23  C   UNL     1       4.500   4.320  19.981  0.00  0.00    +0.000 C 
BRANCH  23  24
ATOM     24  C   UNL     1       3.224   3.528  20.163  0.00  0.00    +0.000 A 
ATOM     25  C   UNL     1       2.600   3.677  21.432  0.00  0.00    +0.000 A 
ATOM     26  C   UNL     1       1.468   2.956  21.807  0.00  0.00    +0.000 A 
ATOM     27  C   UNL     1       0.898   2.080  20.905  0.00  0.00    +0.000 A 
ATOM     28  C   UNL     1       1.454   1.959  19.633  0.00  0.00    +0.000 A 
ATOM     29  C   UNL     1       2.606   2.673  19.237  0.00  0.00    +0.000 A 
BRANCH  29  30
ATOM     30  O   UNL     1       2.907   2.358  17.944  0.00  0.00    +0.000 OA
ATOM     31  C   UNL     1       2.417   3.092  16.844  0.00  0.00    +0.000 C 
ENDBRANCH  29  30
ENDBRANCH  23  24
ENDBRANCH  18  23
TORSDOF 5
ENDMDL
MODEL 4
REMARK VINA RESULT:      -7.5      1.971      4.814
REMARK  Name = 
REMARK  8 active torsions:
REMARK  status: ('A' for Active; 'I' for Inactive)
REMARK    1  A    between atoms: C_1  and  C_2
REMARK    2  A    between atoms: C_2  and  C_3
REMARK    3  A    between atoms: C_3  and  C_4
REMARK    4  A    between atoms: C_3  and  N_5
REMARK    5  A    between atoms: N_22  and  C_23
REMARK    6  A    between atoms: C_23  and  C_24
REMARK    7  A    between atoms: C_29  and  O_30
REMARK    8  A    between atoms: O_30  and  C_31
REMARK                            x       y       z     vdW  Elec       q    Type
REMARK                         _______ _______ _______ _____ _____    ______ ____
ROOT
ATOM      1  N   UNL     1       1.101  10.049  19.545  0.00  0.00    +0.000 N 
ATOM      2  C   UNL     1       0.737   9.249  20.625  0.00  0.00    +0.000 A 
ATOM      3  N   UNL     1       1.093   8.015  20.822  0.00  0.00    +0.000 NA
ATOM      4  C   UNL     1       1.885   7.522  19.846  0.00  0.00    +0.000 A 
ATOM      5  C   UNL     1       2.331   8.192  18.727  0.00  0.00    +0.000 A 
ATOM      6  C   UNL     1       1.919   9.554  18.517  0.00  0.00    +0.000 A 
ATOM      7  O   UNL     1       2.250  10.212  17.533  0.00  0.00    +0.000 OA
ATOM      8  C   UNL     1       3.176   7.326  18.016  0.00  0.00    +0.000 A 
ATOM      9  N   UNL     1       3.907   7.510  16.891  0.00  0.00    +0.000 NA
ATOM     10  C   UNL     1       4.626   6.444  16.510  0.00  0.00    +0.000 A 
ATOM     11  C   UNL     1       5.437   6.566  15.391  0.00  0.00    +0.000 A 
ATOM     12  C   UNL     1       6.209   5.499  14.929  0.00  0.00    +0.000 A 
ATOM     13  C   UNL     1       6.151   4.279  15.587  0.00  0.00    +0.000 A 
ATOM     14  C   UNL     1       5.345   4.145  16.720  0.00  0.00    +0.000 A 
ATOM     15  C   UNL     1       4.599   5.208  17.210  0.00  0.00    +0.000 A 
ATOM     16  N   UNL     1       3.892   5.022  18.337  0.00  0.00    +0.000 NA
ATOM     17  C   UNL     1       3.197   6.117  18.708  0.00  0.00    +0.000 A 
ATOM     18  N   UNL     1       2.404   6.250  19.826  0.00  0.00    +0.000 N 
ENDROOT
BRANCH   1  19
ATOM     19  C   UNL     1       0.616  11.434  19.447  0.00  0.00    +0.000 C 
ATOM     20  C   UNL     1       1.197  12.295  20.573  0.00  0.00    +0.000 C 
BRANCH  19  22
ATOM     21  C   UNL     1      -1.521  11.003  18.120  0.00  0.00    +0.000 C 
ATOM     22  C   UNL     1      -0.922  11.526  19.420  0.00  0.00    +0.000 C 
ENDBRANCH  19  22
ENDBRANCH   1  19
BRANCH  18  23
ATOM     23  C   UNL     1       2.263   5.243  20.879  0.00  0.00    +0.000 C 
BRANCH  23  24
ATOM     24  C   UNL     1       1.984   3.859  20.337  0.00  0.00    +0.000 A 
ATOM     25  C   UNL     1       0.802   3.747  19.555  0.00  0.00    +0.000 A 
ATOM     26  C   UNL     1       0.342   2.533  19.050  0.00  0.00    +0.000 A 
ATOM     27  C   UNL     1       1.074   1.385  19.284  0.00  0.00    +0.000 A 
ATOM     28  C   UNL     1       2.267   1.476  19.997  0.00  0.00    +0.000 A 
ATOM     29  C   UNL     1       2.745   2.695  20.525  0.00  0.00    +0.000 A 
BRANCH  29  30
ATOM     30  O   UNL     1       3.933   2.474  21.160  0.00  0.00    +0.000 OA
ATOM     31  C   UNL     1       4.923   1.609  20.651  0.00  0.00    +0.000 C 
ENDBRANCH  29  30
ENDBRANCH  23  24
ENDBRANCH  18  23
TORSDOF 5
ENDMDL
MODEL 5
REMARK VINA RESULT:      -7.3      4.784     10.942
REMARK  Name = 
REMARK  8 active torsions:
REMARK  status: ('A' for Active; 'I' for Inactive)
REMARK    1  A    between atoms: C_1  and  C_2
REMARK    2  A    between atoms: C_2  and  C_3
REMARK    3  A    between atoms: C_3  and  C_4
REMARK    4  A    between atoms: C_3  and  N_5
REMARK    5  A    between atoms: N_22  and  C_23
REMARK    6  A    between atoms: C_23  and  C_24
REMARK    7  A    between atoms: C_29  and  O_30
REMARK    8  A    between atoms: O_30  and  C_31
REMARK                            x       y       z     vdW  Elec       q    Type
REMARK                         _______ _______ _______ _____ _____    ______ ____
ROOT
ATOM      1  N   UNL     1      -0.030  10.567  19.648  0.00  0.00    +0.000 N 
ATOM      2  C   UNL     1      -1.114  10.537  18.775  0.00  0.00    +0.000 A 
ATOM      3  N   UNL     1      -2.224  11.198  18.904  0.00  0.00    +0.000 NA
ATOM      4  C   UNL     1      -2.269  11.962  20.017  0.00  0.00    +0.000 A 
ATOM      5  C   UNL     1      -1.278  12.097  20.966  0.00  0.00    +0.000 A 
ATOM      6  C   UNL     1      -0.058  11.350  20.813  0.00  0.00    +0.000 A 
ATOM      7  O   UNL     1       0.863  11.393  21.627  0.00  0.00    +0.000 OA
ATOM      8  C   UNL     1      -1.717  13.033  21.915  0.00  0.00    +0.000 A 
ATOM      9  N   UNL     1      -1.107  13.558  23.004  0.00  0.00    +0.000 NA
ATOM     10  C   UNL     1      -1.839  14.459  23.675  0.00  0.00    +0.000 A 
ATOM     11  C   UNL     1      -1.268  15.077  24.779  0.00  0.00    +0.000 A 
ATOM     12  C   UNL     1      -1.970  16.020  25.531  0.00  0.00    +0.000 A 
ATOM     13  C   UNL     1      -3.276  16.335  25.186  0.00  0.00    +0.000 A 
ATOM     14  C   UNL     1      -3.860  15.726  24.073  0.00  0.00    +0.000 A 
ATOM     15  C   UNL     1      -3.161  14.812  23.295  0.00  0.00    +0.000 A 
ATOM     16  N   UNL     1      -3.767  14.311  22.206  0.00  0.00    +0.000 NA
ATOM     17  C   UNL     1      -2.999  13.425  21.539  0.00  0.00    +0.000 A 
ATOM     18  N   UNL     1      -3.325  12.763  20.376  0.00  0.00    +0.000 N 
ENDROOT
BRANCH   1  19
ATOM     19  C   UNL     1       1.168   9.758  19.378  0.00  0.00    +0.000 C 
ATOM     20  C   UNL     1       1.236   9.364  17.899  0.00  0.00    +0.000 C 
BRANCH  19  22
ATOM     21  C   UNL     1       2.162   7.430  19.706  0.00  0.00    +0.000 C 
ATOM     22  C   UNL     1       1.263   8.516  20.285  0.00  0.00    +0.000 C 
ENDBRANCH  19  22
ENDBRANCH   1  19
BRANCH  18  23
ATOM     23  C   UNL     1      -4.540  12.993  19.592  0.00  0.00    +0.000 C 
BRANCH  23  24
ATOM     24  C   UNL     1      -5.644  12.011  19.914  0.00  0.00    +0.000 A 
ATOM     25  C   UNL     1      -5.796  10.950  18.980  0.00  0.00    +0.000 A 
ATOM     26  C   UNL     1      -6.817  10.006  19.069  0.00  0.00    +0.000 A 
ATOM     27  C   UNL     1      -7.705  10.071  20.124  0.00  0.00    +0.000 A 
ATOM     28  C   UNL     1      -7.543  11.065  21.086  0.00  0.00    +0.000 A 
ATOM     29  C   UNL     1      -6.522  12.036  21.009  0.00  0.00    +0.000 A 
BRANCH  29  30
ATOM     30  O   UNL     1      -6.607  12.865  22.091  0.00  0.00    +0.000 OA
ATOM     31  C   UNL     1      -7.464  12.612  23.182  0.00  0.00    +0.000 C 
ENDBRANCH  29  30
ENDBRANCH  23  24
ENDBRANCH  18  23
TORSDOF 5
ENDMDL
MODEL 6
REMARK VINA RESULT:      -7.3      3.786      7.593
REMARK  Name = 
REMARK  8 active torsions:
REMARK  status: ('A' for Active; 'I' for Inactive)
REMARK    1  A    between atoms: C_1  and  C_2
REMARK    2  A    between atoms: C_2  and  C_3
REMARK    3  A    between atoms: C_3  and  C_4
REMARK    4  A    between atoms: C_3  and  N_5
REMARK    5  A    between atoms: N_22  and  C_23
REMARK    6  A    between atoms: C_23  and  C_24
REMARK    7  A    between atoms: C_29  and  O_30
REMARK    8  A    between atoms: O_30  and  C_31
REMARK                            x       y       z     vdW  Elec       q    Type
REMARK                         _______ _______ _______ _____ _____    ______ ____
ROOT
ATOM      1  N   UNL     1      -2.274  12.631  22.831  0.00  0.00    +0.000 N 
ATOM      2  C   UNL     1      -2.705  13.388  21.745  0.00  0.00    +0.000 A 
ATOM      3  N   UNL     1      -2.354  13.224  20.505  0.00  0.00    +0.000 NA
ATOM      4  C   UNL     1      -1.482  12.209  20.324  0.00  0.00    +0.000 A 
ATOM      5  C   UNL     1      -0.973  11.374  21.295  0.00  0.00    +0.000 A 
ATOM      6  C   UNL     1      -1.363  11.575  22.665  0.00  0.00    +0.000 A 
ATOM      7  O   UNL     1      -0.935  10.893  23.594  0.00  0.00    +0.000 OA
ATOM      8  C   UNL     1      -0.155  10.426  20.661  0.00  0.00    +0.000 A 
ATOM      9  N   UNL     1       0.527   9.362  21.148  0.00  0.00    +0.000 NA
ATOM     10  C   UNL     1       1.195   8.656  20.225  0.00  0.00    +0.000 A 
ATOM     11  C   UNL     1       1.884   7.523  20.636  0.00  0.00    +0.000 A 
ATOM     12  C   UNL     1       2.609   6.742  19.735  0.00  0.00    +0.000 A 
ATOM     13  C   UNL     1       2.664   7.113  18.399  0.00  0.00    +0.000 A 
ATOM     14  C   UNL     1       1.969   8.246  17.970  0.00  0.00    +0.000 A 
ATOM     15  C   UNL     1       1.216   9.013  18.850  0.00  0.00    +0.000 A 
ATOM     16  N   UNL     1       0.528  10.055  18.355  0.00  0.00    +0.000 NA
ATOM     17  C   UNL     1      -0.153  10.732  19.303  0.00  0.00    +0.000 A 
ATOM     18  N   UNL     1      -0.968  11.824  19.109  0.00  0.00    +0.000 N 
ENDROOT
BRANCH   1  19
ATOM     19  C   UNL     1      -2.751  12.936  24.189  0.00  0.00    +0.000 C 
ATOM     20  C   UNL     1      -4.252  12.654  24.314  0.00  0.00    +0.000 C 
BRANCH  19  22
ATOM     21  C   UNL     1      -3.663  15.251  24.757  0.00  0.00    +0.000 C 
ATOM     22  C   UNL     1      -2.422  14.376  24.625  0.00  0.00    +0.000 C 
ENDBRANCH  19  22
ENDBRANCH   1  19
BRANCH  18  23
ATOM     23  C   UNL     1      -1.329  12.382  17.804  0.00  0.00    +0.000 C 
BRANCH  23  24
ATOM     24  C   UNL     1      -2.435  11.609  17.119  0.00  0.00    +0.000 A 
ATOM     25  C   UNL     1      -2.030  10.866  15.977  0.00  0.00    +0.000 A 
ATOM     26  C   UNL     1      -2.928  10.169  15.172  0.00  0.00    +0.000 A 
ATOM     27  C   UNL     1      -4.268  10.162  15.506  0.00  0.00    +0.000 A 
ATOM     28  C   UNL     1      -4.683  10.832  16.655  0.00  0.00    +0.000 A 
ATOM     29  C   UNL     1      -3.791  11.553  17.477  0.00  0.00    +0.000 A 
BRANCH  29  30
ATOM     30  O   UNL     1      -4.481  12.091  18.525  0.00  0.00    +0.000 OA
ATOM     31  C   UNL     1      -5.884  12.008  18.640  0.00  0.00    +0.000 C 
ENDBRANCH  29  30
ENDBRANCH  23  24
ENDBRANCH  18  23
TORSDOF 5
ENDMDL
MODEL 7
REMARK VINA RESULT:      -7.2      4.721     10.874
REMARK  Name = 
REMARK  8 active torsions:
REMARK  status: ('A' for Active; 'I' for Inactive)
REMARK    1  A    between atoms: C_1  and  C_2
REMARK    2  A    between atoms: C_2  and  C_3
REMARK    3  A    between atoms: C_3  and  C_4
REMARK    4  A    between atoms: C_3  and  N_5
REMARK    5  A    between atoms: N_22  and  C_23
REMARK    6  A    between atoms: C_23  and  C_24
REMARK    7  A    between atoms: C_29  and  O_30
REMARK    8  A    between atoms: O_30  and  C_31
REMARK                            x       y       z     vdW  Elec       q    Type
REMARK                         _______ _______ _______ _____ _____    ______ ____
ROOT
ATOM      1  N   UNL     1      -0.111  10.737  19.848  0.00  0.00    +0.000 N 
ATOM      2  C   UNL     1      -1.177  10.763  18.954  0.00  0.00    +0.000 A 
ATOM      3  N   UNL     1      -2.262  11.468  19.071  0.00  0.00    +0.000 NA
ATOM      4  C   UNL     1      -2.296  12.218  20.194  0.00  0.00    +0.000 A 
ATOM      5  C   UNL     1      -1.319  12.299  21.163  0.00  0.00    +0.000 A 
ATOM      6  C   UNL     1      -0.128  11.505  21.024  0.00  0.00    +0.000 A 
ATOM      7  O   UNL     1       0.777  11.499  21.855  0.00  0.00    +0.000 OA
ATOM      8  C   UNL     1      -1.738  13.240  22.117  0.00  0.00    +0.000 A 
ATOM      9  N   UNL     1      -1.128  13.726  23.224  0.00  0.00    +0.000 NA
ATOM     10  C   UNL     1      -1.835  14.647  23.894  0.00  0.00    +0.000 A 
ATOM     11  C   UNL     1      -1.262  15.227  25.017  0.00  0.00    +0.000 A 
ATOM     12  C   UNL     1      -1.939  16.188  25.769  0.00  0.00    +0.000 A 
ATOM     13  C   UNL     1      -3.224  16.561  25.403  0.00  0.00    +0.000 A 
ATOM     14  C   UNL     1      -3.810  15.992  24.271  0.00  0.00    +0.000 A 
ATOM     15  C   UNL     1      -3.135  15.060  23.494  0.00  0.00    +0.000 A 
ATOM     16  N   UNL     1      -3.740  14.598  22.387  0.00  0.00    +0.000 NA
ATOM     17  C   UNL     1      -2.996  13.690  21.722  0.00  0.00    +0.000 A 
ATOM     18  N   UNL     1      -3.326  13.057  20.544  0.00  0.00    +0.000 N 
ENDROOT
BRANCH   1  19
ATOM     19  C   UNL     1       1.058   9.882  19.590  0.00  0.00    +0.000 C 
ATOM     20  C   UNL     1       1.145   9.513  18.106  0.00  0.00    +0.000 C 
BRANCH  19  22
ATOM     21  C   UNL     1       2.034   7.552  19.955  0.00  0.00    +0.000 C 
ATOM     22  C   UNL     1       1.079   8.620  20.474  0.00  0.00    +0.000 C 
ENDBRANCH  19  22
ENDBRANCH   1  19
BRANCH  18  23
ATOM     23  C   UNL     1      -4.514  13.348  19.740  0.00  0.00    +0.000 C 
BRANCH  23  24
ATOM     24  C   UNL     1      -5.615  12.327  19.926  0.00  0.00    +0.000 A 
ATOM     25  C   UNL     1      -6.443  12.537  21.063  0.00  0.00    +0.000 A 
ATOM     26  C   UNL     1      -7.448  11.650  21.440  0.00  0.00    +0.000 A 
ATOM     27  C   UNL     1      -7.684  10.531  20.666  0.00  0.00    +0.000 A 
ATOM     28  C   UNL     1      -6.928  10.332  19.513  0.00  0.00    +0.000 A 
ATOM     29  C   UNL     1      -5.899  11.214  19.119  0.00  0.00    +0.000 A 
BRANCH  29  30
ATOM     30  O   UNL     1      -5.346  10.768  17.954  0.00  0.00    +0.000 OA
ATOM     31  C   UNL     1      -5.055  11.622  16.870  0.00  0.00    +0.000 C 
ENDBRANCH  29  30
ENDBRANCH  23  24
ENDBRANCH  18  23
TORSDOF 5
ENDMDL
MODEL 8
REMARK VINA RESULT:      -7.2      3.851      7.774
REMARK  Name = 
REMARK  8 active torsions:
REMARK  status: ('A' for Active; 'I' for Inactive)
REMARK    1  A    between atoms: C_1  and  C_2
REMARK    2  A    between atoms: C_2  and  C_3
REMARK    3  A    between atoms: C_3  and  C_4
REMARK    4  A    between atoms: C_3  and  N_5
REMARK    5  A    between atoms: N_22  and  C_23
REMARK    6  A    between atoms: C_23  and  C_24
REMARK    7  A    between atoms: C_29  and  O_30
REMARK    8  A    between atoms: O_30  and  C_31
REMARK                            x       y       z     vdW  Elec       q    Type
REMARK                         _______ _______ _______ _____ _____    ______ ____
ROOT
ATOM      1  N   UNL     1      -2.187  13.206  23.074  0.00  0.00    +0.000 N 
ATOM      2  C   UNL     1      -2.289  14.244  22.152  0.00  0.00    +0.000 A 
ATOM      3  N   UNL     1      -1.749  14.280  20.971  0.00  0.00    +0.000 NA
ATOM      4  C   UNL     1      -1.026  13.177  20.678  0.00  0.00    +0.000 A 
ATOM      5  C   UNL     1      -0.840  12.073  21.482  0.00  0.00    +0.000 A 
ATOM      6  C   UNL     1      -1.438  12.053  22.791  0.00  0.00    +0.000 A 
ATOM      7  O   UNL     1      -1.298  11.121  23.580  0.00  0.00    +0.000 OA
ATOM      8  C   UNL     1      -0.078  11.141  20.762  0.00  0.00    +0.000 A 
ATOM      9  N   UNL     1       0.329   9.886  21.071  0.00  0.00    +0.000 NA
ATOM     10  C   UNL     1       1.037   9.275  20.111  0.00  0.00    +0.000 A 
ATOM     11  C   UNL     1       1.454   7.970  20.332  0.00  0.00    +0.000 A 
ATOM     12  C   UNL     1       2.200   7.271  19.382  0.00  0.00    +0.000 A 
ATOM     13  C   UNL     1       2.555   7.898  18.196  0.00  0.00    +0.000 A 
ATOM     14  C   UNL     1       2.136   9.208  17.957  0.00  0.00    +0.000 A 
ATOM     15  C   UNL     1       1.363   9.903  18.879  0.00  0.00    +0.000 A 
ATOM     16  N   UNL     1       0.948  11.139  18.555  0.00  0.00    +0.000 NA
ATOM     17  C   UNL     1       0.220  11.720  19.531  0.00  0.00    +0.000 A 
ATOM     18  N   UNL     1      -0.366  12.965  19.491  0.00  0.00    +0.000 N 
ENDROOT
BRANCH   1  19
ATOM     19  C   UNL     1      -2.851  13.304  24.383  0.00  0.00    +0.000 C 
ATOM     20  C   UNL     1      -4.158  12.506  24.392  0.00  0.00    +0.000 C 
BRANCH  19  22
ATOM     21  C   UNL     1      -2.138  15.213  25.920  0.00  0.00    +0.000 C 
ATOM     22  C   UNL     1      -3.092  14.762  24.820  0.00  0.00    +0.000 C 
ENDBRANCH  19  22
ENDBRANCH   1  19
BRANCH  18  23
ATOM     23  C   UNL     1      -0.392  13.844  18.321  0.00  0.00    +0.000 C 
BRANCH  23  24
ATOM     24  C   UNL     1       0.367  15.135  18.537  0.00  0.00    +0.000 A 
ATOM     25  C   UNL     1      -0.407  16.318  18.391  0.00  0.00    +0.000 A 
ATOM     26  C   UNL     1       0.145  17.595  18.466  0.00  0.00    +0.000 A 
ATOM     27  C   UNL     1       1.493  17.733  18.728  0.00  0.00    +0.000 A 
ATOM     28  C   UNL     1       2.263  16.591  18.935  0.00  0.00    +0.000 A 
ATOM     29  C   UNL     1       1.726  15.288  18.853  0.00  0.00    +0.000 A 
BRANCH  29  30
ATOM     30  O   UNL     1       2.711  14.379  19.111  0.00  0.00    +0.000 OA
ATOM     31  C   UNL     1       3.028  13.944  20.414  0.00  0.00    +0.000 C 
ENDBRANCH  29  30
ENDBRANCH  23  24
ENDBRANCH  18  23
TORSDOF 5
ENDMDL
MODEL 9
REMARK VINA RESULT:      -7.2      4.358      8.150
REMARK  Name = 
REMARK  8 active torsions:
REMARK  status: ('A' for Active; 'I' for Inactive)
REMARK    1  A    between atoms: C_1  and  C_2
REMARK    2  A    between atoms: C_2  and  C_3
REMARK    3  A    between atoms: C_3  and  C_4
REMARK    4  A    between atoms: C_3  and  N_5
REMARK    5  A    between atoms: N_22  and  C_23
REMARK    6  A    between atoms: C_23  and  C_24
REMARK    7  A    between atoms: C_29  and  O_30
REMARK    8  A    between atoms: O_30  and  C_31
REMARK                            x       y       z     vdW  Elec       q    Type
REMARK                         _______ _______ _______ _____ _____    ______ ____
ROOT
ATOM      1  N   UNL     1       3.521  15.013  20.271  0.00  0.00    +0.000 N 
ATOM      2  C   UNL     1       3.428  14.075  19.246  0.00  0.00    +0.000 A 
ATOM      3  N   UNL     1       2.484  13.197  19.090  0.00  0.00    +0.000 NA
ATOM      4  C   UNL     1       1.538  13.249  20.053  0.00  0.00    +0.000 A 
ATOM      5  C   UNL     1       1.493  14.120  21.120  0.00  0.00    +0.000 A 
ATOM      6  C   UNL     1       2.552  15.080  21.285  0.00  0.00    +0.000 A 
ATOM      7  O   UNL     1       2.600  15.873  22.223  0.00  0.00    +0.000 OA
ATOM      8  C   UNL     1       0.311  13.865  21.832  0.00  0.00    +0.000 A 
ATOM      9  N   UNL     1      -0.232  14.471  22.915  0.00  0.00    +0.000 NA
ATOM     10  C   UNL     1      -1.405  13.960  23.313  0.00  0.00    +0.000 A 
ATOM     11  C   UNL     1      -2.049  14.554  24.390  0.00  0.00    +0.000 A 
ATOM     12  C   UNL     1      -3.270  14.074  24.866  0.00  0.00    +0.000 A 
ATOM     13  C   UNL     1      -3.848  12.964  24.267  0.00  0.00    +0.000 A 
ATOM     14  C   UNL     1      -3.216  12.362  23.178  0.00  0.00    +0.000 A 
ATOM     15  C   UNL     1      -2.018  12.850  22.672  0.00  0.00    +0.000 A 
ATOM     16  N   UNL     1      -1.497  12.254  21.587  0.00  0.00    +0.000 NA
ATOM     17  C   UNL     1      -0.328  12.804  21.196  0.00  0.00    +0.000 A 
ATOM     18  N   UNL     1       0.432  12.436  20.109  0.00  0.00    +0.000 N 
ENDROOT
BRANCH   1  19
ATOM     19  C   UNL     1       4.656  15.947  20.327  0.00  0.00    +0.000 C 
ATOM     20  C   UNL     1       4.901  16.588  18.957  0.00  0.00    +0.000 C 
BRANCH  19  22
ATOM     21  C   UNL     1       7.068  16.292  21.085  0.00  0.00    +0.000 C 
ATOM     22  C   UNL     1       5.941  15.291  20.867  0.00  0.00    +0.000 C 
ENDBRANCH  19  22
ENDBRANCH   1  19
BRANCH  18  23
ATOM     23  C   UNL     1       0.042  11.440  19.110  0.00  0.00    +0.000 C 
BRANCH  23  24
ATOM     24  C   UNL     1       0.817  10.146  19.234  0.00  0.00    +0.000 A 
ATOM     25  C   UNL     1       1.432   9.697  18.033  0.00  0.00    +0.000 A 
ATOM     26  C   UNL     1       2.110   8.484  17.941  0.00  0.00    +0.000 A 
ATOM     27  C   UNL     1       2.226   7.688  19.063  0.00  0.00    +0.000 A 
ATOM     28  C   UNL     1       1.684   8.133  20.267  0.00  0.00    +0.000 A 
ATOM     29  C   UNL     1       0.986   9.354  20.380  0.00  0.00    +0.000 A 
BRANCH  29  30
ATOM     30  O   UNL     1       0.583   9.524  21.673  0.00  0.00    +0.000 OA
ATOM     31  C   UNL     1      -0.473   8.787  22.248  0.00  0.00    +0.000 C 
ENDBRANCH  29  30
ENDBRANCH  23  24
ENDBRANCH  18  23
TORSDOF 5
ENDMDL
