MODEL 1
REMARK VINA RESULT:      -7.9      0.000      0.000
REMARK  Name = 
REMARK  6 active torsions:
REMARK  status: ('A' for Active; 'I' for Inactive)
REMARK    1  A    between atoms: C_1  and  C_2
REMARK    2  A    between atoms: C_2  and  C_3
REMARK    3  A    between atoms: C_3  and  C_4
REMARK    4  A    between atoms: C_3  and  N_5
REMARK    5  A    between atoms: C_6  and  C_8
REMARK    6  A    between atoms: C_11  and  N_12
REMARK                            x       y       z     vdW  Elec       q    Type
REMARK                         _______ _______ _______ _____ _____    ______ ____
ROOT
ATOM      1  C   UNL     1       6.422   4.389  15.566  0.00  0.00    +0.000 A 
ATOM      2  C   UNL     1       7.237   4.867  16.578  0.00  0.00    +0.000 A 
ATOM      3  C   UNL     1       6.643   4.737  17.868  0.00  0.00    +0.000 A 
ATOM      4  C   UNL     1       5.409   4.135  17.793  0.00  0.00    +0.000 A 
ATOM      5  S   UNL     1       5.005   3.670  16.214  0.00  0.00    +0.000 S 
ENDROOT
BRANCH   4   6
ATOM      6  N   UNL     1       4.499   3.901  18.830  0.00  0.00    +0.000 N 
ATOM      7  C   UNL     1       4.321   2.724  19.535  0.00  0.00    +0.000 A 
ATOM      8  N   UNL     1       3.446   2.829  20.508  0.00  0.00    +0.000 NA
ATOM      9  C   UNL     1       2.969   4.107  20.411  0.00  0.00    +0.000 A 
ATOM     10  C   UNL     1       1.976   4.735  21.178  0.00  0.00    +0.000 A 
ATOM     11  C   UNL     1       1.586   6.037  20.849  0.00  0.00    +0.000 A 
ATOM     12  C   UNL     1       2.169   6.701  19.772  0.00  0.00    +0.000 A 
ATOM     13  C   UNL     1       3.176   6.097  19.009  0.00  0.00    +0.000 A 
ATOM     14  C   UNL     1       3.579   4.799  19.366  0.00  0.00    +0.000 A 
ENDBRANCH   4   6
BRANCH   1  16
ATOM     15  N   UNL     1       5.994   3.518  13.378  0.00  0.00    +0.000 N 
ATOM     16  C   UNL     1       6.685   4.443  14.133  0.00  0.00    +0.000 C 
ATOM     17  O   UNL     1       7.450   5.256  13.626  0.00  0.00    +0.000 OA
ATOM     18  H   UNL     1       5.304   2.951  13.854  0.00  0.00    +0.000 HD
BRANCH  15  19
ATOM     19  C   UNL     1       6.089   3.434  11.931  0.00  0.00    +0.000 C 
ATOM     20  C   UNL     1       4.718   3.119  11.331  0.00  0.00    +0.000 C 
BRANCH  19  22
ATOM     21  C   UNL     1       6.450   1.065  11.062  0.00  0.00    +0.000 C 
ATOM     22  C   UNL     1       7.109   2.358  11.527  0.00  0.00    +0.000 C 
ENDBRANCH  19  22
ENDBRANCH  15  19
ENDBRANCH   1  16
TORSDOF 4
ENDMDL
MODEL 2
REMARK VINA RESULT:      -7.5      1.856      2.516
REMARK  Name = 
REMARK  6 active torsions:
REMARK  status: ('A' for Active; 'I' for Inactive)
REMARK    1  A    between atoms: C_1  and  C_2
REMARK    2  A    between atoms: C_2  and  C_3
REMARK    3  A    between atoms: C_3  and  C_4
REMARK    4  A    between atoms: C_3  and  N_5
REMARK    5  A    between atoms: C_6  and  C_8
REMARK    6  A    between atoms: C_11  and  N_12
REMARK                            x       y       z     vdW  Elec       q    Type
REMARK                         _______ _______ _______ _____ _____    ______ ____
ROOT
ATOM      1  C   UNL     1       5.667   5.311  15.713  0.00  0.00    +0.000 A 
ATOM      2  C   UNL     1       5.215   6.616  15.805  0.00  0.00    +0.000 A 
ATOM      3  C   UNL     1       4.285   6.801  16.871  0.00  0.00    +0.000 A 
ATOM      4  C   UNL     1       4.089   5.634  17.572  0.00  0.00    +0.000 A 
ATOM      5  S   UNL     1       5.056   4.362  17.007  0.00  0.00    +0.000 S 
ENDROOT
BRANCH   4   6
ATOM      6  N   UNL     1       3.205   5.404  18.633  0.00  0.00    +0.000 N 
ATOM      7  C   UNL     1       2.979   6.222  19.725  0.00  0.00    +0.000 A 
ATOM      8  N   UNL     1       2.032   5.779  20.518  0.00  0.00    +0.000 NA
ATOM      9  C   UNL     1       1.653   4.583  19.974  0.00  0.00    +0.000 A 
ATOM     10  C   UNL     1       0.705   3.664  20.448  0.00  0.00    +0.000 A 
ATOM     11  C   UNL     1       0.532   2.455  19.767  0.00  0.00    +0.000 A 
ATOM     12  C   UNL     1       1.294   2.163  18.637  0.00  0.00    +0.000 A 
ATOM     13  C   UNL     1       2.229   3.077  18.139  0.00  0.00    +0.000 A 
ATOM     14  C   UNL     1       2.374   4.301  18.816  0.00  0.00    +0.000 A 
ENDBRANCH   4   6
BRANCH   1  16
ATOM     15  N   UNL     1       5.922   4.079  13.677  0.00  0.00    +0.000 N 
ATOM     16  C   UNL     1       6.554   4.762  14.695  0.00  0.00    +0.000 C 
ATOM     17  O   UNL     1       7.772   4.905  14.726  0.00  0.00    +0.000 OA
ATOM     18  H   UNL     1       4.911   4.092  13.666  0.00  0.00    +0.000 HD
BRANCH  15  19
ATOM     19  C   UNL     1       6.626   3.490  12.550  0.00  0.00    +0.000 C 
ATOM     20  C   UNL     1       7.210   4.590  11.662  0.00  0.00    +0.000 C 
BRANCH  19  22
ATOM     21  C   UNL     1       4.331   3.257  11.466  0.00  0.00    +0.000 C 
ATOM     22  C   UNL     1       5.677   2.596  11.738  0.00  0.00    +0.000 C 
ENDBRANCH  19  22
ENDBRANCH  15  19
ENDBRANCH   1  16
TORSDOF 4
ENDMDL
MODEL 3
REMARK VINA RESULT:      -7.4      1.095      1.973
REMARK  Name = 
REMARK  6 active torsions:
REMARK  status: ('A' for Active; 'I' for Inactive)
REMARK    1  A    between atoms: C_1  and  C_2
REMARK    2  A    between atoms: C_2  and  C_3
REMARK    3  A    between atoms: C_3  and  C_4
REMARK    4  A    between atoms: C_3  and  N_5
REMARK    5  A    between atoms: C_6  and  C_8
REMARK    6  A    between atoms: C_11  and  N_12
REMARK                            x       y       z     vdW  Elec       q    Type
REMARK                         _______ _______ _______ _____ _____    ______ ____
ROOT
ATOM      1  C   UNL     1       6.079   4.369  15.272  0.00  0.00    +0.000 A 
ATOM      2  C   UNL     1       7.034   4.566  16.255  0.00  0.00    +0.000 A 
ATOM      3  C   UNL     1       6.460   4.822  17.535  0.00  0.00    +0.000 A 
ATOM      4  C   UNL     1       5.087   4.779  17.485  0.00  0.00    +0.000 A 
ATOM      5  S   UNL     1       4.501   4.367  15.949  0.00  0.00    +0.000 S 
ENDROOT
BRANCH   4   6
ATOM      6  N   UNL     1       4.178   5.045  18.516  0.00  0.00    +0.000 N 
ATOM      7  C   UNL     1       3.575   6.255  18.807  0.00  0.00    +0.000 A 
ATOM      8  N   UNL     1       2.705   6.179  19.787  0.00  0.00    +0.000 NA
ATOM      9  C   UNL     1       2.775   4.882  20.215  0.00  0.00    +0.000 A 
ATOM     10  C   UNL     1       2.089   4.268  21.274  0.00  0.00    +0.000 A 
ATOM     11  C   UNL     1       2.376   2.936  21.587  0.00  0.00    +0.000 A 
ATOM     12  C   UNL     1       3.334   2.229  20.864  0.00  0.00    +0.000 A 
ATOM     13  C   UNL     1       4.013   2.819  19.792  0.00  0.00    +0.000 A 
ATOM     14  C   UNL     1       3.695   4.150  19.468  0.00  0.00    +0.000 A 
ENDBRANCH   4   6
BRANCH   1  16
ATOM     15  N   UNL     1       5.342   3.448  13.189  0.00  0.00    +0.000 N 
ATOM     16  C   UNL     1       6.318   4.167  13.848  0.00  0.00    +0.000 C 
ATOM     17  O   UNL     1       7.303   4.612  13.268  0.00  0.00    +0.000 OA
ATOM     18  H   UNL     1       4.511   3.204  13.712  0.00  0.00    +0.000 HD
BRANCH  15  19
ATOM     19  C   UNL     1       5.376   3.172  11.763  0.00  0.00    +0.000 C 
ATOM     20  C   UNL     1       3.980   3.338  11.162  0.00  0.00    +0.000 C 
BRANCH  19  22
ATOM     21  C   UNL     1       7.339   1.733  11.004  0.00  0.00    +0.000 C 
ATOM     22  C   UNL     1       5.902   1.750  11.510  0.00  0.00    +0.000 C 
ENDBRANCH  19  22
ENDBRANCH  15  19
ENDBRANCH   1  16
TORSDOF 4
ENDMDL
MODEL 4
REMARK VINA RESULT:      -7.3      1.570      2.518
REMARK  Name = 
REMARK  6 active torsions:
REMARK  status: ('A' for Active; 'I' for Inactive)
REMARK    1  A    between atoms: C_1  and  C_2
REMARK    2  A    between atoms: C_2  and  C_3
REMARK    3  A    between atoms: C_3  and  C_4
REMARK    4  A    between atoms: C_3  and  N_5
REMARK    5  A    between atoms: C_6  and  C_8
REMARK    6  A    between atoms: C_11  and  N_12
REMARK                            x       y       z     vdW  Elec       q    Type
REMARK                         _______ _______ _______ _____ _____    ______ ____
ROOT
ATOM      1  C   UNL     1       5.692   5.392  15.857  0.00  0.00    +0.000 A 
ATOM      2  C   UNL     1       5.219   6.692  15.905  0.00  0.00    +0.000 A 
ATOM      3  C   UNL     1       4.336   6.915  17.003  0.00  0.00    +0.000 A 
ATOM      4  C   UNL     1       4.196   5.782  17.770  0.00  0.00    +0.000 A 
ATOM      5  S   UNL     1       5.161   4.500  17.225  0.00  0.00    +0.000 S 
ENDROOT
BRANCH   4   6
ATOM      6  N   UNL     1       3.368   5.592  18.882  0.00  0.00    +0.000 N 
ATOM      7  C   UNL     1       2.503   6.512  19.448  0.00  0.00    +0.000 A 
ATOM      8  N   UNL     1       1.796   6.019  20.438  0.00  0.00    +0.000 NA
ATOM      9  C   UNL     1       2.252   4.738  20.588  0.00  0.00    +0.000 A 
ATOM     10  C   UNL     1       1.872   3.775  21.535  0.00  0.00    +0.000 A 
ATOM     11  C   UNL     1       2.533   2.543  21.554  0.00  0.00    +0.000 A 
ATOM     12  C   UNL     1       3.559   2.276  20.649  0.00  0.00    +0.000 A 
ATOM     13  C   UNL     1       3.936   3.217  19.684  0.00  0.00    +0.000 A 
ATOM     14  C   UNL     1       3.246   4.441  19.657  0.00  0.00    +0.000 A 
ENDBRANCH   4   6
BRANCH   1  16
ATOM     15  N   UNL     1       5.868   4.147  13.820  0.00  0.00    +0.000 N 
ATOM     16  C   UNL     1       6.542   4.807  14.827  0.00  0.00    +0.000 C 
ATOM     17  O   UNL     1       7.764   4.903  14.839  0.00  0.00    +0.000 OA
ATOM     18  H   UNL     1       4.858   4.199  13.824  0.00  0.00    +0.000 HD
BRANCH  15  19
ATOM     19  C   UNL     1       6.531   3.529  12.685  0.00  0.00    +0.000 C 
ATOM     20  C   UNL     1       7.112   4.604  11.766  0.00  0.00    +0.000 C 
BRANCH  19  22
ATOM     21  C   UNL     1       4.300   3.397  11.459  0.00  0.00    +0.000 C 
ATOM     22  C   UNL     1       5.544   2.642  11.910  0.00  0.00    +0.000 C 
ENDBRANCH  19  22
ENDBRANCH  15  19
ENDBRANCH   1  16
TORSDOF 4
ENDMDL
MODEL 5
REMARK VINA RESULT:      -7.0      2.194      3.089
REMARK  Name = 
REMARK  6 active torsions:
REMARK  status: ('A' for Active; 'I' for Inactive)
REMARK    1  A    between atoms: C_1  and  C_2
REMARK    2  A    between atoms: C_2  and  C_3
REMARK    3  A    between atoms: C_3  and  C_4
REMARK    4  A    between atoms: C_3  and  N_5
REMARK    5  A    between atoms: C_6  and  C_8
REMARK    6  A    between atoms: C_11  and  N_12
REMARK                            x       y       z     vdW  Elec       q    Type
REMARK                         _______ _______ _______ _____ _____    ______ ____
ROOT
ATOM      1  C   UNL     1       5.120   4.657  16.342  0.00  0.00    +0.000 A 
ATOM      2  C   UNL     1       4.164   3.696  16.620  0.00  0.00    +0.000 A 
ATOM      3  C   UNL     1       3.187   4.147  17.557  0.00  0.00    +0.000 A 
ATOM      4  C   UNL     1       3.419   5.449  17.933  0.00  0.00    +0.000 A 
ATOM      5  S   UNL     1       4.738   6.139  17.122  0.00  0.00    +0.000 S 
ENDROOT
BRANCH   4   6
ATOM      6  N   UNL     1       2.722   6.210  18.879  0.00  0.00    +0.000 N 
ATOM      7  C   UNL     1       2.314   5.809  20.138  0.00  0.00    +0.000 A 
ATOM      8  N   UNL     1       1.749   6.769  20.831  0.00  0.00    +0.000 NA
ATOM      9  C   UNL     1       1.715   7.839  19.981  0.00  0.00    +0.000 A 
ATOM     10  C   UNL     1       1.172   9.115  20.194  0.00  0.00    +0.000 A 
ATOM     11  C   UNL     1       1.178  10.041  19.146  0.00  0.00    +0.000 A 
ATOM     12  C   UNL     1       1.710   9.700  17.904  0.00  0.00    +0.000 A 
ATOM     13  C   UNL     1       2.274   8.439  17.679  0.00  0.00    +0.000 A 
ATOM     14  C   UNL     1       2.287   7.527  18.749  0.00  0.00    +0.000 A 
ENDBRANCH   4   6
BRANCH   1  16
ATOM     15  N   UNL     1       6.035   4.159  14.188  0.00  0.00    +0.000 N 
ATOM     16  C   UNL     1       6.298   4.502  15.498  0.00  0.00    +0.000 C 
ATOM     17  O   UNL     1       7.440   4.674  15.910  0.00  0.00    +0.000 OA
ATOM     18  H   UNL     1       5.066   4.135  13.898  0.00  0.00    +0.000 HD
BRANCH  15  19
ATOM     19  C   UNL     1       7.070   3.992  13.181  0.00  0.00    +0.000 C 
ATOM     20  C   UNL     1       7.585   5.359  12.726  0.00  0.00    +0.000 C 
BRANCH  19  22
ATOM     21  C   UNL     1       5.001   3.217  11.908  0.00  0.00    +0.000 C 
ATOM     22  C   UNL     1       6.523   3.202  11.982  0.00  0.00    +0.000 C 
ENDBRANCH  19  22
ENDBRANCH  15  19
ENDBRANCH   1  16
TORSDOF 4
ENDMDL
MODEL 6
REMARK VINA RESULT:      -7.0      5.049      7.668
REMARK  Name = 
REMARK  6 active torsions:
REMARK  status: ('A' for Active; 'I' for Inactive)
REMARK    1  A    between atoms: C_1  and  C_2
REMARK    2  A    between atoms: C_2  and  C_3
REMARK    3  A    between atoms: C_3  and  C_4
REMARK    4  A    between atoms: C_3  and  N_5
REMARK    5  A    between atoms: C_6  and  C_8
REMARK    6  A    between atoms: C_11  and  N_12
REMARK                            x       y       z     vdW  Elec       q    Type
REMARK                         _______ _______ _______ _____ _____    ______ ____
ROOT
ATOM      1  C   UNL     1       2.822   6.915  18.994  0.00  0.00    +0.000 A 
ATOM      2  C   UNL     1       2.970   7.688  17.855  0.00  0.00    +0.000 A 
ATOM      3  C   UNL     1       2.172   8.869  17.886  0.00  0.00    +0.000 A 
ATOM      4  C   UNL     1       1.468   8.967  19.064  0.00  0.00    +0.000 A 
ATOM      5  S   UNL     1       1.816   7.705  20.139  0.00  0.00    +0.000 S 
ENDROOT
BRANCH   4   6
ATOM      6  N   UNL     1       0.534   9.943  19.430  0.00  0.00    +0.000 N 
ATOM      7  C   UNL     1       0.555  10.737  20.563  0.00  0.00    +0.000 A 
ATOM      8  N   UNL     1      -0.417  11.619  20.597  0.00  0.00    +0.000 NA
ATOM      9  C   UNL     1      -1.159  11.363  19.477  0.00  0.00    +0.000 A 
ATOM     10  C   UNL     1      -2.342  11.982  19.046  0.00  0.00    +0.000 A 
ATOM     11  C   UNL     1      -2.981  11.501  17.899  0.00  0.00    +0.000 A 
ATOM     12  C   UNL     1      -2.455  10.419  17.195  0.00  0.00    +0.000 A 
ATOM     13  C   UNL     1      -1.265   9.803  17.599  0.00  0.00    +0.000 A 
ATOM     14  C   UNL     1      -0.617  10.313  18.738  0.00  0.00    +0.000 A 
ENDBRANCH   4   6
BRANCH   1  16
ATOM     15  N   UNL     1       2.537   4.558  19.302  0.00  0.00    +0.000 N 
ATOM     16  C   UNL     1       3.425   5.613  19.252  0.00  0.00    +0.000 C 
ATOM     17  O   UNL     1       4.632   5.456  19.402  0.00  0.00    +0.000 OA
ATOM     18  H   UNL     1       1.572   4.751  19.067  0.00  0.00    +0.000 HD
BRANCH  15  19
ATOM     19  C   UNL     1       2.942   3.179  19.511  0.00  0.00    +0.000 C 
ATOM     20  C   UNL     1       2.147   2.252  18.592  0.00  0.00    +0.000 C 
BRANCH  19  22
ATOM     21  C   UNL     1       1.273   2.839  21.408  0.00  0.00    +0.000 C 
ATOM     22  C   UNL     1       2.735   2.781  20.981  0.00  0.00    +0.000 C 
ENDBRANCH  19  22
ENDBRANCH  15  19
ENDBRANCH   1  16
TORSDOF 4
ENDMDL
MODEL 7
REMARK VINA RESULT:      -6.9      4.862      8.247
REMARK  Name = 
REMARK  6 active torsions:
REMARK  status: ('A' for Active; 'I' for Inactive)
REMARK    1  A    between atoms: C_1  and  C_2
REMARK    2  A    between atoms: C_2  and  C_3
REMARK    3  A    between atoms: C_3  and  C_4
REMARK    4  A    between atoms: C_3  and  N_5
REMARK    5  A    between atoms: C_6  and  C_8
REMARK    6  A    between atoms: C_11  and  N_12
REMARK                            x       y       z     vdW  Elec       q    Type
REMARK                         _______ _______ _______ _____ _____    ______ ____
ROOT
ATOM      1  C   UNL     1       1.139   9.450  19.100  0.00  0.00    +0.000 A 
ATOM      2  C   UNL     1       1.207   8.726  20.278  0.00  0.00    +0.000 A 
ATOM      3  C   UNL     1       1.952   7.518  20.139  0.00  0.00    +0.000 A 
ATOM      4  C   UNL     1       2.453   7.384  18.865  0.00  0.00    +0.000 A 
ATOM      5  S   UNL     1       2.096   8.715  17.879  0.00  0.00    +0.000 S 
ENDROOT
BRANCH   4   6
ATOM      6  N   UNL     1       3.171   6.307  18.330  0.00  0.00    +0.000 N 
ATOM      7  C   UNL     1       4.425   6.346  17.748  0.00  0.00    +0.000 A 
ATOM      8  N   UNL     1       4.877   5.161  17.409  0.00  0.00    +0.000 NA
ATOM      9  C   UNL     1       3.859   4.300  17.713  0.00  0.00    +0.000 A 
ATOM     10  C   UNL     1       3.791   2.914  17.510  0.00  0.00    +0.000 A 
ATOM     11  C   UNL     1       2.609   2.238  17.828  0.00  0.00    +0.000 A 
ATOM     12  C   UNL     1       1.510   2.931  18.334  0.00  0.00    +0.000 A 
ATOM     13  C   UNL     1       1.568   4.311  18.562  0.00  0.00    +0.000 A 
ATOM     14  C   UNL     1       2.771   4.974  18.265  0.00  0.00    +0.000 A 
ENDBRANCH   4   6
BRANCH   1  16
ATOM     15  N   UNL     1      -0.833  10.516  18.261  0.00  0.00    +0.000 N 
ATOM     16  C   UNL     1       0.393  10.681  18.872  0.00  0.00    +0.000 C 
ATOM     17  O   UNL     1       0.811  11.785  19.206  0.00  0.00    +0.000 OA
ATOM     18  H   UNL     1      -1.153   9.568  18.109  0.00  0.00    +0.000 HD
BRANCH  15  19
ATOM     19  C   UNL     1      -1.742  11.614  17.980  0.00  0.00    +0.000 C 
ATOM     20  C   UNL     1      -2.679  11.838  19.167  0.00  0.00    +0.000 C 
BRANCH  19  22
ATOM     21  C   UNL     1      -2.763   9.830  16.472  0.00  0.00    +0.000 C 
ATOM     22  C   UNL     1      -2.552  11.321  16.708  0.00  0.00    +0.000 C 
ENDBRANCH  19  22
ENDBRANCH  15  19
ENDBRANCH   1  16
TORSDOF 4
ENDMDL
MODEL 8
REMARK VINA RESULT:      -6.9      1.956      2.817
REMARK  Name = 
REMARK  6 active torsions:
REMARK  status: ('A' for Active; 'I' for Inactive)
REMARK    1  A    between atoms: C_1  and  C_2
REMARK    2  A    between atoms: C_2  and  C_3
REMARK    3  A    between atoms: C_3  and  C_4
REMARK    4  A    between atoms: C_3  and  N_5
REMARK    5  A    between atoms: C_6  and  C_8
REMARK    6  A    between atoms: C_11  and  N_12
REMARK                            x       y       z     vdW  Elec       q    Type
REMARK                         _______ _______ _______ _____ _____    ______ ____
ROOT
ATOM      1  C   UNL     1       5.842   5.536  16.216  0.00  0.00    +0.000 A 
ATOM      2  C   UNL     1       5.132   6.709  16.022  0.00  0.00    +0.000 A 
ATOM      3  C   UNL     1       4.086   6.882  16.976  0.00  0.00    +0.000 A 
ATOM      4  C   UNL     1       4.059   5.848  17.882  0.00  0.00    +0.000 A 
ATOM      5  S   UNL     1       5.310   4.731  17.636  0.00  0.00    +0.000 S 
ENDROOT
BRANCH   4   6
ATOM      6  N   UNL     1       3.141   5.633  18.917  0.00  0.00    +0.000 N 
ATOM      7  C   UNL     1       2.612   6.579  19.775  0.00  0.00    +0.000 A 
ATOM      8  N   UNL     1       1.711   6.090  20.595  0.00  0.00    +0.000 NA
ATOM      9  C   UNL     1       1.683   4.750  20.323  0.00  0.00    +0.000 A 
ATOM     10  C   UNL     1       0.928   3.743  20.943  0.00  0.00    +0.000 A 
ATOM     11  C   UNL     1       1.118   2.414  20.552  0.00  0.00    +0.000 A 
ATOM     12  C   UNL     1       2.048   2.092  19.565  0.00  0.00    +0.000 A 
ATOM     13  C   UNL     1       2.794   3.086  18.922  0.00  0.00    +0.000 A 
ATOM     14  C   UNL     1       2.574   4.420  19.304  0.00  0.00    +0.000 A 
ENDBRANCH   4   6
BRANCH   1  16
ATOM     15  N   UNL     1       6.743   5.208  14.023  0.00  0.00    +0.000 N 
ATOM     16  C   UNL     1       6.914   5.013  15.378  0.00  0.00    +0.000 C 
ATOM     17  O   UNL     1       7.904   4.454  15.837  0.00  0.00    +0.000 OA
ATOM     18  H   UNL     1       5.953   5.767  13.729  0.00  0.00    +0.000 HD
BRANCH  15  19
ATOM     19  C   UNL     1       7.715   4.793  13.026  0.00  0.00    +0.000 C 
ATOM     20  C   UNL     1       8.472   6.010  12.492  0.00  0.00    +0.000 C 
BRANCH  19  22
ATOM     21  C   UNL     1       5.797   3.262  12.337  0.00  0.00    +0.000 C 
ATOM     22  C   UNL     1       7.015   4.052  11.876  0.00  0.00    +0.000 C 
ENDBRANCH  19  22
ENDBRANCH  15  19
ENDBRANCH   1  16
TORSDOF 4
ENDMDL
MODEL 9
REMARK VINA RESULT:      -6.9      1.619      1.995
REMARK  Name = 
REMARK  6 active torsions:
REMARK  status: ('A' for Active; 'I' for Inactive)
REMARK    1  A    between atoms: C_1  and  C_2
REMARK    2  A    between atoms: C_2  and  C_3
REMARK    3  A    between atoms: C_3  and  C_4
REMARK    4  A    between atoms: C_3  and  N_5
REMARK    5  A    between atoms: C_6  and  C_8
REMARK    6  A    between atoms: C_11  and  N_12
REMARK                            x       y       z     vdW  Elec       q    Type
REMARK                         _______ _______ _______ _____ _____    ______ ____
ROOT
ATOM      1  C   UNL     1       5.493   4.833  14.844  0.00  0.00    +0.000 A 
ATOM      2  C   UNL     1       5.359   6.159  15.219  0.00  0.00    +0.000 A 
ATOM      3  C   UNL     1       4.837   6.307  16.539  0.00  0.00    +0.000 A 
ATOM      4  C   UNL     1       4.622   5.085  17.131  0.00  0.00    +0.000 A 
ATOM      5  S   UNL     1       5.107   3.790  16.152  0.00  0.00    +0.000 S 
ENDROOT
BRANCH   4   6
ATOM      6  N   UNL     1       4.058   4.823  18.385  0.00  0.00    +0.000 N 
ATOM      7  C   UNL     1       4.545   5.215  19.620  0.00  0.00    +0.000 A 
ATOM      8  N   UNL     1       3.756   4.889  20.616  0.00  0.00    +0.000 NA
ATOM      9  C   UNL     1       2.732   4.192  20.036  0.00  0.00    +0.000 A 
ATOM     10  C   UNL     1       1.634   3.571  20.649  0.00  0.00    +0.000 A 
ATOM     11  C   UNL     1       0.741   2.837  19.862  0.00  0.00    +0.000 A 
ATOM     12  C   UNL     1       0.941   2.719  18.488  0.00  0.00    +0.000 A 
ATOM     13  C   UNL     1       2.020   3.349  17.856  0.00  0.00    +0.000 A 
ATOM     14  C   UNL     1       2.894   4.106  18.655  0.00  0.00    +0.000 A 
ENDBRANCH   4   6
BRANCH   1  16
ATOM     15  N   UNL     1       4.928   3.708  12.809  0.00  0.00    +0.000 N 
ATOM     16  C   UNL     1       5.916   4.330  13.544  0.00  0.00    +0.000 C 
ATOM     17  O   UNL     1       7.060   4.459  13.120  0.00  0.00    +0.000 OA
ATOM     18  H   UNL     1       3.988   3.731  13.180  0.00  0.00    +0.000 HD
BRANCH  15  19
ATOM     19  C   UNL     1       5.139   3.172  11.475  0.00  0.00    +0.000 C 
ATOM     20  C   UNL     1       3.827   3.186  10.689  0.00  0.00    +0.000 C 
BRANCH  19  22
ATOM     21  C   UNL     1       7.130   1.638  11.050  0.00  0.00    +0.000 C 
ATOM     22  C   UNL     1       5.697   1.743  11.558  0.00  0.00    +0.000 C 
ENDBRANCH  19  22
ENDBRANCH  15  19
ENDBRANCH   1  16
TORSDOF 4
ENDMDL
