MODEL 1
REMARK VINA RESULT:      -8.1      0.000      0.000
REMARK  Name = 
REMARK  6 active torsions:
REMARK  status: ('A' for Active; 'I' for Inactive)
REMARK    1  A    between atoms: C_1  and  C_2
REMARK    2  A    between atoms: C_2  and  S_3
REMARK    3  A    between atoms: S_3  and  C_4
REMARK    4  A    between atoms: N_7  and  C_8
REMARK    5  A    between atoms: C_10  and  C_11
REMARK    6  A    between atoms: N_22  and  C_23
REMARK                            x       y       z     vdW  Elec       q    Type
REMARK                         _______ _______ _______ _____ _____    ______ ____
ROOT
ATOM      1  C   UNL     1       2.779   4.359  18.029  0.00  0.00    +0.000 A 
ATOM      2  N   UNL     1       2.413   5.639  18.305  0.00  0.00    +0.000 NA
ATOM      3  C   UNL     1       3.192   6.659  17.858  0.00  0.00    +0.000 A 
ATOM      4  N   UNL     1       2.930   8.009  18.131  0.00  0.00    +0.000 N 
ATOM      5  C   UNL     1       4.325   6.322  17.099  0.00  0.00    +0.000 A 
ATOM      6  N   UNL     1       5.284   7.082  16.483  0.00  0.00    +0.000 NA
ATOM      7  N   UNL     1       6.139   6.257  15.883  0.00  0.00    +0.000 NA
ATOM      8  N   UNL     1       5.720   4.997  16.133  0.00  0.00    +0.000 N 
ATOM      9  C   UNL     1       6.450   3.876  15.606  0.00  0.00    +0.000 C 
ATOM     10  C   UNL     1       4.583   4.982  16.887  0.00  0.00    +0.000 A 
ATOM     11  N   UNL     1       3.860   3.944  17.327  0.00  0.00    +0.000 NA
ATOM     12  H   UNL     1       3.559   8.639  17.639  0.00  0.00    +0.000 HD
ENDROOT
BRANCH   4  13
ATOM     13  C   UNL     1       1.704   8.527  18.714  0.00  0.00    +0.000 C 
ATOM     14  C   UNL     1       0.948   9.527  17.873  0.00  0.00    +0.000 C 
ATOM     15  C   UNL     1       1.540   9.955  19.192  0.00  0.00    +0.000 C 
BRANCH  15  16
ATOM     16  C   UNL     1       0.625  10.280  20.353  0.00  0.00    +0.000 A 
ATOM     17  C   UNL     1      -0.379  11.268  20.270  0.00  0.00    +0.000 A 
ATOM     18  C   UNL     1      -1.210  11.568  21.355  0.00  0.00    +0.000 A 
ATOM     19  C   UNL     1      -1.036  10.889  22.552  0.00  0.00    +0.000 A 
ATOM     20  F   UNL     1      -1.826  11.179  23.594  0.00  0.00    +0.000 F 
ATOM     21  C   UNL     1      -0.046   9.922  22.667  0.00  0.00    +0.000 A 
ATOM     22  F   UNL     1       0.128   9.275  23.826  0.00  0.00    +0.000 F 
ATOM     23  C   UNL     1       0.777   9.618  21.583  0.00  0.00    +0.000 A 
ENDBRANCH  15  16
ENDBRANCH   4  13
BRANCH   1  24
ATOM     24  S   UNL     1       1.724   3.064  18.643  0.00  0.00    +0.000 S 
BRANCH  24  26
ATOM     25  C   UNL     1       1.371   2.786  21.347  0.00  0.00    +0.000 C 
ATOM     26  C   UNL     1       1.286   3.818  20.235  0.00  0.00    +0.000 C 
ENDBRANCH  24  26
ENDBRANCH   1  24
TORSDOF 4
ENDMDL
MODEL 2
REMARK VINA RESULT:      -8.0      0.599      1.344
REMARK  Name = 
REMARK  6 active torsions:
REMARK  status: ('A' for Active; 'I' for Inactive)
REMARK    1  A    between atoms: C_1  and  C_2
REMARK    2  A    between atoms: C_2  and  S_3
REMARK    3  A    between atoms: S_3  and  C_4
REMARK    4  A    between atoms: N_7  and  C_8
REMARK    5  A    between atoms: C_10  and  C_11
REMARK    6  A    between atoms: N_22  and  C_23
REMARK                            x       y       z     vdW  Elec       q    Type
REMARK                         _______ _______ _______ _____ _____    ______ ____
ROOT
ATOM      1  C   UNL     1       2.884   4.162  17.821  0.00  0.00    +0.000 A 
ATOM      2  N   UNL     1       2.534   5.434  18.148  0.00  0.00    +0.000 NA
ATOM      3  C   UNL     1       3.312   6.463  17.719  0.00  0.00    +0.000 A 
ATOM      4  N   UNL     1       3.067   7.805  18.044  0.00  0.00    +0.000 N 
ATOM      5  C   UNL     1       4.426   6.144  16.926  0.00  0.00    +0.000 A 
ATOM      6  N   UNL     1       5.378   6.918  16.316  0.00  0.00    +0.000 NA
ATOM      7  N   UNL     1       6.214   6.107  15.670  0.00  0.00    +0.000 NA
ATOM      8  N   UNL     1       5.790   4.843  15.885  0.00  0.00    +0.000 N 
ATOM      9  C   UNL     1       6.499   3.735  15.305  0.00  0.00    +0.000 C 
ATOM     10  C   UNL     1       4.668   4.811  16.662  0.00  0.00    +0.000 A 
ATOM     11  N   UNL     1       3.946   3.763  17.082  0.00  0.00    +0.000 NA
ATOM     12  H   UNL     1       3.690   8.446  17.561  0.00  0.00    +0.000 HD
ENDROOT
BRANCH   4  13
ATOM     13  C   UNL     1       1.857   8.311  18.670  0.00  0.00    +0.000 C 
ATOM     14  C   UNL     1       1.082   9.332  17.873  0.00  0.00    +0.000 C 
ATOM     15  C   UNL     1       1.709   9.728  19.185  0.00  0.00    +0.000 C 
BRANCH  15  16
ATOM     16  C   UNL     1       0.825  10.028  20.377  0.00  0.00    +0.000 A 
ATOM     17  C   UNL     1       0.916   9.305  21.586  0.00  0.00    +0.000 A 
ATOM     18  C   UNL     1       0.085   9.583  22.676  0.00  0.00    +0.000 A 
ATOM     19  C   UNL     1      -0.868  10.586  22.565  0.00  0.00    +0.000 A 
ATOM     20  F   UNL     1      -1.669  10.851  23.605  0.00  0.00    +0.000 F 
ATOM     21  C   UNL     1      -0.991  11.303  21.382  0.00  0.00    +0.000 A 
ATOM     22  F   UNL     1      -1.917  12.263  21.273  0.00  0.00    +0.000 F 
ATOM     23  C   UNL     1      -0.156  11.031  20.299  0.00  0.00    +0.000 A 
ENDBRANCH  15  16
ENDBRANCH   4  13
BRANCH   1  24
ATOM     24  S   UNL     1       1.832   2.854  18.412  0.00  0.00    +0.000 S 
BRANCH  24  26
ATOM     25  C   UNL     1       1.363   3.000  21.109  0.00  0.00    +0.000 C 
ATOM     26  C   UNL     1       1.081   3.736  19.810  0.00  0.00    +0.000 C 
ENDBRANCH  24  26
ENDBRANCH   1  24
TORSDOF 4
ENDMDL
MODEL 3
REMARK VINA RESULT:      -7.9      4.674      8.555
REMARK  Name = 
REMARK  6 active torsions:
REMARK  status: ('A' for Active; 'I' for Inactive)
REMARK    1  A    between atoms: C_1  and  C_2
REMARK    2  A    between atoms: C_2  and  S_3
REMARK    3  A    between atoms: S_3  and  C_4
REMARK    4  A    between atoms: N_7  and  C_8
REMARK    5  A    between atoms: C_10  and  C_11
REMARK    6  A    between atoms: N_22  and  C_23
REMARK                            x       y       z     vdW  Elec       q    Type
REMARK                         _______ _______ _______ _____ _____    ______ ____
ROOT
ATOM      1  C   UNL     1      -0.330  10.223  19.257  0.00  0.00    +0.000 A 
ATOM      2  N   UNL     1       0.582   9.215  19.278  0.00  0.00    +0.000 NA
ATOM      3  C   UNL     1       1.071   8.794  20.473  0.00  0.00    +0.000 A 
ATOM      4  N   UNL     1       2.050   7.797  20.600  0.00  0.00    +0.000 N 
ATOM      5  C   UNL     1       0.572   9.412  21.631  0.00  0.00    +0.000 A 
ATOM      6  N   UNL     1       0.817   9.213  22.964  0.00  0.00    +0.000 NA
ATOM      7  N   UNL     1       0.065  10.070  23.652  0.00  0.00    +0.000 NA
ATOM      8  N   UNL     1      -0.634  10.798  22.754  0.00  0.00    +0.000 N 
ATOM      9  C   UNL     1      -1.546  11.815  23.203  0.00  0.00    +0.000 C 
ATOM     10  C   UNL     1      -0.357  10.421  21.472  0.00  0.00    +0.000 A 
ATOM     11  N   UNL     1      -0.849  10.887  20.317  0.00  0.00    +0.000 NA
ATOM     12  H   UNL     1       2.228   7.542  21.568  0.00  0.00    +0.000 HD
ENDROOT
BRANCH   4  13
ATOM     13  C   UNL     1       2.509   6.927  19.530  0.00  0.00    +0.000 C 
ATOM     14  C   UNL     1       1.931   5.534  19.522  0.00  0.00    +0.000 C 
ATOM     15  C   UNL     1       3.408   5.728  19.750  0.00  0.00    +0.000 C 
BRANCH  15  16
ATOM     16  C   UNL     1       4.394   5.296  18.686  0.00  0.00    +0.000 A 
ATOM     17  C   UNL     1       3.985   4.896  17.396  0.00  0.00    +0.000 A 
ATOM     18  C   UNL     1       4.905   4.487  16.424  0.00  0.00    +0.000 A 
ATOM     19  C   UNL     1       6.256   4.457  16.738  0.00  0.00    +0.000 A 
ATOM     20  F   UNL     1       7.138   4.059  15.812  0.00  0.00    +0.000 F 
ATOM     21  C   UNL     1       6.685   4.829  18.005  0.00  0.00    +0.000 A 
ATOM     22  F   UNL     1       7.988   4.789  18.310  0.00  0.00    +0.000 F 
ATOM     23  C   UNL     1       5.769   5.245  18.970  0.00  0.00    +0.000 A 
ENDBRANCH  15  16
ENDBRANCH   4  13
BRANCH   1  24
ATOM     24  S   UNL     1      -0.933  10.738  17.664  0.00  0.00    +0.000 S 
BRANCH  24  26
ATOM     25  C   UNL     1      -3.453   9.662  17.589  0.00  0.00    +0.000 C 
ATOM     26  C   UNL     1      -2.693  10.880  18.086  0.00  0.00    +0.000 C 
ENDBRANCH  24  26
ENDBRANCH   1  24
TORSDOF 4
ENDMDL
MODEL 4
REMARK VINA RESULT:      -7.8      2.934      4.520
REMARK  Name = 
REMARK  6 active torsions:
REMARK  status: ('A' for Active; 'I' for Inactive)
REMARK    1  A    between atoms: C_1  and  C_2
REMARK    2  A    between atoms: C_2  and  S_3
REMARK    3  A    between atoms: S_3  and  C_4
REMARK    4  A    between atoms: N_7  and  C_8
REMARK    5  A    between atoms: C_10  and  C_11
REMARK    6  A    between atoms: N_22  and  C_23
REMARK                            x       y       z     vdW  Elec       q    Type
REMARK                         _______ _______ _______ _____ _____    ______ ____
ROOT
ATOM      1  C   UNL     1       3.958   5.931  18.252  0.00  0.00    +0.000 A 
ATOM      2  N   UNL     1       3.166   6.753  18.991  0.00  0.00    +0.000 NA
ATOM      3  C   UNL     1       2.484   6.237  20.047  0.00  0.00    +0.000 A 
ATOM      4  N   UNL     1       1.605   6.987  20.840  0.00  0.00    +0.000 N 
ATOM      5  C   UNL     1       2.668   4.874  20.332  0.00  0.00    +0.000 A 
ATOM      6  N   UNL     1       2.171   4.060  21.316  0.00  0.00    +0.000 NA
ATOM      7  N   UNL     1       2.675   2.841  21.133  0.00  0.00    +0.000 NA
ATOM      8  N   UNL     1       3.468   2.896  20.041  0.00  0.00    +0.000 N 
ATOM      9  C   UNL     1       4.162   1.719  19.593  0.00  0.00    +0.000 C 
ATOM     10  C   UNL     1       3.503   4.150  19.504  0.00  0.00    +0.000 A 
ATOM     11  N   UNL     1       4.177   4.608  18.440  0.00  0.00    +0.000 NA
ATOM     12  H   UNL     1       1.256   6.467  21.641  0.00  0.00    +0.000 HD
ENDROOT
BRANCH   4  13
ATOM     13  C   UNL     1       1.468   8.434  20.807  0.00  0.00    +0.000 C 
ATOM     14  C   UNL     1       0.969   9.076  22.079  0.00  0.00    +0.000 C 
ATOM     15  C   UNL     1       0.133   9.151  20.827  0.00  0.00    +0.000 C 
BRANCH  15  16
ATOM     16  C   UNL     1      -0.040  10.479  20.120  0.00  0.00    +0.000 A 
ATOM     17  C   UNL     1       0.577  11.663  20.576  0.00  0.00    +0.000 A 
ATOM     18  C   UNL     1       0.399  12.887  19.922  0.00  0.00    +0.000 A 
ATOM     19  C   UNL     1      -0.417  12.945  18.802  0.00  0.00    +0.000 A 
ATOM     20  F   UNL     1      -0.595  14.116  18.177  0.00  0.00    +0.000 F 
ATOM     21  C   UNL     1      -1.050  11.798  18.339  0.00  0.00    +0.000 A 
ATOM     22  F   UNL     1      -1.845  11.858  17.265  0.00  0.00    +0.000 F 
ATOM     23  C   UNL     1      -0.865  10.578  18.988  0.00  0.00    +0.000 A 
ENDBRANCH  15  16
ENDBRANCH   4  13
BRANCH   1  24
ATOM     24  S   UNL     1       4.825   6.660  16.879  0.00  0.00    +0.000 S 
BRANCH  24  26
ATOM     25  C   UNL     1       7.421   7.277  17.505  0.00  0.00    +0.000 C 
ATOM     26  C   UNL     1       6.497   6.089  17.295  0.00  0.00    +0.000 C 
ENDBRANCH  24  26
ENDBRANCH   1  24
TORSDOF 4
ENDMDL
MODEL 5
REMARK VINA RESULT:      -7.6      4.701      8.623
REMARK  Name = 
REMARK  6 active torsions:
REMARK  status: ('A' for Active; 'I' for Inactive)
REMARK    1  A    between atoms: C_1  and  C_2
REMARK    2  A    between atoms: C_2  and  S_3
REMARK    3  A    between atoms: S_3  and  C_4
REMARK    4  A    between atoms: N_7  and  C_8
REMARK    5  A    between atoms: C_10  and  C_11
REMARK    6  A    between atoms: N_22  and  C_23
REMARK                            x       y       z     vdW  Elec       q    Type
REMARK                         _______ _______ _______ _____ _____    ______ ____
ROOT
ATOM      1  C   UNL     1      -0.323  10.074  19.202  0.00  0.00    +0.000 A 
ATOM      2  N   UNL     1       0.644   9.119  19.232  0.00  0.00    +0.000 NA
ATOM      3  C   UNL     1       1.151   8.733  20.432  0.00  0.00    +0.000 A 
ATOM      4  N   UNL     1       2.184   7.794  20.568  0.00  0.00    +0.000 N 
ATOM      5  C   UNL     1       0.613   9.329  21.584  0.00  0.00    +0.000 A 
ATOM      6  N   UNL     1       0.865   9.153  22.919  0.00  0.00    +0.000 NA
ATOM      7  N   UNL     1       0.063   9.970  23.599  0.00  0.00    +0.000 NA
ATOM      8  N   UNL     1      -0.672  10.653  22.694  0.00  0.00    +0.000 N 
ATOM      9  C   UNL     1      -1.642  11.619  23.133  0.00  0.00    +0.000 C 
ATOM     10  C   UNL     1      -0.369  10.284  21.415  0.00  0.00    +0.000 A 
ATOM     11  N   UNL     1      -0.883  10.714  20.255  0.00  0.00    +0.000 NA
ATOM     12  H   UNL     1       2.372   7.555  21.538  0.00  0.00    +0.000 HD
ENDROOT
BRANCH   4  13
ATOM     13  C   UNL     1       2.695   6.945  19.505  0.00  0.00    +0.000 C 
ATOM     14  C   UNL     1       2.095   5.563  19.422  0.00  0.00    +0.000 C 
ATOM     15  C   UNL     1       3.558   5.724  19.748  0.00  0.00    +0.000 C 
BRANCH  15  16
ATOM     16  C   UNL     1       4.601   5.302  18.735  0.00  0.00    +0.000 A 
ATOM     17  C   UNL     1       5.984   5.335  19.017  0.00  0.00    +0.000 A 
ATOM     18  C   UNL     1       6.939   4.955  18.069  0.00  0.00    +0.000 A 
ATOM     19  C   UNL     1       6.522   4.547  16.810  0.00  0.00    +0.000 A 
ATOM     20  F   UNL     1       7.434   4.189  15.897  0.00  0.00    +0.000 F 
ATOM     21  C   UNL     1       5.168   4.520  16.499  0.00  0.00    +0.000 A 
ATOM     22  F   UNL     1       4.768   4.137  15.281  0.00  0.00    +0.000 F 
ATOM     23  C   UNL     1       4.216   4.892  17.448  0.00  0.00    +0.000 A 
ENDBRANCH  15  16
ENDBRANCH   4  13
BRANCH   1  24
ATOM     24  S   UNL     1      -0.949  10.545  17.603  0.00  0.00    +0.000 S 
BRANCH  24  26
ATOM     25  C   UNL     1      -3.523  10.478  16.665  0.00  0.00    +0.000 C 
ATOM     26  C   UNL     1      -2.720  10.343  17.947  0.00  0.00    +0.000 C 
ENDBRANCH  24  26
ENDBRANCH   1  24
TORSDOF 4
ENDMDL
MODEL 6
REMARK VINA RESULT:      -7.6      2.822      4.379
REMARK  Name = 
REMARK  6 active torsions:
REMARK  status: ('A' for Active; 'I' for Inactive)
REMARK    1  A    between atoms: C_1  and  C_2
REMARK    2  A    between atoms: C_2  and  S_3
REMARK    3  A    between atoms: S_3  and  C_4
REMARK    4  A    between atoms: N_7  and  C_8
REMARK    5  A    between atoms: C_10  and  C_11
REMARK    6  A    between atoms: N_22  and  C_23
REMARK                            x       y       z     vdW  Elec       q    Type
REMARK                         _______ _______ _______ _____ _____    ______ ____
ROOT
ATOM      1  C   UNL     1       3.945   5.894  18.222  0.00  0.00    +0.000 A 
ATOM      2  N   UNL     1       3.156   6.717  18.962  0.00  0.00    +0.000 NA
ATOM      3  C   UNL     1       2.490   6.207  20.030  0.00  0.00    +0.000 A 
ATOM      4  N   UNL     1       1.614   6.960  20.826  0.00  0.00    +0.000 N 
ATOM      5  C   UNL     1       2.687   4.849  20.327  0.00  0.00    +0.000 A 
ATOM      6  N   UNL     1       2.208   4.042  21.326  0.00  0.00    +0.000 NA
ATOM      7  N   UNL     1       2.719   2.825  21.150  0.00  0.00    +0.000 NA
ATOM      8  N   UNL     1       3.499   2.874  20.048  0.00  0.00    +0.000 N 
ATOM      9  C   UNL     1       4.195   1.698  19.604  0.00  0.00    +0.000 C 
ATOM     10  C   UNL     1       3.518   4.123  19.498  0.00  0.00    +0.000 A 
ATOM     11  N   UNL     1       4.176   4.574  18.421  0.00  0.00    +0.000 NA
ATOM     12  H   UNL     1       1.279   6.445  21.637  0.00  0.00    +0.000 HD
ENDROOT
BRANCH   4  13
ATOM     13  C   UNL     1       1.467   8.405  20.780  0.00  0.00    +0.000 C 
ATOM     14  C   UNL     1       1.033   9.063  22.067  0.00  0.00    +0.000 C 
ATOM     15  C   UNL     1       0.131   9.115  20.861  0.00  0.00    +0.000 C 
BRANCH  15  16
ATOM     16  C   UNL     1      -0.089  10.431  20.145  0.00  0.00    +0.000 A 
ATOM     17  C   UNL     1      -0.908  10.541  19.002  0.00  0.00    +0.000 A 
ATOM     18  C   UNL     1      -1.094  11.761  18.342  0.00  0.00    +0.000 A 
ATOM     19  C   UNL     1      -0.443  12.893  18.812  0.00  0.00    +0.000 A 
ATOM     20  F   UNL     1      -0.614  14.060  18.179  0.00  0.00    +0.000 F 
ATOM     21  C   UNL     1       0.382  12.810  19.926  0.00  0.00    +0.000 A 
ATOM     22  F   UNL     1       1.016  13.901  20.372  0.00  0.00    +0.000 F 
ATOM     23  C   UNL     1       0.559  11.596  20.588  0.00  0.00    +0.000 A 
ENDBRANCH  15  16
ENDBRANCH   4  13
BRANCH   1  24
ATOM     24  S   UNL     1       4.791   6.614  16.831  0.00  0.00    +0.000 S 
BRANCH  24  26
ATOM     25  C   UNL     1       7.386   7.163  17.520  0.00  0.00    +0.000 C 
ATOM     26  C   UNL     1       6.460   6.002  17.197  0.00  0.00    +0.000 C 
ENDBRANCH  24  26
ENDBRANCH   1  24
TORSDOF 4
ENDMDL
MODEL 7
REMARK VINA RESULT:      -7.5      4.785      8.553
REMARK  Name = 
REMARK  6 active torsions:
REMARK  status: ('A' for Active; 'I' for Inactive)
REMARK    1  A    between atoms: C_1  and  C_2
REMARK    2  A    between atoms: C_2  and  S_3
REMARK    3  A    between atoms: S_3  and  C_4
REMARK    4  A    between atoms: N_7  and  C_8
REMARK    5  A    between atoms: C_10  and  C_11
REMARK    6  A    between atoms: N_22  and  C_23
REMARK                            x       y       z     vdW  Elec       q    Type
REMARK                         _______ _______ _______ _____ _____    ______ ____
ROOT
ATOM      1  C   UNL     1      -0.439  10.351  19.245  0.00  0.00    +0.000 A 
ATOM      2  N   UNL     1       0.429   9.305  19.235  0.00  0.00    +0.000 NA
ATOM      3  C   UNL     1       0.934   8.855  20.414  0.00  0.00    +0.000 A 
ATOM      4  N   UNL     1       1.872   7.818  20.508  0.00  0.00    +0.000 N 
ATOM      5  C   UNL     1       0.494   9.487  21.588  0.00  0.00    +0.000 A 
ATOM      6  N   UNL     1       0.769   9.271  22.913  0.00  0.00    +0.000 NA
ATOM      7  N   UNL     1       0.074  10.155  23.626  0.00  0.00    +0.000 NA
ATOM      8  N   UNL     1      -0.618  10.918  22.752  0.00  0.00    +0.000 N 
ATOM      9  C   UNL     1      -1.473  11.970  23.231  0.00  0.00    +0.000 C 
ATOM     10  C   UNL     1      -0.394  10.537  21.460  0.00  0.00    +0.000 A 
ATOM     11  N   UNL     1      -0.899  11.030  20.322  0.00  0.00    +0.000 NA
ATOM     12  H   UNL     1       2.066   7.549  21.469  0.00  0.00    +0.000 HD
ENDROOT
BRANCH   4  13
ATOM     13  C   UNL     1       2.263   6.935  19.420  0.00  0.00    +0.000 C 
ATOM     14  C   UNL     1       2.324   5.465  19.757  0.00  0.00    +0.000 C 
ATOM     15  C   UNL     1       3.585   6.197  19.372  0.00  0.00    +0.000 C 
BRANCH  15  16
ATOM     16  C   UNL     1       4.252   5.895  18.048  0.00  0.00    +0.000 A 
ATOM     17  C   UNL     1       4.587   6.906  17.123  0.00  0.00    +0.000 A 
ATOM     18  C   UNL     1       5.193   6.612  15.896  0.00  0.00    +0.000 A 
ATOM     19  C   UNL     1       5.459   5.290  15.569  0.00  0.00    +0.000 A 
ATOM     20  F   UNL     1       6.033   5.006  14.393  0.00  0.00    +0.000 F 
ATOM     21  C   UNL     1       5.125   4.273  16.454  0.00  0.00    +0.000 A 
ATOM     22  F   UNL     1       5.373   2.998  16.133  0.00  0.00    +0.000 F 
ATOM     23  C   UNL     1       4.529   4.567  17.680  0.00  0.00    +0.000 A 
ENDBRANCH  15  16
ENDBRANCH   4  13
BRANCH   1  24
ATOM     24  S   UNL     1      -1.065  10.900  17.672  0.00  0.00    +0.000 S 
BRANCH  24  26
ATOM     25  C   UNL     1      -3.676  10.069  17.724  0.00  0.00    +0.000 C 
ATOM     26  C   UNL     1      -2.782  11.213  18.171  0.00  0.00    +0.000 C 
ENDBRANCH  24  26
ENDBRANCH   1  24
TORSDOF 4
ENDMDL
MODEL 8
REMARK VINA RESULT:      -7.4      4.794      8.588
REMARK  Name = 
REMARK  6 active torsions:
REMARK  status: ('A' for Active; 'I' for Inactive)
REMARK    1  A    between atoms: C_1  and  C_2
REMARK    2  A    between atoms: C_2  and  S_3
REMARK    3  A    between atoms: S_3  and  C_4
REMARK    4  A    between atoms: N_7  and  C_8
REMARK    5  A    between atoms: C_10  and  C_11
REMARK    6  A    between atoms: N_22  and  C_23
REMARK                            x       y       z     vdW  Elec       q    Type
REMARK                         _______ _______ _______ _____ _____    ______ ____
ROOT
ATOM      1  C   UNL     1      -1.425  10.508  17.863  0.00  0.00    +0.000 A 
ATOM      2  N   UNL     1      -0.272   9.792  17.780  0.00  0.00    +0.000 NA
ATOM      3  C   UNL     1       0.855  10.287  18.356  0.00  0.00    +0.000 A 
ATOM      4  N   UNL     1       2.103   9.652  18.285  0.00  0.00    +0.000 N 
ATOM      5  C   UNL     1       0.748  11.510  19.039  0.00  0.00    +0.000 A 
ATOM      6  N   UNL     1       1.656  12.259  19.741  0.00  0.00    +0.000 NA
ATOM      7  N   UNL     1       1.028  13.339  20.200  0.00  0.00    +0.000 NA
ATOM      8  N   UNL     1      -0.254  13.266  19.780  0.00  0.00    +0.000 N 
ATOM      9  C   UNL     1      -1.188  14.302  20.127  0.00  0.00    +0.000 C 
ATOM     10  C   UNL     1      -0.483  12.135  19.051  0.00  0.00    +0.000 A 
ATOM     11  N   UNL     1      -1.613  11.699  18.479  0.00  0.00    +0.000 NA
ATOM     12  H   UNL     1       2.811  10.112  18.851  0.00  0.00    +0.000 HD
ENDROOT
BRANCH   4  13
ATOM     13  C   UNL     1       2.332   8.299  17.804  0.00  0.00    +0.000 C 
ATOM     14  C   UNL     1       2.004   7.192  18.775  0.00  0.00    +0.000 C 
ATOM     15  C   UNL     1       3.429   7.397  18.331  0.00  0.00    +0.000 C 
BRANCH  15  16
ATOM     16  C   UNL     1       4.087   6.374  17.429  0.00  0.00    +0.000 A 
ATOM     17  C   UNL     1       4.849   6.742  16.300  0.00  0.00    +0.000 A 
ATOM     18  C   UNL     1       5.441   5.787  15.466  0.00  0.00    +0.000 A 
ATOM     19  C   UNL     1       5.264   4.439  15.745  0.00  0.00    +0.000 A 
ATOM     20  F   UNL     1       5.825   3.522  14.946  0.00  0.00    +0.000 F 
ATOM     21  C   UNL     1       4.506   4.048  16.841  0.00  0.00    +0.000 A 
ATOM     22  F   UNL     1       4.328   2.748  17.103  0.00  0.00    +0.000 F 
ATOM     23  C   UNL     1       3.923   5.001  17.675  0.00  0.00    +0.000 A 
ENDBRANCH  15  16
ENDBRANCH   4  13
BRANCH   1  24
ATOM     24  S   UNL     1      -2.868   9.813  17.087  0.00  0.00    +0.000 S 
BRANCH  24  26
ATOM     25  C   UNL     1      -3.380  10.114  14.411  0.00  0.00    +0.000 C 
ATOM     26  C   UNL     1      -2.928  10.897  15.632  0.00  0.00    +0.000 C 
ENDBRANCH  24  26
ENDBRANCH   1  24
TORSDOF 4
ENDMDL
MODEL 9
REMARK VINA RESULT:      -7.4      3.015      4.544
REMARK  Name = 
REMARK  6 active torsions:
REMARK  status: ('A' for Active; 'I' for Inactive)
REMARK    1  A    between atoms: C_1  and  C_2
REMARK    2  A    between atoms: C_2  and  S_3
REMARK    3  A    between atoms: S_3  and  C_4
REMARK    4  A    between atoms: N_7  and  C_8
REMARK    5  A    between atoms: C_10  and  C_11
REMARK    6  A    between atoms: N_22  and  C_23
REMARK                            x       y       z     vdW  Elec       q    Type
REMARK                         _______ _______ _______ _____ _____    ______ ____
ROOT
ATOM      1  C   UNL     1       3.788   5.977  18.192  0.00  0.00    +0.000 A 
ATOM      2  N   UNL     1       3.072   6.757  19.045  0.00  0.00    +0.000 NA
ATOM      3  C   UNL     1       2.259   6.163  19.956  0.00  0.00    +0.000 A 
ATOM      4  N   UNL     1       1.442   6.877  20.845  0.00  0.00    +0.000 N 
ATOM      5  C   UNL     1       2.233   4.759  19.983  0.00  0.00    +0.000 A 
ATOM      6  N   UNL     1       1.567   3.862  20.775  0.00  0.00    +0.000 NA
ATOM      7  N   UNL     1       1.908   2.636  20.382  0.00  0.00    +0.000 NA
ATOM      8  N   UNL     1       2.770   2.772  19.351  0.00  0.00    +0.000 N 
ATOM      9  C   UNL     1       3.321   1.608  18.712  0.00  0.00    +0.000 C 
ATOM     10  C   UNL     1       3.012   4.084  19.064  0.00  0.00    +0.000 A 
ATOM     11  N   UNL     1       3.809   4.624  18.133  0.00  0.00    +0.000 NA
ATOM     12  H   UNL     1       0.974   6.276  21.518  0.00  0.00    +0.000 HD
ENDROOT
BRANCH   4  13
ATOM     13  C   UNL     1       1.509   8.310  21.083  0.00  0.00    +0.000 C 
ATOM     14  C   UNL     1       0.538   8.852  22.103  0.00  0.00    +0.000 C 
ATOM     15  C   UNL     1       0.426   9.282  20.663  0.00  0.00    +0.000 C 
BRANCH  15  16
ATOM     16  C   UNL     1       0.772  10.703  20.276  0.00  0.00    +0.000 A 
ATOM     17  C   UNL     1       0.395  11.813  21.061  0.00  0.00    +0.000 A 
ATOM     18  C   UNL     1       0.710  13.124  20.687  0.00  0.00    +0.000 A 
ATOM     19  C   UNL     1       1.399  13.344  19.503  0.00  0.00    +0.000 A 
ATOM     20  F   UNL     1       1.697  14.598  19.138  0.00  0.00    +0.000 F 
ATOM     21  C   UNL     1       1.769  12.272  18.702  0.00  0.00    +0.000 A 
ATOM     22  F   UNL     1       2.425  12.487  17.555  0.00  0.00    +0.000 F 
ATOM     23  C   UNL     1       1.462  10.966  19.080  0.00  0.00    +0.000 A 
ENDBRANCH  15  16
ENDBRANCH   4  13
BRANCH   1  24
ATOM     24  S   UNL     1       4.834   6.808  17.016  0.00  0.00    +0.000 S 
BRANCH  24  26
ATOM     25  C   UNL     1       7.464   7.354  17.566  0.00  0.00    +0.000 C 
ATOM     26  C   UNL     1       6.438   6.235  17.645  0.00  0.00    +0.000 C 
ENDBRANCH  24  26
ENDBRANCH   1  24
TORSDOF 4
ENDMDL
