MODEL 1
REMARK VINA RESULT:      -7.8      0.000      0.000
REMARK  Name = 
REMARK  9 active torsions:
REMARK  status: ('A' for Active; 'I' for Inactive)
REMARK    1  A    between atoms: O_1  and  C_2
REMARK    2  A    between atoms: C_5  and  C_6
REMARK    3  A    between atoms: C_7  and  C_8
REMARK    4  A    between atoms: C_10  and  O_11
REMARK    5  A    between atoms: C_13  and  O_14
REMARK    6  A    between atoms: C_16  and  C_17
REMARK    7  A    between atoms: C_17  and  C_18
REMARK    8  A    between atoms: C_26  and  O_27
REMARK    9  A    between atoms: C_29  and  O_30
REMARK                            x       y       z     vdW  Elec       q    Type
REMARK                         _______ _______ _______ _____ _____    ______ ____
ROOT
ATOM      1  C   UNL     1      -0.335  12.829  20.483  0.00  0.00    +0.000 C 
ATOM      2  C   UNL     1       1.082  13.274  20.160  0.00  0.00    +0.000 C 
ATOM      3  C   UNL     1       1.333  14.574  19.850  0.00  0.00    +0.000 C 
ATOM      4  C   UNL     1       2.433  13.941  19.580  0.00  0.00    +0.000 A 
ATOM      5  C   UNL     1       3.297  13.887  18.291  0.00  0.00    +0.000 A 
ATOM      6  C   UNL     1       4.553  14.422  18.308  0.00  0.00    +0.000 A 
ATOM      7  C   UNL     1       4.605  15.167  19.402  0.00  0.00    +0.000 A 
ATOM      8  C   UNL     1       3.199  14.813  20.607  0.00  0.00    +0.000 A 
ATOM      9  C   UNL     1       1.488  13.980  20.946  0.00  0.00    +0.000 A 
ENDROOT
BRANCH   1  13
ATOM     10  C   UNL     1       1.392   8.587  20.602  0.00  0.00    +0.000 A 
ATOM     11  C   UNL     1       0.796   9.050  21.709  0.00  0.00    +0.000 A 
ATOM     12  C   UNL     1      -0.110  10.012  21.397  0.00  0.00    +0.000 A 
ATOM     13  C   UNL     1      -0.136  10.846  20.218  0.00  0.00    +0.000 A 
ATOM     14  C   UNL     1       0.652  10.471  19.169  0.00  0.00    +0.000 A 
ATOM     15  C   UNL     1       1.319   9.269  19.359  0.00  0.00    +0.000 A 
BRANCH  10  16
ATOM     16  O   UNL     1       1.979   7.374  20.700  0.00  0.00    +0.000 OA
ATOM     17  H   UNL     1       2.930   7.564  20.812  0.00  0.00    +0.000 HD
ENDBRANCH  10  16
ENDBRANCH   1  13
BRANCH   2  18
ATOM     18  C   UNL     1      -0.335  12.829  20.483  0.00  0.00    +0.000 A 
ATOM     19  C   UNL     1      -1.608  12.606  19.113  0.00  0.00    +0.000 A 
ATOM     20  C   UNL     1      -3.030  12.320  19.550  0.00  0.00    +0.000 A 
ATOM     21  C   UNL     1      -3.378  12.078  21.171  0.00  0.00    +0.000 A 
ATOM     22  C   UNL     1      -2.300  12.400  22.457  0.00  0.00    +0.000 A 
ATOM     23  C   UNL     1      -0.848  12.953  22.305  0.00  0.00    +0.000 A 
BRANCH  20  24
ATOM     24  O   UNL     1      -3.978  12.558  18.582  0.00  0.00    +0.000 OA
ATOM     25  H   UNL     1      -3.929  11.751  18.018  0.00  0.00    +0.000 HD
ENDBRANCH  20  24
BRANCH  22  26
ATOM     26  O   UNL     1      -2.421  11.656  23.647  0.00  0.00    +0.000 OA
ATOM     27  H   UNL     1      -2.052  10.762  23.565  0.00  0.00    +0.000 HD
ENDBRANCH  22  26
ENDBRANCH   2  18
BRANCH   6  28
ATOM     28  O   UNL     1       5.574  13.985  17.556  0.00  0.00    +0.000 OA
ATOM     29  H   UNL     1       5.222  13.211  17.063  0.00  0.00    +0.000 HD
ENDBRANCH   6  28
BRANCH   8  30
ATOM     30  O   UNL     1       3.712  16.524  20.905  0.00  0.00    +0.000 OA
ATOM     31  H   UNL     1       3.914  17.199  20.112  0.00  0.00    +0.000 HD
ENDBRANCH   8  30
BRANCH   3  32
ATOM     32  C   UNL     1       0.178  15.833  19.646  0.00  0.00    +0.000 C 
BRANCH  32  33
ATOM     33  C   UNL     1       0.468  16.927  18.564  0.00  0.00    +0.000 A 
ATOM     34  C   UNL     1      -0.512  17.870  18.368  0.00  0.00    +0.000 A 
ATOM     35  C   UNL     1      -0.631  18.494  17.062  0.00  0.00    +0.000 A 
ATOM     36  C   UNL     1       0.358  18.613  16.145  0.00  0.00    +0.000 A 
ATOM     37  C   UNL     1       1.516  18.215  16.696  0.00  0.00    +0.000 A 
ATOM     38  C   UNL     1       1.576  17.416  17.900  0.00  0.00    +0.000 A 
ENDBRANCH  32  33
ENDBRANCH   3  32
TORSDOF 9
ENDMDL
MODEL 2
REMARK VINA RESULT:      -7.5      5.040      9.609
REMARK  Name = 
REMARK  9 active torsions:
REMARK  status: ('A' for Active; 'I' for Inactive)
REMARK    1  A    between atoms: O_1  and  C_2
REMARK    2  A    between atoms: C_5  and  C_6
REMARK    3  A    between atoms: C_7  and  C_8
REMARK    4  A    between atoms: C_10  and  O_11
REMARK    5  A    between atoms: C_13  and  O_14
REMARK    6  A    between atoms: C_16  and  C_17
REMARK    7  A    between atoms: C_17  and  C_18
REMARK    8  A    between atoms: C_26  and  O_27
REMARK    9  A    between atoms: C_29  and  O_30
REMARK                            x       y       z     vdW  Elec       q    Type
REMARK                         _______ _______ _______ _____ _____    ______ ____
ROOT
ATOM      1  C   UNL     1       7.571  14.872  20.994  0.00  0.00    +0.000 C 
ATOM      2  C   UNL     1       7.184  14.111  22.252  0.00  0.00    +0.000 C 
ATOM      3  C   UNL     1       8.090  13.302  22.863  0.00  0.00    +0.000 C 
ATOM      4  C   UNL     1       6.959  13.050  23.449  0.00  0.00    +0.000 A 
ATOM      5  C   UNL     1       6.204  11.716  23.694  0.00  0.00    +0.000 A 
ATOM      6  C   UNL     1       6.049  11.265  24.974  0.00  0.00    +0.000 A 
ATOM      7  C   UNL     1       6.897  11.973  25.704  0.00  0.00    +0.000 A 
ATOM      8  C   UNL     1       7.553  13.497  24.808  0.00  0.00    +0.000 A 
ATOM      9  C   UNL     1       7.758  14.478  23.155  0.00  0.00    +0.000 A 
ENDROOT
BRANCH   1  13
ATOM     10  C   UNL     1       3.287  16.479  20.745  0.00  0.00    +0.000 A 
ATOM     11  C   UNL     1       4.291  17.347  20.565  0.00  0.00    +0.000 A 
ATOM     12  C   UNL     1       5.403  16.707  20.123  0.00  0.00    +0.000 A 
ATOM     13  C   UNL     1       5.740  15.312  20.288  0.00  0.00    +0.000 A 
ATOM     14  C   UNL     1       4.741  14.471  20.685  0.00  0.00    +0.000 A 
ATOM     15  C   UNL     1       3.497  15.075  20.794  0.00  0.00    +0.000 A 
BRANCH  10  16
ATOM     16  O   UNL     1       2.040  17.000  20.765  0.00  0.00    +0.000 OA
ATOM     17  H   UNL     1       1.590  16.603  19.996  0.00  0.00    +0.000 HD
ENDBRANCH  10  16
ENDBRANCH   1  13
BRANCH   2  18
ATOM     18  C   UNL     1       7.571  14.872  20.994  0.00  0.00    +0.000 A 
ATOM     19  C   UNL     1       7.776  13.973  19.351  0.00  0.00    +0.000 A 
ATOM     20  C   UNL     1       8.319  14.788  18.197  0.00  0.00    +0.000 A 
ATOM     21  C   UNL     1       8.572  16.434  18.376  0.00  0.00    +0.000 A 
ATOM     22  C   UNL     1       8.533  17.269  19.867  0.00  0.00    +0.000 A 
ATOM     23  C   UNL     1       8.251  16.622  21.260  0.00  0.00    +0.000 A 
BRANCH  20  24
ATOM     24  O   UNL     1       8.826  14.036  17.162  0.00  0.00    +0.000 OA
ATOM     25  H   UNL     1       8.857  14.679  16.415  0.00  0.00    +0.000 HD
ENDBRANCH  20  24
BRANCH  22  26
ATOM     26  O   UNL     1       8.171  18.630  19.874  0.00  0.00    +0.000 OA
ATOM     27  H   UNL     1       7.586  18.862  19.136  0.00  0.00    +0.000 HD
ENDBRANCH  22  26
ENDBRANCH   2  18
BRANCH   6  28
ATOM     28  O   UNL     1       5.015  10.523  25.396  0.00  0.00    +0.000 OA
ATOM     29  H   UNL     1       4.433  11.143  25.890  0.00  0.00    +0.000 HD
ENDBRANCH   6  28
BRANCH   8  30
ATOM     30  O   UNL     1       8.814  13.032  26.021  0.00  0.00    +0.000 OA
ATOM     31  H   UNL     1       9.735  12.589  25.736  0.00  0.00    +0.000 HD
ENDBRANCH   8  30
BRANCH   3  32
ATOM     32  C   UNL     1       9.670  12.907  22.306  0.00  0.00    +0.000 C 
BRANCH  32  33
ATOM     33  C   UNL     1       9.795  11.952  21.072  0.00  0.00    +0.000 A 
ATOM     34  C   UNL     1      10.930  12.084  20.309  0.00  0.00    +0.000 A 
ATOM     35  C   UNL     1      10.869  11.739  18.899  0.00  0.00    +0.000 A 
ATOM     36  C   UNL     1       9.987  10.886  18.327  0.00  0.00    +0.000 A 
ATOM     37  C   UNL     1       9.280  10.275  19.292  0.00  0.00    +0.000 A 
ATOM     38  C   UNL     1       9.211  10.776  20.646  0.00  0.00    +0.000 A 
ENDBRANCH  32  33
ENDBRANCH   3  32
TORSDOF 9
ENDMDL
MODEL 3
REMARK VINA RESULT:      -7.4      3.018      5.201
REMARK  Name = 
REMARK  9 active torsions:
REMARK  status: ('A' for Active; 'I' for Inactive)
REMARK    1  A    between atoms: O_1  and  C_2
REMARK    2  A    between atoms: C_5  and  C_6
REMARK    3  A    between atoms: C_7  and  C_8
REMARK    4  A    between atoms: C_10  and  O_11
REMARK    5  A    between atoms: C_13  and  O_14
REMARK    6  A    between atoms: C_16  and  C_17
REMARK    7  A    between atoms: C_17  and  C_18
REMARK    8  A    between atoms: C_26  and  O_27
REMARK    9  A    between atoms: C_29  and  O_30
REMARK                            x       y       z     vdW  Elec       q    Type
REMARK                         _______ _______ _______ _____ _____    ______ ____
ROOT
ATOM      1  C   UNL     1      -3.877  13.327  21.242  0.00  0.00    +0.000 C 
ATOM      2  C   UNL     1      -2.769  12.414  20.742  0.00  0.00    +0.000 C 
ATOM      3  C   UNL     1      -1.468  12.781  20.885  0.00  0.00    +0.000 C 
ATOM      4  C   UNL     1      -1.444  11.737  20.115  0.00  0.00    +0.000 A 
ATOM      5  C   UNL     1      -0.806  11.504  18.719  0.00  0.00    +0.000 A 
ATOM      6  C   UNL     1       0.229  10.621  18.599  0.00  0.00    +0.000 A 
ATOM      7  C   UNL     1       0.650  10.399  19.835  0.00  0.00    +0.000 A 
ATOM      8  C   UNL     1      -0.571  10.983  21.149  0.00  0.00    +0.000 A 
ATOM      9  C   UNL     1      -2.151  12.003  21.596  0.00  0.00    +0.000 A 
ENDROOT
BRANCH   1  13
ATOM     10  C   UNL     1      -6.865  10.340  19.469  0.00  0.00    +0.000 A 
ATOM     11  C   UNL     1      -7.034  10.710  20.746  0.00  0.00    +0.000 A 
ATOM     12  C   UNL     1      -6.484  11.932  20.966  0.00  0.00    +0.000 A 
ATOM     13  C   UNL     1      -5.430  12.570  20.213  0.00  0.00    +0.000 A 
ATOM     14  C   UNL     1      -5.123  12.040  18.994  0.00  0.00    +0.000 A 
ATOM     15  C   UNL     1      -5.942  10.989  18.607  0.00  0.00    +0.000 A 
BRANCH  10  16
ATOM     16  O   UNL     1      -7.700   9.384  19.007  0.00  0.00    +0.000 OA
ATOM     17  H   UNL     1      -8.527   9.510  19.510  0.00  0.00    +0.000 HD
ENDBRANCH  10  16
ENDBRANCH   1  13
BRANCH   2  18
ATOM     18  C   UNL     1      -3.877  13.327  21.242  0.00  0.00    +0.000 A 
ATOM     19  C   UNL     1      -4.366  14.865  20.269  0.00  0.00    +0.000 A 
ATOM     20  C   UNL     1      -5.363  15.795  20.928  0.00  0.00    +0.000 A 
ATOM     21  C   UNL     1      -6.078  15.365  22.381  0.00  0.00    +0.000 A 
ATOM     22  C   UNL     1      -5.577  14.061  23.366  0.00  0.00    +0.000 A 
ATOM     23  C   UNL     1      -4.396  13.089  23.050  0.00  0.00    +0.000 A 
BRANCH  20  24
ATOM     24  O   UNL     1      -5.390  17.064  20.399  0.00  0.00    +0.000 OA
ATOM     25  H   UNL     1      -4.542  17.455  20.716  0.00  0.00    +0.000 HD
ENDBRANCH  20  24
BRANCH  22  26
ATOM     26  O   UNL     1      -6.527  13.429  24.192  0.00  0.00    +0.000 OA
ATOM     27  H   UNL     1      -6.183  12.620  24.602  0.00  0.00    +0.000 HD
ENDBRANCH  22  26
ENDBRANCH   2  18
BRANCH   6  28
ATOM     28  O   UNL     1       0.491   9.906  17.496  0.00  0.00    +0.000 OA
ATOM     29  H   UNL     1       1.278  10.333  17.089  0.00  0.00    +0.000 HD
ENDBRANCH   6  28
BRANCH   8  30
ATOM     30  O   UNL     1       1.069  11.029  21.915  0.00  0.00    +0.000 OA
ATOM     31  H   UNL     1       1.659  11.910  21.933  0.00  0.00    +0.000 HD
ENDBRANCH   8  30
BRANCH   3  32
ATOM     32  C   UNL     1      -0.873  14.282  21.481  0.00  0.00    +0.000 C 
BRANCH  32  33
ATOM     33  C   UNL     1      -0.854  15.505  20.503  0.00  0.00    +0.000 A 
ATOM     34  C   UNL     1      -1.331  16.694  20.999  0.00  0.00    +0.000 A 
ATOM     35  C   UNL     1      -1.915  17.652  20.078  0.00  0.00    +0.000 A 
ATOM     36  C   UNL     1      -1.657  17.740  18.752  0.00  0.00    +0.000 A 
ATOM     37  C   UNL     1      -0.645  16.912  18.448  0.00  0.00    +0.000 A 
ATOM     38  C   UNL     1      -0.227  15.835  19.318  0.00  0.00    +0.000 A 
ENDBRANCH  32  33
ENDBRANCH   3  32
TORSDOF 9
ENDMDL
MODEL 4
REMARK VINA RESULT:      -7.4      3.756      6.980
REMARK  Name = 
REMARK  9 active torsions:
REMARK  status: ('A' for Active; 'I' for Inactive)
REMARK    1  A    between atoms: O_1  and  C_2
REMARK    2  A    between atoms: C_5  and  C_6
REMARK    3  A    between atoms: C_7  and  C_8
REMARK    4  A    between atoms: C_10  and  O_11
REMARK    5  A    between atoms: C_13  and  O_14
REMARK    6  A    between atoms: C_16  and  C_17
REMARK    7  A    between atoms: C_17  and  C_18
REMARK    8  A    between atoms: C_26  and  O_27
REMARK    9  A    between atoms: C_29  and  O_30
REMARK                            x       y       z     vdW  Elec       q    Type
REMARK                         _______ _______ _______ _____ _____    ______ ____
ROOT
ATOM      1  C   UNL     1      -4.601  14.046  21.969  0.00  0.00    +0.000 C 
ATOM      2  C   UNL     1      -3.230  13.610  21.478  0.00  0.00    +0.000 C 
ATOM      3  C   UNL     1      -3.123  12.766  20.417  0.00  0.00    +0.000 C 
ATOM      4  C   UNL     1      -1.926  12.845  20.912  0.00  0.00    +0.000 A 
ATOM      5  C   UNL     1      -0.931  11.745  21.372  0.00  0.00    +0.000 A 
ATOM      6  C   UNL     1       0.234  11.569  20.681  0.00  0.00    +0.000 A 
ATOM      7  C   UNL     1       0.070  12.222  19.540  0.00  0.00    +0.000 A 
ATOM      8  C   UNL     1      -1.397  13.407  19.569  0.00  0.00    +0.000 A 
ATOM      9  C   UNL     1      -3.008  14.017  20.446  0.00  0.00    +0.000 A 
ENDROOT
BRANCH   1  13
ATOM     10  C   UNL     1      -2.460  16.252  25.366  0.00  0.00    +0.000 A 
ATOM     11  C   UNL     1      -3.349  16.940  24.637  0.00  0.00    +0.000 A 
ATOM     12  C   UNL     1      -4.264  16.103  24.085  0.00  0.00    +0.000 A 
ATOM     13  C   UNL     1      -4.113  14.693  23.808  0.00  0.00    +0.000 A 
ATOM     14  C   UNL     1      -3.063  14.050  24.397  0.00  0.00    +0.000 A 
ATOM     15  C   UNL     1      -2.321  14.842  25.262  0.00  0.00    +0.000 A 
BRANCH  10  16
ATOM     16  O   UNL     1      -1.773  16.955  26.294  0.00  0.00    +0.000 OA
ATOM     17  H   UNL     1      -2.458  17.360  26.858  0.00  0.00    +0.000 HD
ENDBRANCH  10  16
ENDBRANCH   1  13
BRANCH   2  18
ATOM     18  C   UNL     1      -4.601  14.046  21.969  0.00  0.00    +0.000 A 
ATOM     19  C   UNL     1      -5.657  12.891  23.018  0.00  0.00    +0.000 A 
ATOM     20  C   UNL     1      -7.068  13.351  23.320  0.00  0.00    +0.000 A 
ATOM     21  C   UNL     1      -7.573  14.877  22.849  0.00  0.00    +0.000 A 
ATOM     22  C   UNL     1      -6.713  15.903  21.786  0.00  0.00    +0.000 A 
ATOM     23  C   UNL     1      -5.342  15.569  21.116  0.00  0.00    +0.000 A 
BRANCH  20  24
ATOM     24  O   UNL     1      -7.917  12.347  23.724  0.00  0.00    +0.000 OA
ATOM     25  H   UNL     1      -8.785  12.625  23.349  0.00  0.00    +0.000 HD
ENDBRANCH  20  24
BRANCH  22  26
ATOM     26  O   UNL     1      -6.873  17.297  21.910  0.00  0.00    +0.000 OA
ATOM     27  H   UNL     1      -6.500  17.642  22.736  0.00  0.00    +0.000 HD
ENDBRANCH  22  26
ENDBRANCH   2  18
BRANCH   6  28
ATOM     28  O   UNL     1       1.377  11.126  21.223  0.00  0.00    +0.000 OA
ATOM     29  H   UNL     1       1.152  10.890  22.151  0.00  0.00    +0.000 HD
ENDBRANCH   6  28
BRANCH   8  30
ATOM     30  O   UNL     1      -1.151  12.935  17.838  0.00  0.00    +0.000 OA
ATOM     31  H   UNL     1      -0.674  13.576  17.140  0.00  0.00    +0.000 HD
ENDBRANCH   8  30
BRANCH   3  32
ATOM     32  C   UNL     1      -4.408  11.984  19.581  0.00  0.00    +0.000 C 
BRANCH  32  33
ATOM     33  C   UNL     1      -4.100  11.369  18.174  0.00  0.00    +0.000 A 
ATOM     34  C   UNL     1      -3.418  10.176  18.164  0.00  0.00    +0.000 A 
ATOM     35  C   UNL     1      -2.582   9.859  17.019  0.00  0.00    +0.000 A 
ATOM     36  C   UNL     1      -2.724  10.357  15.768  0.00  0.00    +0.000 A 
ATOM     37  C   UNL     1      -3.865  11.062  15.705  0.00  0.00    +0.000 A 
ATOM     38  C   UNL     1      -4.560  11.532  16.883  0.00  0.00    +0.000 A 
ENDBRANCH  32  33
ENDBRANCH   3  32
TORSDOF 9
ENDMDL
MODEL 5
REMARK VINA RESULT:      -7.3      2.311      6.836
REMARK  Name = 
REMARK  9 active torsions:
REMARK  status: ('A' for Active; 'I' for Inactive)
REMARK    1  A    between atoms: O_1  and  C_2
REMARK    2  A    between atoms: C_5  and  C_6
REMARK    3  A    between atoms: C_7  and  C_8
REMARK    4  A    between atoms: C_10  and  O_11
REMARK    5  A    between atoms: C_13  and  O_14
REMARK    6  A    between atoms: C_16  and  C_17
REMARK    7  A    between atoms: C_17  and  C_18
REMARK    8  A    between atoms: C_26  and  O_27
REMARK    9  A    between atoms: C_29  and  O_30
REMARK                            x       y       z     vdW  Elec       q    Type
REMARK                         _______ _______ _______ _____ _____    ______ ____
ROOT
ATOM      1  C   UNL     1       1.117  15.053  19.337  0.00  0.00    +0.000 C 
ATOM      2  C   UNL     1       0.937  13.745  20.092  0.00  0.00    +0.000 C 
ATOM      3  C   UNL     1       0.202  12.740  19.546  0.00  0.00    +0.000 C 
ATOM      4  C   UNL     1       0.427  12.371  20.769  0.00  0.00    +0.000 A 
ATOM      5  C   UNL     1      -0.537  11.919  21.900  0.00  0.00    +0.000 A 
ATOM      6  C   UNL     1      -0.478  10.631  22.349  0.00  0.00    +0.000 A 
ATOM      7  C   UNL     1       0.225   9.971  21.441  0.00  0.00    +0.000 A 
ATOM      8  C   UNL     1       1.163  11.106  20.263  0.00  0.00    +0.000 A 
ATOM      9  C   UNL     1       1.450  12.885  19.564  0.00  0.00    +0.000 A 
ENDROOT
BRANCH   1  13
ATOM     10  C   UNL     1       2.638  16.433  23.433  0.00  0.00    +0.000 A 
ATOM     11  C   UNL     1       3.544  16.018  22.537  0.00  0.00    +0.000 A 
ATOM     12  C   UNL     1       3.072  16.171  21.274  0.00  0.00    +0.000 A 
ATOM     13  C   UNL     1       1.692  16.242  20.853  0.00  0.00    +0.000 A 
ATOM     14  C   UNL     1       0.753  16.453  21.821  0.00  0.00    +0.000 A 
ATOM     15  C   UNL     1       1.278  16.656  23.089  0.00  0.00    +0.000 A 
BRANCH  10  16
ATOM     16  O   UNL     1       3.107  16.738  24.663  0.00  0.00    +0.000 OA
ATOM     17  H   UNL     1       4.064  16.551  24.619  0.00  0.00    +0.000 HD
ENDBRANCH  10  16
ENDBRANCH   1  13
BRANCH   2  18
ATOM     18  C   UNL     1       1.117  15.053  19.337  0.00  0.00    +0.000 A 
ATOM     19  C   UNL     1      -0.349  16.199  19.039  0.00  0.00    +0.000 A 
ATOM     20  C   UNL     1      -0.102  17.392  18.140  0.00  0.00    +0.000 A 
ATOM     21  C   UNL     1       1.444  17.719  17.582  0.00  0.00    +0.000 A 
ATOM     22  C   UNL     1       2.771  16.649  17.708  0.00  0.00    +0.000 A 
ATOM     23  C   UNL     1       2.733  15.232  18.362  0.00  0.00    +0.000 A 
BRANCH  20  24
ATOM     24  O   UNL     1      -1.245  17.962  17.629  0.00  0.00    +0.000 OA
ATOM     25  H   UNL     1      -1.103  17.909  16.654  0.00  0.00    +0.000 HD
ENDBRANCH  20  24
BRANCH  22  26
ATOM     26  O   UNL     1       4.072  17.186  17.771  0.00  0.00    +0.000 OA
ATOM     27  H   UNL     1       4.367  17.544  16.918  0.00  0.00    +0.000 HD
ENDBRANCH  22  26
ENDBRANCH   2  18
BRANCH   6  28
ATOM     28  O   UNL     1      -0.778  10.250  23.599  0.00  0.00    +0.000 OA
ATOM     29  H   UNL     1      -0.061  10.615  24.163  0.00  0.00    +0.000 HD
ENDBRANCH   6  28
BRANCH   8  30
ATOM     30  O   UNL     1       0.867   9.563  19.363  0.00  0.00    +0.000 OA
ATOM     31  H   UNL     1       0.417   8.719  19.822  0.00  0.00    +0.000 HD
ENDBRANCH   8  30
BRANCH   3  32
ATOM     32  C   UNL     1      -0.705  12.794  18.084  0.00  0.00    +0.000 C 
BRANCH  32  33
ATOM     33  C   UNL     1      -1.900  11.795  17.924  0.00  0.00    +0.000 A 
ATOM     34  C   UNL     1      -1.627  10.611  17.282  0.00  0.00    +0.000 A 
ATOM     35  C   UNL     1      -2.697   9.943  16.563  0.00  0.00    +0.000 A 
ATOM     36  C   UNL     1      -4.023  10.079  16.802  0.00  0.00    +0.000 A 
ATOM     37  C   UNL     1      -4.193  10.800  17.922  0.00  0.00    +0.000 A 
ATOM     38  C   UNL     1      -3.145  11.617  18.494  0.00  0.00    +0.000 A 
ENDBRANCH  32  33
ENDBRANCH   3  32
TORSDOF 9
ENDMDL
MODEL 6
REMARK VINA RESULT:      -7.3      3.767      7.787
REMARK  Name = 
REMARK  9 active torsions:
REMARK  status: ('A' for Active; 'I' for Inactive)
REMARK    1  A    between atoms: O_1  and  C_2
REMARK    2  A    between atoms: C_5  and  C_6
REMARK    3  A    between atoms: C_7  and  C_8
REMARK    4  A    between atoms: C_10  and  O_11
REMARK    5  A    between atoms: C_13  and  O_14
REMARK    6  A    between atoms: C_16  and  C_17
REMARK    7  A    between atoms: C_17  and  C_18
REMARK    8  A    between atoms: C_26  and  O_27
REMARK    9  A    between atoms: C_29  and  O_30
REMARK                            x       y       z     vdW  Elec       q    Type
REMARK                         _______ _______ _______ _____ _____    ______ ____
ROOT
ATOM      1  C   UNL     1      -2.715  12.563  22.129  0.00  0.00    +0.000 C 
ATOM      2  C   UNL     1      -3.866  13.364  22.716  0.00  0.00    +0.000 C 
ATOM      3  C   UNL     1      -5.129  13.187  22.243  0.00  0.00    +0.000 C 
ATOM      4  C   UNL     1      -5.197  14.229  23.014  0.00  0.00    +0.000 A 
ATOM      5  C   UNL     1      -5.735  15.663  22.758  0.00  0.00    +0.000 A 
ATOM      6  C   UNL     1      -6.844  16.088  23.432  0.00  0.00    +0.000 A 
ATOM      7  C   UNL     1      -7.389  14.994  23.942  0.00  0.00    +0.000 A 
ATOM      8  C   UNL     1      -6.230  13.507  23.915  0.00  0.00    +0.000 A 
ATOM      9  C   UNL     1      -4.596  12.701  23.272  0.00  0.00    +0.000 A 
ENDROOT
BRANCH   1  13
ATOM     10  C   UNL     1      -0.223  16.192  23.401  0.00  0.00    +0.000 A 
ATOM     11  C   UNL     1      -1.061  15.662  24.303  0.00  0.00    +0.000 A 
ATOM     12  C   UNL     1      -1.295  14.354  24.027  0.00  0.00    +0.000 A 
ATOM     13  C   UNL     1      -1.169  13.688  22.752  0.00  0.00    +0.000 A 
ATOM     14  C   UNL     1      -0.488  14.345  21.768  0.00  0.00    +0.000 A 
ATOM     15  C   UNL     1       0.069  15.551  22.168  0.00  0.00    +0.000 A 
BRANCH  10  16
ATOM     16  O   UNL     1       0.422  17.320  23.773  0.00  0.00    +0.000 OA
ATOM     17  H   UNL     1      -0.241  17.834  24.270  0.00  0.00    +0.000 HD
ENDBRANCH  10  16
ENDBRANCH   1  13
BRANCH   2  18
ATOM     18  C   UNL     1      -2.715  12.563  22.129  0.00  0.00    +0.000 A 
ATOM     19  C   UNL     1      -2.347  12.622  20.283  0.00  0.00    +0.000 A 
ATOM     20  C   UNL     1      -1.288  11.668  19.773  0.00  0.00    +0.000 A 
ATOM     21  C   UNL     1      -0.412  10.731  20.851  0.00  0.00    +0.000 A 
ATOM     22  C   UNL     1      -0.792  10.538  22.506  0.00  0.00    +0.000 A 
ATOM     23  C   UNL     1      -1.996  11.207  23.243  0.00  0.00    +0.000 A 
BRANCH  20  24
ATOM     24  O   UNL     1      -1.327  11.451  18.415  0.00  0.00    +0.000 OA
ATOM     25  H   UNL     1      -0.965  12.290  18.045  0.00  0.00    +0.000 HD
ENDBRANCH  20  24
BRANCH  22  26
ATOM     26  O   UNL     1       0.248  10.259  23.414  0.00  0.00    +0.000 OA
ATOM     27  H   UNL     1       1.120  10.501  23.065  0.00  0.00    +0.000 HD
ENDBRANCH  22  26
ENDBRANCH   2  18
BRANCH   6  28
ATOM     28  O   UNL     1      -7.085  17.364  23.765  0.00  0.00    +0.000 OA
ATOM     29  H   UNL     1      -6.200  17.779  23.869  0.00  0.00    +0.000 HD
ENDBRANCH   6  28
BRANCH   8  30
ATOM     30  O   UNL     1      -7.916  12.845  23.883  0.00  0.00    +0.000 OA
ATOM     31  H   UNL     1      -8.769  13.475  23.851  0.00  0.00    +0.000 HD
ENDBRANCH   8  30
BRANCH   3  32
ATOM     32  C   UNL     1      -5.610  12.209  20.912  0.00  0.00    +0.000 C 
BRANCH  32  33
ATOM     33  C   UNL     1      -6.238  12.921  19.667  0.00  0.00    +0.000 A 
ATOM     34  C   UNL     1      -6.924  12.121  18.785  0.00  0.00    +0.000 A 
ATOM     35  C   UNL     1      -6.992  12.516  17.389  0.00  0.00    +0.000 A 
ATOM     36  C   UNL     1      -6.862  13.777  16.912  0.00  0.00    +0.000 A 
ATOM     37  C   UNL     1      -6.829  14.634  17.946  0.00  0.00    +0.000 A 
ATOM     38  C   UNL     1      -6.557  14.214  19.302  0.00  0.00    +0.000 A 
ENDBRANCH  32  33
ENDBRANCH   3  32
TORSDOF 9
ENDMDL
MODEL 7
REMARK VINA RESULT:      -7.2      3.044      5.390
REMARK  Name = 
REMARK  9 active torsions:
REMARK  status: ('A' for Active; 'I' for Inactive)
REMARK    1  A    between atoms: O_1  and  C_2
REMARK    2  A    between atoms: C_5  and  C_6
REMARK    3  A    between atoms: C_7  and  C_8
REMARK    4  A    between atoms: C_10  and  O_11
REMARK    5  A    between atoms: C_13  and  O_14
REMARK    6  A    between atoms: C_16  and  C_17
REMARK    7  A    between atoms: C_17  and  C_18
REMARK    8  A    between atoms: C_26  and  O_27
REMARK    9  A    between atoms: C_29  and  O_30
REMARK                            x       y       z     vdW  Elec       q    Type
REMARK                         _______ _______ _______ _____ _____    ______ ____
ROOT
ATOM      1  C   UNL     1      -4.334  13.702  21.148  0.00  0.00    +0.000 C 
ATOM      2  C   UNL     1      -3.202  12.799  20.686  0.00  0.00    +0.000 C 
ATOM      3  C   UNL     1      -1.924  13.267  20.664  0.00  0.00    +0.000 C 
ATOM      4  C   UNL     1      -1.880  12.125  20.048  0.00  0.00    +0.000 A 
ATOM      5  C   UNL     1      -1.335  11.734  18.647  0.00  0.00    +0.000 A 
ATOM      6  C   UNL     1      -0.247  10.913  18.562  0.00  0.00    +0.000 A 
ATOM      7  C   UNL     1       0.282  10.900  19.777  0.00  0.00    +0.000 A 
ATOM      8  C   UNL     1      -0.876  11.587  21.097  0.00  0.00    +0.000 A 
ATOM      9  C   UNL     1      -2.490  12.557  21.532  0.00  0.00    +0.000 A 
ENDROOT
BRANCH   1  13
ATOM     10  C   UNL     1      -7.148  10.284  19.966  0.00  0.00    +0.000 A 
ATOM     11  C   UNL     1      -7.210  10.738  21.225  0.00  0.00    +0.000 A 
ATOM     12  C   UNL     1      -6.781  12.024  21.291  0.00  0.00    +0.000 A 
ATOM     13  C   UNL     1      -5.899  12.706  20.372  0.00  0.00    +0.000 A 
ATOM     14  C   UNL     1      -5.675  12.112  19.164  0.00  0.00    +0.000 A 
ATOM     15  C   UNL     1      -6.409  10.953  18.954  0.00  0.00    +0.000 A 
BRANCH  10  16
ATOM     16  O   UNL     1      -7.917   9.211  19.676  0.00  0.00    +0.000 OA
ATOM     17  H   UNL     1      -8.654   9.568  19.145  0.00  0.00    +0.000 HD
ENDBRANCH  10  16
ENDBRANCH   1  13
BRANCH   2  18
ATOM     18  C   UNL     1      -4.334  13.702  21.148  0.00  0.00    +0.000 A 
ATOM     19  C   UNL     1      -4.952  15.104  20.052  0.00  0.00    +0.000 A 
ATOM     20  C   UNL     1      -5.968  16.045  20.665  0.00  0.00    +0.000 A 
ATOM     21  C   UNL     1      -6.591  15.732  22.188  0.00  0.00    +0.000 A 
ATOM     22  C   UNL     1      -5.973  14.564  23.272  0.00  0.00    +0.000 A 
ATOM     23  C   UNL     1      -4.756  13.625  22.995  0.00  0.00    +0.000 A 
BRANCH  20  24
ATOM     24  O   UNL     1      -6.090  17.250  20.013  0.00  0.00    +0.000 OA
ATOM     25  H   UNL     1      -7.050  17.457  20.106  0.00  0.00    +0.000 HD
ENDBRANCH  20  24
BRANCH  22  26
ATOM     26  O   UNL     1      -6.847  13.973  24.205  0.00  0.00    +0.000 OA
ATOM     27  H   UNL     1      -6.415  13.790  25.055  0.00  0.00    +0.000 HD
ENDBRANCH  22  26
ENDBRANCH   2  18
BRANCH   6  28
ATOM     28  O   UNL     1      -0.016  10.064  17.551  0.00  0.00    +0.000 OA
ATOM     29  H   UNL     1       0.390   9.269  17.964  0.00  0.00    +0.000 HD
ENDBRANCH   6  28
BRANCH   8  30
ATOM     30  O   UNL     1       0.810  11.849  21.704  0.00  0.00    +0.000 OA
ATOM     31  H   UNL     1       1.277  12.801  21.680  0.00  0.00    +0.000 HD
ENDBRANCH   8  30
BRANCH   3  32
ATOM     32  C   UNL     1      -1.403  14.873  20.992  0.00  0.00    +0.000 C 
BRANCH  32  33
ATOM     33  C   UNL     1      -0.606  15.629  19.876  0.00  0.00    +0.000 A 
ATOM     34  C   UNL     1       0.480  14.973  19.348  0.00  0.00    +0.000 A 
ATOM     35  C   UNL     1       1.581  15.758  18.818  0.00  0.00    +0.000 A 
ATOM     36  C   UNL     1       1.504  17.030  18.360  0.00  0.00    +0.000 A 
ATOM     37  C   UNL     1       0.213  17.399  18.314  0.00  0.00    +0.000 A 
ATOM     38  C   UNL     1      -0.828  16.696  19.029  0.00  0.00    +0.000 A 
ENDBRANCH  32  33
ENDBRANCH   3  32
TORSDOF 9
ENDMDL
MODEL 8
REMARK VINA RESULT:      -7.2      2.716      5.241
REMARK  Name = 
REMARK  9 active torsions:
REMARK  status: ('A' for Active; 'I' for Inactive)
REMARK    1  A    between atoms: O_1  and  C_2
REMARK    2  A    between atoms: C_5  and  C_6
REMARK    3  A    between atoms: C_7  and  C_8
REMARK    4  A    between atoms: C_10  and  O_11
REMARK    5  A    between atoms: C_13  and  O_14
REMARK    6  A    between atoms: C_16  and  C_17
REMARK    7  A    between atoms: C_17  and  C_18
REMARK    8  A    between atoms: C_26  and  O_27
REMARK    9  A    between atoms: C_29  and  O_30
REMARK                            x       y       z     vdW  Elec       q    Type
REMARK                         _______ _______ _______ _____ _____    ______ ____
ROOT
ATOM      1  C   UNL     1      -3.214  13.196  21.658  0.00  0.00    +0.000 C 
ATOM      2  C   UNL     1      -2.205  12.214  21.083  0.00  0.00    +0.000 C 
ATOM      3  C   UNL     1      -0.881  12.359  21.359  0.00  0.00    +0.000 C 
ATOM      4  C   UNL     1      -0.939  11.450  20.435  0.00  0.00    +0.000 A 
ATOM      5  C   UNL     1      -0.228  11.338  19.059  0.00  0.00    +0.000 A 
ATOM      6  C   UNL     1       0.683  10.340  18.859  0.00  0.00    +0.000 A 
ATOM      7  C   UNL     1       0.967   9.875  20.066  0.00  0.00    +0.000 A 
ATOM      8  C   UNL     1      -0.264  10.428  21.383  0.00  0.00    +0.000 A 
ATOM      9  C   UNL     1      -1.720  11.592  21.895  0.00  0.00    +0.000 A 
ENDROOT
BRANCH   1  13
ATOM     10  C   UNL     1      -6.498  10.998  19.339  0.00  0.00    +0.000 A 
ATOM     11  C   UNL     1      -6.724  11.277  20.631  0.00  0.00    +0.000 A 
ATOM     12  C   UNL     1      -5.989  12.348  21.024  0.00  0.00    +0.000 A 
ATOM     13  C   UNL     1      -4.767  12.842  20.432  0.00  0.00    +0.000 A 
ATOM     14  C   UNL     1      -4.441  12.375  19.191  0.00  0.00    +0.000 A 
ATOM     15  C   UNL     1      -5.393  11.537  18.629  0.00  0.00    +0.000 A 
BRANCH  10  16
ATOM     16  O   UNL     1      -7.442  10.262  18.711  0.00  0.00    +0.000 OA
ATOM     17  H   UNL     1      -7.734   9.610  19.376  0.00  0.00    +0.000 HD
ENDBRANCH  10  16
ENDBRANCH   1  13
BRANCH   2  18
ATOM     18  C   UNL     1      -3.214  13.196  21.658  0.00  0.00    +0.000 A 
ATOM     19  C   UNL     1      -3.390  14.926  20.933  0.00  0.00    +0.000 A 
ATOM     20  C   UNL     1      -4.301  15.881  21.674  0.00  0.00    +0.000 A 
ATOM     21  C   UNL     1      -5.200  15.341  22.981  0.00  0.00    +0.000 A 
ATOM     22  C   UNL     1      -4.980  13.835  23.759  0.00  0.00    +0.000 A 
ATOM     23  C   UNL     1      -3.925  12.755  23.360  0.00  0.00    +0.000 A 
BRANCH  20  24
ATOM     24  O   UNL     1      -4.101  17.207  21.370  0.00  0.00    +0.000 OA
ATOM     25  H   UNL     1      -3.913  17.187  20.402  0.00  0.00    +0.000 HD
ENDBRANCH  20  24
BRANCH  22  26
ATOM     26  O   UNL     1      -6.081  13.233  24.399  0.00  0.00    +0.000 OA
ATOM     27  H   UNL     1      -6.397  13.750  25.157  0.00  0.00    +0.000 HD
ENDBRANCH  22  26
ENDBRANCH   2  18
BRANCH   6  28
ATOM     28  O   UNL     1       0.933   9.769  17.673  0.00  0.00    +0.000 OA
ATOM     29  H   UNL     1       0.105   9.873  17.153  0.00  0.00    +0.000 HD
ENDBRANCH   6  28
BRANCH   8  30
ATOM     30  O   UNL     1       1.299  10.115  22.241  0.00  0.00    +0.000 OA
ATOM     31  H   UNL     1       2.074   9.534  21.808  0.00  0.00    +0.000 HD
ENDBRANCH   8  30
BRANCH   3  32
ATOM     32  C   UNL     1      -0.137  13.648  22.223  0.00  0.00    +0.000 C 
BRANCH  32  33
ATOM     33  C   UNL     1       0.862  14.571  21.447  0.00  0.00    +0.000 A 
ATOM     34  C   UNL     1       0.320  15.384  20.481  0.00  0.00    +0.000 A 
ATOM     35  C   UNL     1       1.146  15.775  19.352  0.00  0.00    +0.000 A 
ATOM     36  C   UNL     1       2.499  15.824  19.336  0.00  0.00    +0.000 A 
ATOM     37  C   UNL     1       2.959  15.619  20.581  0.00  0.00    +0.000 A 
ATOM     38  C   UNL     1       2.150  15.035  21.627  0.00  0.00    +0.000 A 
ENDBRANCH  32  33
ENDBRANCH   3  32
TORSDOF 9
ENDMDL
MODEL 9
REMARK VINA RESULT:      -7.1      2.781      5.634
REMARK  Name = 
REMARK  9 active torsions:
REMARK  status: ('A' for Active; 'I' for Inactive)
REMARK    1  A    between atoms: O_1  and  C_2
REMARK    2  A    between atoms: C_5  and  C_6
REMARK    3  A    between atoms: C_7  and  C_8
REMARK    4  A    between atoms: C_10  and  O_11
REMARK    5  A    between atoms: C_13  and  O_14
REMARK    6  A    between atoms: C_16  and  C_17
REMARK    7  A    between atoms: C_17  and  C_18
REMARK    8  A    between atoms: C_26  and  O_27
REMARK    9  A    between atoms: C_29  and  O_30
REMARK                            x       y       z     vdW  Elec       q    Type
REMARK                         _______ _______ _______ _____ _____    ______ ____
ROOT
ATOM      1  C   UNL     1      -1.598  14.619  21.327  0.00  0.00    +0.000 C 
ATOM      2  C   UNL     1      -1.646  13.325  20.531  0.00  0.00    +0.000 C 
ATOM      3  C   UNL     1      -0.997  13.234  19.339  0.00  0.00    +0.000 C 
ATOM      4  C   UNL     1      -1.721  12.159  19.415  0.00  0.00    +0.000 A 
ATOM      5  C   UNL     1      -2.761  11.550  18.437  0.00  0.00    +0.000 A 
ATOM      6  C   UNL     1      -2.488  10.357  17.832  0.00  0.00    +0.000 A 
ATOM      7  C   UNL     1      -1.191  10.157  18.015  0.00  0.00    +0.000 A 
ATOM      8  C   UNL     1      -0.446  11.283  19.331  0.00  0.00    +0.000 A 
ATOM      9  C   UNL     1      -0.628  12.833  20.472  0.00  0.00    +0.000 A 
ENDROOT
BRANCH   1  13
ATOM     10  C   UNL     1      -4.753  12.533  23.914  0.00  0.00    +0.000 A 
ATOM     11  C   UNL     1      -3.532  12.711  24.439  0.00  0.00    +0.000 A 
ATOM     12  C   UNL     1      -2.909  13.764  23.852  0.00  0.00    +0.000 A 
ATOM     13  C   UNL     1      -3.170  14.325  22.546  0.00  0.00    +0.000 A 
ATOM     14  C   UNL     1      -4.330  13.958  21.929  0.00  0.00    +0.000 A 
ATOM     15  C   UNL     1      -5.152  13.145  22.696  0.00  0.00    +0.000 A 
BRANCH  10  16
ATOM     16  O   UNL     1      -5.629  11.827  24.662  0.00  0.00    +0.000 OA
ATOM     17  H   UNL     1      -6.503  12.020  24.272  0.00  0.00    +0.000 HD
ENDBRANCH  10  16
ENDBRANCH   1  13
BRANCH   2  18
ATOM     18  C   UNL     1      -1.598  14.619  21.327  0.00  0.00    +0.000 A 
ATOM     19  C   UNL     1      -2.530  16.145  20.736  0.00  0.00    +0.000 A 
ATOM     20  C   UNL     1      -2.289  17.426  21.506  0.00  0.00    +0.000 A 
ATOM     21  C   UNL     1      -1.350  17.408  22.894  0.00  0.00    +0.000 A 
ATOM     22  C   UNL     1      -0.378  16.094  23.395  0.00  0.00    +0.000 A 
ATOM     23  C   UNL     1      -0.236  14.734  22.642  0.00  0.00    +0.000 A 
BRANCH  20  24
ATOM     24  O   UNL     1      -2.649  18.569  20.831  0.00  0.00    +0.000 OA
ATOM     25  H   UNL     1      -1.780  18.986  20.621  0.00  0.00    +0.000 HD
ENDBRANCH  20  24
BRANCH  22  26
ATOM     26  O   UNL     1      -0.122  15.925  24.770  0.00  0.00    +0.000 OA
ATOM     27  H   UNL     1      -0.641  15.203  25.158  0.00  0.00    +0.000 HD
ENDBRANCH  22  26
ENDBRANCH   2  18
BRANCH   6  28
ATOM     28  O   UNL     1      -3.417   9.465  17.460  0.00  0.00    +0.000 OA
ATOM     29  H   UNL     1      -4.253   9.977  17.381  0.00  0.00    +0.000 HD
ENDBRANCH   6  28
BRANCH   8  30
ATOM     30  O   UNL     1       0.901  10.853  18.200  0.00  0.00    +0.000 OA
ATOM     31  H   UNL     1       0.727  10.600  17.185  0.00  0.00    +0.000 HD
ENDBRANCH   8  30
BRANCH   3  32
ATOM     32  C   UNL     1      -0.180  14.498  18.505  0.00  0.00    +0.000 C 
BRANCH  32  33
ATOM     33  C   UNL     1       1.370  14.617  18.689  0.00  0.00    +0.000 A 
ATOM     34  C   UNL     1       1.808  15.549  19.599  0.00  0.00    +0.000 A 
ATOM     35  C   UNL     1       3.115  16.153  19.406  0.00  0.00    +0.000 A 
ATOM     36  C   UNL     1       4.148  15.612  18.718  0.00  0.00    +0.000 A 
ATOM     37  C   UNL     1       3.836  14.350  18.381  0.00  0.00    +0.000 A 
ATOM     38  C   UNL     1       2.480  13.849  18.398  0.00  0.00    +0.000 A 
ENDBRANCH  32  33
ENDBRANCH   3  32
TORSDOF 9
ENDMDL
