MODEL 1
REMARK VINA RESULT:      -7.5      0.000      0.000
REMARK  Name = 
REMARK  6 active torsions:
REMARK  status: ('A' for Active; 'I' for Inactive)
REMARK    1  A    between atoms: C_1  and  N_2
REMARK    2  A    between atoms: N_2  and  C_3
REMARK    3  A    between atoms: N_2  and  C_4
REMARK    4  A    between atoms: C_7  and  C_8
REMARK    5  A    between atoms: N_17  and  C_18
REMARK    6  A    between atoms: C_18  and  C_19
REMARK                            x       y       z     vdW  Elec       q    Type
REMARK                         _______ _______ _______ _____ _____    ______ ____
ROOT
ATOM      1  C   UNL     1       1.150   9.406  19.321  0.00  0.00    +0.000 C 
ATOM      2  O   UNL     1       0.725  10.037  18.352  0.00  0.00    +0.000 OA
ATOM      3  N   UNL     1       0.807   9.768  20.620  0.00  0.00    +0.000 N 
ATOM      4  C   UNL     1       1.016   9.027  21.857  0.00  0.00    +0.000 C 
ATOM      5  C   UNL     1       0.166   9.726  22.909  0.00  0.00    +0.000 C 
ATOM      6  C   UNL     1      -0.866  10.487  22.086  0.00  0.00    +0.000 C 
ATOM      7  N   UNL     1      -1.457  11.573  22.813  0.00  0.00    +0.000 N 
ATOM      8  C   UNL     1      -0.977  12.845  22.819  0.00  0.00    +0.000 C 
ATOM      9  O   UNL     1      -1.376  13.601  23.703  0.00  0.00    +0.000 OA
ATOM     10  N   UNL     1      -0.036  13.171  21.863  0.00  0.00    +0.000 N 
ATOM     11  C   UNL     1       0.692  12.201  21.175  0.00  0.00    +0.000 C 
ATOM     12  O   UNL     1       1.872  12.355  20.850  0.00  0.00    +0.000 OA
ATOM     13  C   UNL     1      -0.082  10.911  20.856  0.00  0.00    +0.000 C 
ATOM     14  H   UNL     1      -2.088  11.376  23.581  0.00  0.00    +0.000 HD
ENDROOT
BRANCH   1  18
ATOM     15  C   UNL     1       3.693   5.948  18.464  0.00  0.00    +0.000 A 
ATOM     16  C   UNL     1       2.911   6.015  19.624  0.00  0.00    +0.000 A 
ATOM     17  C   UNL     1       2.118   7.130  19.937  0.00  0.00    +0.000 A 
ATOM     18  C   UNL     1       1.993   8.195  19.050  0.00  0.00    +0.000 A 
ATOM     19  C   UNL     1       2.743   8.142  17.869  0.00  0.00    +0.000 A 
ATOM     20  C   UNL     1       3.574   7.043  17.587  0.00  0.00    +0.000 A 
BRANCH  15  22
ATOM     21  C   UNL     1       4.741   4.442  16.813  0.00  0.00    +0.000 C 
ATOM     22  N   UNL     1       4.530   4.861  18.198  0.00  0.00    +0.000 N 
ATOM     23  C   UNL     1       4.649   3.815  19.212  0.00  0.00    +0.000 C 
ENDBRANCH  15  22
ENDBRANCH   1  18
BRANCH  10  24
ATOM     24  C   UNL     1       0.502  14.527  21.903  0.00  0.00    +0.000 C 
BRANCH  24  25
ATOM     25  C   UNL     1      -0.004  15.391  20.762  0.00  0.00    +0.000 A 
ATOM     26  C   UNL     1      -1.288  15.953  20.801  0.00  0.00    +0.000 A 
ATOM     27  C   UNL     1      -1.732  16.785  19.775  0.00  0.00    +0.000 A 
ATOM     28  C   UNL     1      -0.908  17.063  18.688  0.00  0.00    +0.000 A 
ATOM     29  C   UNL     1       0.363  16.497  18.626  0.00  0.00    +0.000 A 
ATOM     30  C   UNL     1       0.810  15.658  19.648  0.00  0.00    +0.000 A 
ENDBRANCH  24  25
ENDBRANCH  10  24
TORSDOF 4
ENDMDL
MODEL 2
REMARK VINA RESULT:      -7.4      1.897      2.593
REMARK  Name = 
REMARK  6 active torsions:
REMARK  status: ('A' for Active; 'I' for Inactive)
REMARK    1  A    between atoms: C_1  and  N_2
REMARK    2  A    between atoms: N_2  and  C_3
REMARK    3  A    between atoms: N_2  and  C_4
REMARK    4  A    between atoms: C_7  and  C_8
REMARK    5  A    between atoms: N_17  and  C_18
REMARK    6  A    between atoms: C_18  and  C_19
REMARK                            x       y       z     vdW  Elec       q    Type
REMARK                         _______ _______ _______ _____ _____    ______ ____
ROOT
ATOM      1  C   UNL     1       1.671   9.636  18.494  0.00  0.00    +0.000 C 
ATOM      2  O   UNL     1       2.189  10.145  17.499  0.00  0.00    +0.000 OA
ATOM      3  N   UNL     1       0.719  10.325  19.240  0.00  0.00    +0.000 N 
ATOM      4  C   UNL     1      -0.157   9.819  20.288  0.00  0.00    +0.000 C 
ATOM      5  C   UNL     1      -1.201  10.904  20.517  0.00  0.00    +0.000 C 
ATOM      6  C   UNL     1      -1.160  11.717  19.229  0.00  0.00    +0.000 C 
ATOM      7  N   UNL     1      -1.691  13.038  19.395  0.00  0.00    +0.000 N 
ATOM      8  C   UNL     1      -0.952  14.125  19.741  0.00  0.00    +0.000 C 
ATOM      9  O   UNL     1      -1.554  15.118  20.147  0.00  0.00    +0.000 OA
ATOM     10  N   UNL     1       0.421  14.009  19.662  0.00  0.00    +0.000 N 
ATOM     11  C   UNL     1       1.061  12.771  19.618  0.00  0.00    +0.000 C 
ATOM     12  O   UNL     1       2.146  12.558  20.166  0.00  0.00    +0.000 OA
ATOM     13  C   UNL     1       0.308  11.676  18.842  0.00  0.00    +0.000 C 
ATOM     14  H   UNL     1      -2.686  13.162  19.543  0.00  0.00    +0.000 HD
ENDROOT
BRANCH   1  18
ATOM     15  C   UNL     1       2.874   5.527  19.399  0.00  0.00    +0.000 A 
ATOM     16  C   UNL     1       2.223   6.326  20.347  0.00  0.00    +0.000 A 
ATOM     17  C   UNL     1       1.862   7.658  20.090  0.00  0.00    +0.000 A 
ATOM     18  C   UNL     1       2.049   8.225  18.833  0.00  0.00    +0.000 A 
ATOM     19  C   UNL     1       2.673   7.438  17.857  0.00  0.00    +0.000 A 
ATOM     20  C   UNL     1       3.077   6.120  18.139  0.00  0.00    +0.000 A 
BRANCH  15  22
ATOM     21  C   UNL     1       4.395   3.638  18.935  0.00  0.00    +0.000 C 
ATOM     22  N   UNL     1       3.288   4.224  19.690  0.00  0.00    +0.000 N 
ATOM     23  C   UNL     1       2.297   3.284  20.213  0.00  0.00    +0.000 C 
ENDBRANCH  15  22
ENDBRANCH   1  18
BRANCH  10  24
ATOM     24  C   UNL     1       1.206  15.167  20.074  0.00  0.00    +0.000 C 
BRANCH  24  25
ATOM     25  C   UNL     1       1.663  16.013  18.899  0.00  0.00    +0.000 A 
ATOM     26  C   UNL     1       2.837  15.697  18.199  0.00  0.00    +0.000 A 
ATOM     27  C   UNL     1       3.229  16.446  17.092  0.00  0.00    +0.000 A 
ATOM     28  C   UNL     1       2.463  17.529  16.667  0.00  0.00    +0.000 A 
ATOM     29  C   UNL     1       1.305  17.867  17.364  0.00  0.00    +0.000 A 
ATOM     30  C   UNL     1       0.912  17.123  18.478  0.00  0.00    +0.000 A 
ENDBRANCH  24  25
ENDBRANCH  10  24
TORSDOF 4
ENDMDL
MODEL 3
REMARK VINA RESULT:      -7.4      0.407      1.073
REMARK  Name = 
REMARK  6 active torsions:
REMARK  status: ('A' for Active; 'I' for Inactive)
REMARK    1  A    between atoms: C_1  and  N_2
REMARK    2  A    between atoms: N_2  and  C_3
REMARK    3  A    between atoms: N_2  and  C_4
REMARK    4  A    between atoms: C_7  and  C_8
REMARK    5  A    between atoms: N_17  and  C_18
REMARK    6  A    between atoms: C_18  and  C_19
REMARK                            x       y       z     vdW  Elec       q    Type
REMARK                         _______ _______ _______ _____ _____    ______ ____
ROOT
ATOM      1  C   UNL     1       1.067   9.513  19.416  0.00  0.00    +0.000 C 
ATOM      2  O   UNL     1       0.666  10.152  18.443  0.00  0.00    +0.000 OA
ATOM      3  N   UNL     1       0.721   9.885  20.712  0.00  0.00    +0.000 N 
ATOM      4  C   UNL     1       0.900   9.141  21.951  0.00  0.00    +0.000 C 
ATOM      5  C   UNL     1       0.057   9.862  22.995  0.00  0.00    +0.000 C 
ATOM      6  C   UNL     1      -0.949  10.646  22.161  0.00  0.00    +0.000 C 
ATOM      7  N   UNL     1      -1.521  11.747  22.880  0.00  0.00    +0.000 N 
ATOM      8  C   UNL     1      -1.011  13.007  22.889  0.00  0.00    +0.000 C 
ATOM      9  O   UNL     1      -1.399  13.774  23.768  0.00  0.00    +0.000 OA
ATOM     10  N   UNL     1      -0.052  13.309  21.942  0.00  0.00    +0.000 N 
ATOM     11  C   UNL     1       0.659  12.321  21.263  0.00  0.00    +0.000 C 
ATOM     12  O   UNL     1       1.845  12.446  20.949  0.00  0.00    +0.000 OA
ATOM     13  C   UNL     1      -0.144  11.049  20.938  0.00  0.00    +0.000 C 
ATOM     14  H   UNL     1      -2.164  11.566  23.643  0.00  0.00    +0.000 HD
ENDROOT
BRANCH   1  18
ATOM     15  C   UNL     1       3.536   5.994  18.592  0.00  0.00    +0.000 A 
ATOM     16  C   UNL     1       2.719   6.067  19.728  0.00  0.00    +0.000 A 
ATOM     17  C   UNL     1       1.949   7.201  20.030  0.00  0.00    +0.000 A 
ATOM     18  C   UNL     1       1.883   8.281  19.156  0.00  0.00    +0.000 A 
ATOM     19  C   UNL     1       2.669   8.222  17.998  0.00  0.00    +0.000 A 
ATOM     20  C   UNL     1       3.477   7.103  17.728  0.00  0.00    +0.000 A 
BRANCH  15  22
ATOM     21  C   UNL     1       5.769   4.945  18.681  0.00  0.00    +0.000 C 
ATOM     22  N   UNL     1       4.349   4.886  18.337  0.00  0.00    +0.000 N 
ATOM     23  C   UNL     1       3.993   4.007  17.224  0.00  0.00    +0.000 C 
ENDBRANCH  15  22
ENDBRANCH   1  18
BRANCH  10  24
ATOM     24  C   UNL     1       0.517  14.651  21.985  0.00  0.00    +0.000 C 
BRANCH  24  25
ATOM     25  C   UNL     1       0.119  15.496  20.788  0.00  0.00    +0.000 A 
ATOM     26  C   UNL     1       1.027  15.740  19.747  0.00  0.00    +0.000 A 
ATOM     27  C   UNL     1       0.644  16.476  18.627  0.00  0.00    +0.000 A 
ATOM     28  C   UNL     1      -0.647  16.988  18.529  0.00  0.00    +0.000 A 
ATOM     29  C   UNL     1      -1.553  16.770  19.564  0.00  0.00    +0.000 A 
ATOM     30  C   UNL     1      -1.172  16.039  20.690  0.00  0.00    +0.000 A 
ENDBRANCH  24  25
ENDBRANCH  10  24
TORSDOF 4
ENDMDL
MODEL 4
REMARK VINA RESULT:      -7.3      2.303      3.795
REMARK  Name = 
REMARK  6 active torsions:
REMARK  status: ('A' for Active; 'I' for Inactive)
REMARK    1  A    between atoms: C_1  and  N_2
REMARK    2  A    between atoms: N_2  and  C_3
REMARK    3  A    between atoms: N_2  and  C_4
REMARK    4  A    between atoms: C_7  and  C_8
REMARK    5  A    between atoms: N_17  and  C_18
REMARK    6  A    between atoms: C_18  and  C_19
REMARK                            x       y       z     vdW  Elec       q    Type
REMARK                         _______ _______ _______ _____ _____    ______ ____
ROOT
ATOM      1  C   UNL     1       1.425   8.482  20.135  0.00  0.00    +0.000 C 
ATOM      2  O   UNL     1       0.959   8.316  21.263  0.00  0.00    +0.000 OA
ATOM      3  N   UNL     1       1.345   9.718  19.501  0.00  0.00    +0.000 N 
ATOM      4  C   UNL     1       2.024  10.166  18.292  0.00  0.00    +0.000 C 
ATOM      5  C   UNL     1       1.835  11.677  18.245  0.00  0.00    +0.000 C 
ATOM      6  C   UNL     1       1.519  12.042  19.690  0.00  0.00    +0.000 C 
ATOM      7  N   UNL     1       0.846  13.303  19.804  0.00  0.00    +0.000 N 
ATOM      8  C   UNL     1      -0.505  13.457  19.794  0.00  0.00    +0.000 C 
ATOM      9  O   UNL     1      -0.949  14.585  19.591  0.00  0.00    +0.000 OA
ATOM     10  N   UNL     1      -1.273  12.321  19.957  0.00  0.00    +0.000 N 
ATOM     11  C   UNL     1      -0.759  11.041  19.754  0.00  0.00    +0.000 C 
ATOM     12  O   UNL     1      -1.422  10.124  19.264  0.00  0.00    +0.000 OA
ATOM     13  C   UNL     1       0.708  10.854  20.177  0.00  0.00    +0.000 C 
ATOM     14  H   UNL     1       1.351  14.160  19.607  0.00  0.00    +0.000 HD
ENDROOT
BRANCH   1  18
ATOM     15  C   UNL     1       3.427   5.033  18.332  0.00  0.00    +0.000 A 
ATOM     16  C   UNL     1       3.437   6.292  17.717  0.00  0.00    +0.000 A 
ATOM     17  C   UNL     1       2.770   7.401  18.259  0.00  0.00    +0.000 A 
ATOM     18  C   UNL     1       2.141   7.328  19.498  0.00  0.00    +0.000 A 
ATOM     19  C   UNL     1       2.139   6.088  20.148  0.00  0.00    +0.000 A 
ATOM     20  C   UNL     1       2.767   4.968  19.573  0.00  0.00    +0.000 A 
BRANCH  15  22
ATOM     21  C   UNL     1       4.891   4.104  16.574  0.00  0.00    +0.000 C 
ATOM     22  N   UNL     1       4.039   3.921  17.749  0.00  0.00    +0.000 N 
ATOM     23  C   UNL     1       3.372   2.624  17.863  0.00  0.00    +0.000 C 
ENDBRANCH  15  22
ENDBRANCH   1  18
BRANCH  10  24
ATOM     24  C   UNL     1      -2.720  12.491  19.905  0.00  0.00    +0.000 C 
BRANCH  24  25
ATOM     25  C   UNL     1      -3.344  12.629  21.282  0.00  0.00    +0.000 A 
ATOM     26  C   UNL     1      -4.687  13.008  21.428  0.00  0.00    +0.000 A 
ATOM     27  C   UNL     1      -5.270  13.088  22.691  0.00  0.00    +0.000 A 
ATOM     28  C   UNL     1      -4.524  12.800  23.830  0.00  0.00    +0.000 A 
ATOM     29  C   UNL     1      -3.185  12.441  23.702  0.00  0.00    +0.000 A 
ATOM     30  C   UNL     1      -2.594  12.365  22.440  0.00  0.00    +0.000 A 
ENDBRANCH  24  25
ENDBRANCH  10  24
TORSDOF 4
ENDMDL
MODEL 5
REMARK VINA RESULT:      -7.3      2.681      3.847
REMARK  Name = 
REMARK  6 active torsions:
REMARK  status: ('A' for Active; 'I' for Inactive)
REMARK    1  A    between atoms: C_1  and  N_2
REMARK    2  A    between atoms: N_2  and  C_3
REMARK    3  A    between atoms: N_2  and  C_4
REMARK    4  A    between atoms: C_7  and  C_8
REMARK    5  A    between atoms: N_17  and  C_18
REMARK    6  A    between atoms: C_18  and  C_19
REMARK                            x       y       z     vdW  Elec       q    Type
REMARK                         _______ _______ _______ _____ _____    ______ ____
ROOT
ATOM      1  C   UNL     1       1.468   8.093  20.401  0.00  0.00    +0.000 C 
ATOM      2  O   UNL     1       1.127   8.281  21.569  0.00  0.00    +0.000 OA
ATOM      3  N   UNL     1       1.429   9.125  19.467  0.00  0.00    +0.000 N 
ATOM      4  C   UNL     1       1.998   9.160  18.126  0.00  0.00    +0.000 C 
ATOM      5  C   UNL     1       1.946  10.619  17.691  0.00  0.00    +0.000 C 
ATOM      6  C   UNL     1       1.840  11.380  19.007  0.00  0.00    +0.000 C 
ATOM      7  N   UNL     1       1.304  12.699  18.838  0.00  0.00    +0.000 N 
ATOM      8  C   UNL     1      -0.018  13.008  18.908  0.00  0.00    +0.000 C 
ATOM      9  O   UNL     1      -0.376  14.091  18.450  0.00  0.00    +0.000 OA
ATOM     10  N   UNL     1      -0.863  12.054  19.440  0.00  0.00    +0.000 N 
ATOM     11  C   UNL     1      -0.498  10.712  19.543  0.00  0.00    +0.000 C 
ATOM     12  O   UNL     1      -1.297   9.787  19.380  0.00  0.00    +0.000 OA
ATOM     13  C   UNL     1       0.986  10.465  19.867  0.00  0.00    +0.000 C 
ATOM     14  H   UNL     1       1.860  13.409  18.373  0.00  0.00    +0.000 HD
ENDROOT
BRANCH   1  18
ATOM     15  C   UNL     1       3.114   4.190  19.300  0.00  0.00    +0.000 A 
ATOM     16  C   UNL     1       2.153   4.323  20.310  0.00  0.00    +0.000 A 
ATOM     17  C   UNL     1       1.640   5.568  20.704  0.00  0.00    +0.000 A 
ATOM     18  C   UNL     1       1.993   6.736  20.036  0.00  0.00    +0.000 A 
ATOM     19  C   UNL     1       2.933   6.629  19.003  0.00  0.00    +0.000 A 
ATOM     20  C   UNL     1       3.479   5.383  18.648  0.00  0.00    +0.000 A 
BRANCH  15  22
ATOM     21  C   UNL     1       3.026   2.140  17.928  0.00  0.00    +0.000 C 
ATOM     22  N   UNL     1       3.666   2.951  18.962  0.00  0.00    +0.000 N 
ATOM     23  C   UNL     1       4.403   2.218  19.991  0.00  0.00    +0.000 C 
ENDBRANCH  15  22
ENDBRANCH   1  18
BRANCH  10  24
ATOM     24  C   UNL     1      -2.284  12.378  19.474  0.00  0.00    +0.000 C 
BRANCH  24  25
ATOM     25  C   UNL     1      -2.813  12.546  20.887  0.00  0.00    +0.000 A 
ATOM     26  C   UNL     1      -4.172  12.807  21.120  0.00  0.00    +0.000 A 
ATOM     27  C   UNL     1      -4.663  12.913  22.419  0.00  0.00    +0.000 A 
ATOM     28  C   UNL     1      -3.808  12.771  23.509  0.00  0.00    +0.000 A 
ATOM     29  C   UNL     1      -2.454  12.531  23.293  0.00  0.00    +0.000 A 
ATOM     30  C   UNL     1      -1.956  12.430  21.993  0.00  0.00    +0.000 A 
ENDBRANCH  24  25
ENDBRANCH  10  24
TORSDOF 4
ENDMDL
MODEL 6
REMARK VINA RESULT:      -7.3      2.709      4.049
REMARK  Name = 
REMARK  6 active torsions:
REMARK  status: ('A' for Active; 'I' for Inactive)
REMARK    1  A    between atoms: C_1  and  N_2
REMARK    2  A    between atoms: N_2  and  C_3
REMARK    3  A    between atoms: N_2  and  C_4
REMARK    4  A    between atoms: C_7  and  C_8
REMARK    5  A    between atoms: N_17  and  C_18
REMARK    6  A    between atoms: C_18  and  C_19
REMARK                            x       y       z     vdW  Elec       q    Type
REMARK                         _______ _______ _______ _____ _____    ______ ____
ROOT
ATOM      1  C   UNL     1       1.463   8.115  20.495  0.00  0.00    +0.000 C 
ATOM      2  O   UNL     1       1.142   8.340  21.662  0.00  0.00    +0.000 OA
ATOM      3  N   UNL     1       1.409   9.116  19.529  0.00  0.00    +0.000 N 
ATOM      4  C   UNL     1       1.955   9.109  18.179  0.00  0.00    +0.000 C 
ATOM      5  C   UNL     1       1.896  10.552  17.698  0.00  0.00    +0.000 C 
ATOM      6  C   UNL     1       1.813  11.355  18.991  0.00  0.00    +0.000 C 
ATOM      7  N   UNL     1       1.277  12.670  18.789  0.00  0.00    +0.000 N 
ATOM      8  C   UNL     1      -0.044  12.982  18.872  0.00  0.00    +0.000 C 
ATOM      9  O   UNL     1      -0.409  14.050  18.386  0.00  0.00    +0.000 OA
ATOM     10  N   UNL     1      -0.881  12.046  19.448  0.00  0.00    +0.000 N 
ATOM     11  C   UNL     1      -0.515  10.708  19.588  0.00  0.00    +0.000 C 
ATOM     12  O   UNL     1      -1.318   9.779  19.469  0.00  0.00    +0.000 OA
ATOM     13  C   UNL     1       0.974  10.469  19.894  0.00  0.00    +0.000 C 
ATOM     14  H   UNL     1       1.825  13.363  18.293  0.00  0.00    +0.000 HD
ENDROOT
BRANCH   1  18
ATOM     15  C   UNL     1       2.854   4.072  19.556  0.00  0.00    +0.000 A 
ATOM     16  C   UNL     1       3.414   5.201  18.946  0.00  0.00    +0.000 A 
ATOM     17  C   UNL     1       2.958   6.503  19.204  0.00  0.00    +0.000 A 
ATOM     18  C   UNL     1       1.981   6.746  20.164  0.00  0.00    +0.000 A 
ATOM     19  C   UNL     1       1.422   5.637  20.810  0.00  0.00    +0.000 A 
ATOM     20  C   UNL     1       1.850   4.332  20.509  0.00  0.00    +0.000 A 
BRANCH  15  22
ATOM     21  C   UNL     1       4.411   2.198  19.952  0.00  0.00    +0.000 C 
ATOM     22  N   UNL     1       3.272   2.777  19.241  0.00  0.00    +0.000 N 
ATOM     23  C   UNL     1       3.048   2.289  17.880  0.00  0.00    +0.000 C 
ENDBRANCH  15  22
ENDBRANCH   1  18
BRANCH  10  24
ATOM     24  C   UNL     1      -2.301  12.374  19.497  0.00  0.00    +0.000 C 
BRANCH  24  25
ATOM     25  C   UNL     1      -2.810  12.566  20.914  0.00  0.00    +0.000 A 
ATOM     26  C   UNL     1      -1.921  12.591  21.999  0.00  0.00    +0.000 A 
ATOM     27  C   UNL     1      -2.386  12.814  23.294  0.00  0.00    +0.000 A 
ATOM     28  C   UNL     1      -3.744  13.007  23.531  0.00  0.00    +0.000 A 
ATOM     29  C   UNL     1      -4.641  12.965  22.466  0.00  0.00    +0.000 A 
ATOM     30  C   UNL     1      -4.181  12.735  21.168  0.00  0.00    +0.000 A 
ENDBRANCH  24  25
ENDBRANCH  10  24
TORSDOF 4
ENDMDL
MODEL 7
REMARK VINA RESULT:      -7.3      1.971      2.746
REMARK  Name = 
REMARK  6 active torsions:
REMARK  status: ('A' for Active; 'I' for Inactive)
REMARK    1  A    between atoms: C_1  and  N_2
REMARK    2  A    between atoms: N_2  and  C_3
REMARK    3  A    between atoms: N_2  and  C_4
REMARK    4  A    between atoms: C_7  and  C_8
REMARK    5  A    between atoms: N_17  and  C_18
REMARK    6  A    between atoms: C_18  and  C_19
REMARK                            x       y       z     vdW  Elec       q    Type
REMARK                         _______ _______ _______ _____ _____    ______ ____
ROOT
ATOM      1  C   UNL     1       1.570   9.596  18.497  0.00  0.00    +0.000 C 
ATOM      2  O   UNL     1       2.073  10.075  17.480  0.00  0.00    +0.000 OA
ATOM      3  N   UNL     1       0.651  10.319  19.253  0.00  0.00    +0.000 N 
ATOM      4  C   UNL     1      -0.208   9.851  20.332  0.00  0.00    +0.000 C 
ATOM      5  C   UNL     1      -1.223  10.961  20.566  0.00  0.00    +0.000 C 
ATOM      6  C   UNL     1      -1.199  11.748  19.261  0.00  0.00    +0.000 C 
ATOM      7  N   UNL     1      -1.699  13.083  19.414  0.00  0.00    +0.000 N 
ATOM      8  C   UNL     1      -0.929  14.162  19.721  0.00  0.00    +0.000 C 
ATOM      9  O   UNL     1      -1.500  15.174  20.122  0.00  0.00    +0.000 OA
ATOM     10  N   UNL     1       0.439  14.015  19.609  0.00  0.00    +0.000 N 
ATOM     11  C   UNL     1       1.052  12.763  19.574  0.00  0.00    +0.000 C 
ATOM     12  O   UNL     1       2.146  12.539  20.098  0.00  0.00    +0.000 OA
ATOM     13  C   UNL     1       0.258  11.670  18.839  0.00  0.00    +0.000 C 
ATOM     14  H   UNL     1      -2.687  13.231  19.585  0.00  0.00    +0.000 HD
ENDROOT
BRANCH   1  18
ATOM     15  C   UNL     1       2.519   5.477  19.632  0.00  0.00    +0.000 A 
ATOM     16  C   UNL     1       2.726   5.945  18.329  0.00  0.00    +0.000 A 
ATOM     17  C   UNL     1       2.394   7.250  17.934  0.00  0.00    +0.000 A 
ATOM     18  C   UNL     1       1.928   8.183  18.855  0.00  0.00    +0.000 A 
ATOM     19  C   UNL     1       1.737   7.750  20.172  0.00  0.00    +0.000 A 
ATOM     20  C   UNL     1       2.025   6.425  20.547  0.00  0.00    +0.000 A 
BRANCH  15  22
ATOM     21  C   UNL     1       2.236   3.624  21.240  0.00  0.00    +0.000 C 
ATOM     22  N   UNL     1       2.792   4.155  19.995  0.00  0.00    +0.000 N 
ATOM     23  C   UNL     1       4.050   3.560  19.547  0.00  0.00    +0.000 C 
ENDBRANCH  15  22
ENDBRANCH   1  18
BRANCH  10  24
ATOM     24  C   UNL     1       1.257  15.165  19.978  0.00  0.00    +0.000 C 
BRANCH  24  25
ATOM     25  C   UNL     1       1.672  15.998  18.779  0.00  0.00    +0.000 A 
ATOM     26  C   UNL     1       0.915  17.110  18.381  0.00  0.00    +0.000 A 
ATOM     27  C   UNL     1       1.323  17.901  17.308  0.00  0.00    +0.000 A 
ATOM     28  C   UNL     1       2.487  17.592  16.609  0.00  0.00    +0.000 A 
ATOM     29  C   UNL     1       3.238  16.480  16.980  0.00  0.00    +0.000 A 
ATOM     30  C   UNL     1       2.829  15.681  18.050  0.00  0.00    +0.000 A 
ENDBRANCH  24  25
ENDBRANCH  10  24
TORSDOF 4
ENDMDL
MODEL 8
REMARK VINA RESULT:      -7.3      0.535      1.371
REMARK  Name = 
REMARK  6 active torsions:
REMARK  status: ('A' for Active; 'I' for Inactive)
REMARK    1  A    between atoms: C_1  and  N_2
REMARK    2  A    between atoms: N_2  and  C_3
REMARK    3  A    between atoms: N_2  and  C_4
REMARK    4  A    between atoms: C_7  and  C_8
REMARK    5  A    between atoms: N_17  and  C_18
REMARK    6  A    between atoms: C_18  and  C_19
REMARK                            x       y       z     vdW  Elec       q    Type
REMARK                         _______ _______ _______ _____ _____    ______ ____
ROOT
ATOM      1  C   UNL     1       1.083   9.574  19.406  0.00  0.00    +0.000 C 
ATOM      2  O   UNL     1       0.679  10.213  18.434  0.00  0.00    +0.000 OA
ATOM      3  N   UNL     1       0.730   9.940  20.702  0.00  0.00    +0.000 N 
ATOM      4  C   UNL     1       0.913   9.194  21.940  0.00  0.00    +0.000 C 
ATOM      5  C   UNL     1       0.062   9.904  22.984  0.00  0.00    +0.000 C 
ATOM      6  C   UNL     1      -0.949  10.683  22.150  0.00  0.00    +0.000 C 
ATOM      7  N   UNL     1      -1.531  11.777  22.871  0.00  0.00    +0.000 N 
ATOM      8  C   UNL     1      -1.032  13.041  22.885  0.00  0.00    +0.000 C 
ATOM      9  O   UNL     1      -1.429  13.802  23.766  0.00  0.00    +0.000 OA
ATOM     10  N   UNL     1      -0.074  13.354  21.941  0.00  0.00    +0.000 N 
ATOM     11  C   UNL     1       0.647  12.373  21.260  0.00  0.00    +0.000 C 
ATOM     12  O   UNL     1       1.833  12.510  20.950  0.00  0.00    +0.000 OA
ATOM     13  C   UNL     1      -0.144  11.096  20.930  0.00  0.00    +0.000 C 
ATOM     14  H   UNL     1      -2.174  11.588  23.632  0.00  0.00    +0.000 HD
ENDROOT
BRANCH   1  18
ATOM     15  C   UNL     1       3.404   5.931  18.704  0.00  0.00    +0.000 A 
ATOM     16  C   UNL     1       3.452   7.014  17.817  0.00  0.00    +0.000 A 
ATOM     17  C   UNL     1       2.688   8.176  18.003  0.00  0.00    +0.000 A 
ATOM     18  C   UNL     1       1.910   8.350  19.144  0.00  0.00    +0.000 A 
ATOM     19  C   UNL     1       1.865   7.294  20.062  0.00  0.00    +0.000 A 
ATOM     20  C   UNL     1       2.596   6.113  19.841  0.00  0.00    +0.000 A 
BRANCH  15  22
ATOM     21  C   UNL     1       3.412   3.474  18.471  0.00  0.00    +0.000 C 
ATOM     22  N   UNL     1       4.120   4.753  18.471  0.00  0.00    +0.000 N 
ATOM     23  C   UNL     1       5.528   4.710  18.863  0.00  0.00    +0.000 C 
ENDBRANCH  15  22
ENDBRANCH   1  18
BRANCH  10  24
ATOM     24  C   UNL     1       0.484  14.701  21.989  0.00  0.00    +0.000 C 
BRANCH  24  25
ATOM     25  C   UNL     1       0.085  15.544  20.792  0.00  0.00    +0.000 A 
ATOM     26  C   UNL     1       0.989  15.781  19.746  0.00  0.00    +0.000 A 
ATOM     27  C   UNL     1       0.605  16.515  18.626  0.00  0.00    +0.000 A 
ATOM     28  C   UNL     1      -0.684  17.035  18.533  0.00  0.00    +0.000 A 
ATOM     29  C   UNL     1      -1.586  16.824  19.573  0.00  0.00    +0.000 A 
ATOM     30  C   UNL     1      -1.204  16.094  20.699  0.00  0.00    +0.000 A 
ENDBRANCH  24  25
ENDBRANCH  10  24
TORSDOF 4
ENDMDL
MODEL 9
REMARK VINA RESULT:      -7.2      2.307      3.876
REMARK  Name = 
REMARK  6 active torsions:
REMARK  status: ('A' for Active; 'I' for Inactive)
REMARK    1  A    between atoms: C_1  and  N_2
REMARK    2  A    between atoms: N_2  and  C_3
REMARK    3  A    between atoms: N_2  and  C_4
REMARK    4  A    between atoms: C_7  and  C_8
REMARK    5  A    between atoms: N_17  and  C_18
REMARK    6  A    between atoms: C_18  and  C_19
REMARK                            x       y       z     vdW  Elec       q    Type
REMARK                         _______ _______ _______ _____ _____    ______ ____
ROOT
ATOM      1  C   UNL     1       1.361   8.682  20.103  0.00  0.00    +0.000 C 
ATOM      2  O   UNL     1       0.875   8.417  21.203  0.00  0.00    +0.000 OA
ATOM      3  N   UNL     1       1.260   9.960  19.562  0.00  0.00    +0.000 N 
ATOM      4  C   UNL     1       1.952  10.517  18.407  0.00  0.00    +0.000 C 
ATOM      5  C   UNL     1       1.721  12.021  18.469  0.00  0.00    +0.000 C 
ATOM      6  C   UNL     1       1.362  12.267  19.930  0.00  0.00    +0.000 C 
ATOM      7  N   UNL     1       0.650  13.496  20.122  0.00  0.00    +0.000 N 
ATOM      8  C   UNL     1      -0.704  13.614  20.091  0.00  0.00    +0.000 C 
ATOM      9  O   UNL     1      -1.176  14.742  19.963  0.00  0.00    +0.000 OA
ATOM     10  N   UNL     1      -1.442  12.448  20.149  0.00  0.00    +0.000 N 
ATOM     11  C   UNL     1      -0.887  11.202  19.863  0.00  0.00    +0.000 C 
ATOM     12  O   UNL     1      -1.512  10.307  19.289  0.00  0.00    +0.000 OA
ATOM     13  C   UNL     1       0.575  11.023  20.306  0.00  0.00    +0.000 C 
ATOM     14  H   UNL     1       1.135  14.379  20.003  0.00  0.00    +0.000 HD
ENDROOT
BRANCH   1  18
ATOM     15  C   UNL     1       3.504   5.435  18.097  0.00  0.00    +0.000 A 
ATOM     16  C   UNL     1       3.458   6.727  17.558  0.00  0.00    +0.000 A 
ATOM     17  C   UNL     1       2.746   7.773  18.165  0.00  0.00    +0.000 A 
ATOM     18  C   UNL     1       2.124   7.599  19.398  0.00  0.00    +0.000 A 
ATOM     19  C   UNL     1       2.178   6.324  19.973  0.00  0.00    +0.000 A 
ATOM     20  C   UNL     1       2.852   5.269  19.333  0.00  0.00    +0.000 A 
BRANCH  15  22
ATOM     21  C   UNL     1       3.714   3.013  17.672  0.00  0.00    +0.000 C 
ATOM     22  N   UNL     1       4.162   4.387  17.449  0.00  0.00    +0.000 N 
ATOM     23  C   UNL     1       5.576   4.557  17.116  0.00  0.00    +0.000 C 
ENDBRANCH  15  22
ENDBRANCH   1  18
BRANCH  10  24
ATOM     24  C   UNL     1      -2.892  12.582  20.075  0.00  0.00    +0.000 C 
BRANCH  24  25
ATOM     25  C   UNL     1      -3.547  12.640  21.444  0.00  0.00    +0.000 A 
ATOM     26  C   UNL     1      -2.808  12.366  22.604  0.00  0.00    +0.000 A 
ATOM     27  C   UNL     1      -3.399  12.465  23.863  0.00  0.00    +0.000 A 
ATOM     28  C   UNL     1      -4.737  12.830  23.986  0.00  0.00    +0.000 A 
ATOM     29  C   UNL     1      -5.487  13.086  22.841  0.00  0.00    +0.000 A 
ATOM     30  C   UNL     1      -4.902  12.982  21.578  0.00  0.00    +0.000 A 
ENDBRANCH  24  25
ENDBRANCH  10  24
TORSDOF 4
ENDMDL
