MODEL 1
REMARK VINA RESULT:      -6.7      0.000      0.000
REMARK  Name = 
REMARK  11 active torsions:
REMARK  status: ('A' for Active; 'I' for Inactive)
REMARK    1  A    between atoms: C_1  and  C_2
REMARK    2  A    between atoms: C_2  and  C_3
REMARK    3  A    between atoms: N_5  and  C_6
REMARK    4  A    between atoms: C_7  and  N_8
REMARK    5  A    between atoms: C_9  and  C_11
REMARK    6  A    between atoms: C_11  and  C_12
REMARK    7  A    between atoms: C_11  and  O_14
REMARK    8  A    between atoms: C_12  and  C_13
REMARK    9  A    between atoms: O_14  and  C_15
REMARK   10  A    between atoms: C_16  and  C_17
REMARK   11  A    between atoms: C_17  and  C_18
REMARK                            x       y       z     vdW  Elec       q    Type
REMARK                         _______ _______ _______ _____ _____    ______ ____
ROOT
ATOM      1  C   UNL     1       2.055   4.078  19.860  0.00  0.00    +0.000 A 
ATOM      2  N   UNL     1       1.654   5.337  19.713  0.00  0.00    +0.000 NA
ATOM      3  N   UNL     1       2.677   5.958  19.095  0.00  0.00    +0.000 N 
ATOM      4  C   UNL     1       2.560   7.392  18.987  0.00  0.00    +0.000 C 
ATOM      5  C   UNL     1       3.741   5.116  18.803  0.00  0.00    +0.000 A 
ATOM      6  C   UNL     1       3.339   3.859  19.279  0.00  0.00    +0.000 A 
ENDROOT
BRANCH   5   7
ATOM      7  N   UNL     1       4.964   5.448  18.210  0.00  0.00    +0.000 N 
ATOM      8  C   UNL     1       6.228   5.338  18.797  0.00  0.00    +0.000 C 
ATOM      9  O   UNL     1       6.460   5.030  19.952  0.00  0.00    +0.000 OA
ATOM     10  H   UNL     1       4.941   5.888  17.293  0.00  0.00    +0.000 HD
BRANCH   8  11
ATOM     11  C   UNL     1       7.428   5.643  17.859  0.00  0.00    +0.000 C 
BRANCH  11  12
ATOM     12  C   UNL     1       7.179   6.966  17.098  0.00  0.00    +0.000 C 
ATOM     13  C   UNL     1       7.890   8.125  17.774  0.00  0.00    +0.000 C 
ENDBRANCH  11  12
BRANCH  11  14
ATOM     14  O   UNL     1       7.750   4.590  16.950  0.00  0.00    +0.000 OA
ATOM     15  C   UNL     1       7.100   4.760  15.689  0.00  0.00    +0.000 C 
ENDBRANCH  11  14
ENDBRANCH   8  11
ENDBRANCH   5   7
BRANCH   1  17
ATOM     16  C   UNL     1       1.714   2.707  21.934  0.00  0.00    +0.000 C 
ATOM     17  C   UNL     1       1.169   3.112  20.573  0.00  0.00    +0.000 C 
ENDBRANCH   1  17
BRANCH   6  18
ATOM     18  C   UNL     1       3.992   2.509  19.169  0.00  0.00    +0.000 C 
ATOM     19  C   UNL     1       3.441   1.601  18.078  0.00  0.00    +0.000 C 
ENDBRANCH   6  18
TORSDOF 6
ENDMDL
MODEL 2
REMARK VINA RESULT:      -6.5      1.121      2.066
REMARK  Name = 
REMARK  11 active torsions:
REMARK  status: ('A' for Active; 'I' for Inactive)
REMARK    1  A    between atoms: C_1  and  C_2
REMARK    2  A    between atoms: C_2  and  C_3
REMARK    3  A    between atoms: N_5  and  C_6
REMARK    4  A    between atoms: C_7  and  N_8
REMARK    5  A    between atoms: C_9  and  C_11
REMARK    6  A    between atoms: C_11  and  C_12
REMARK    7  A    between atoms: C_11  and  O_14
REMARK    8  A    between atoms: C_12  and  C_13
REMARK    9  A    between atoms: O_14  and  C_15
REMARK   10  A    between atoms: C_16  and  C_17
REMARK   11  A    between atoms: C_17  and  C_18
REMARK                            x       y       z     vdW  Elec       q    Type
REMARK                         _______ _______ _______ _____ _____    ______ ____
ROOT
ATOM      1  C   UNL     1       1.629   4.000  19.533  0.00  0.00    +0.000 A 
ATOM      2  N   UNL     1       1.530   5.279  19.881  0.00  0.00    +0.000 NA
ATOM      3  N   UNL     1       2.412   5.923  19.093  0.00  0.00    +0.000 N 
ATOM      4  C   UNL     1       2.629   7.315  19.411  0.00  0.00    +0.000 C 
ATOM      5  C   UNL     1       3.074   5.088  18.203  0.00  0.00    +0.000 A 
ATOM      6  C   UNL     1       2.551   3.813  18.461  0.00  0.00    +0.000 A 
ENDROOT
BRANCH   5   7
ATOM      7  N   UNL     1       4.073   5.428  17.285  0.00  0.00    +0.000 N 
ATOM      8  C   UNL     1       5.420   5.056  17.350  0.00  0.00    +0.000 C 
ATOM      9  O   UNL     1       5.959   4.460  18.265  0.00  0.00    +0.000 OA
ATOM     10  H   UNL     1       3.830   6.073  16.538  0.00  0.00    +0.000 HD
BRANCH   8  11
ATOM     11  C   UNL     1       6.281   5.453  16.118  0.00  0.00    +0.000 C 
BRANCH  11  12
ATOM     12  C   UNL     1       6.630   4.194  15.293  0.00  0.00    +0.000 C 
ATOM     13  C   UNL     1       5.787   4.118  14.032  0.00  0.00    +0.000 C 
ENDBRANCH  11  12
BRANCH  11  14
ATOM     14  O   UNL     1       7.460   6.193  16.436  0.00  0.00    +0.000 OA
ATOM     15  C   UNL     1       7.170   7.325  17.259  0.00  0.00    +0.000 C 
ENDBRANCH  11  14
ENDBRANCH   8  11
ENDBRANCH   5   7
BRANCH   1  17
ATOM     16  C   UNL     1       1.443   2.570  21.587  0.00  0.00    +0.000 C 
ATOM     17  C   UNL     1       0.818   2.983  20.263  0.00  0.00    +0.000 C 
ENDBRANCH   1  17
BRANCH   6  18
ATOM     18  C   UNL     1       2.772   2.499  17.763  0.00  0.00    +0.000 C 
ATOM     19  C   UNL     1       3.657   1.505  18.502  0.00  0.00    +0.000 C 
ENDBRANCH   6  18
TORSDOF 6
ENDMDL
MODEL 3
REMARK VINA RESULT:      -6.2      0.895      1.768
REMARK  Name = 
REMARK  11 active torsions:
REMARK  status: ('A' for Active; 'I' for Inactive)
REMARK    1  A    between atoms: C_1  and  C_2
REMARK    2  A    between atoms: C_2  and  C_3
REMARK    3  A    between atoms: N_5  and  C_6
REMARK    4  A    between atoms: C_7  and  N_8
REMARK    5  A    between atoms: C_9  and  C_11
REMARK    6  A    between atoms: C_11  and  C_12
REMARK    7  A    between atoms: C_11  and  O_14
REMARK    8  A    between atoms: C_12  and  C_13
REMARK    9  A    between atoms: O_14  and  C_15
REMARK   10  A    between atoms: C_16  and  C_17
REMARK   11  A    between atoms: C_17  and  C_18
REMARK                            x       y       z     vdW  Elec       q    Type
REMARK                         _______ _______ _______ _____ _____    ______ ____
ROOT
ATOM      1  C   UNL     1       1.753   4.125  20.043  0.00  0.00    +0.000 A 
ATOM      2  N   UNL     1       1.387   5.391  20.210  0.00  0.00    +0.000 NA
ATOM      3  N   UNL     1       2.333   6.113  19.580  0.00  0.00    +0.000 N 
ATOM      4  C   UNL     1       2.261   7.541  19.778  0.00  0.00    +0.000 C 
ATOM      5  C   UNL     1       3.308   5.336  18.969  0.00  0.00    +0.000 A 
ATOM      6  C   UNL     1       2.928   4.014  19.242  0.00  0.00    +0.000 A 
ENDROOT
BRANCH   5   7
ATOM      7  N   UNL     1       4.443   5.769  18.275  0.00  0.00    +0.000 N 
ATOM      8  C   UNL     1       5.773   5.591  18.668  0.00  0.00    +0.000 C 
ATOM      9  O   UNL     1       6.154   5.120  19.724  0.00  0.00    +0.000 OA
ATOM     10  H   UNL     1       4.301   6.338  17.444  0.00  0.00    +0.000 HD
BRANCH   8  11
ATOM     11  C   UNL     1       6.841   6.047  17.635  0.00  0.00    +0.000 C 
BRANCH  11  12
ATOM     12  C   UNL     1       7.423   4.816  16.903  0.00  0.00    +0.000 C 
ATOM     13  C   UNL     1       6.407   4.222  15.943  0.00  0.00    +0.000 C 
ENDBRANCH  11  12
BRANCH  11  14
ATOM     14  O   UNL     1       7.886   6.852  18.181  0.00  0.00    +0.000 OA
ATOM     15  C   UNL     1       7.857   8.183  17.661  0.00  0.00    +0.000 C 
ENDBRANCH  11  14
ENDBRANCH   8  11
ENDBRANCH   5   7
BRANCH   1  17
ATOM     16  C   UNL     1       1.530   2.562  21.993  0.00  0.00    +0.000 C 
ATOM     17  C   UNL     1       0.942   3.044  20.676  0.00  0.00    +0.000 C 
ENDBRANCH   1  17
BRANCH   6  18
ATOM     18  C   UNL     1       3.502   2.708  18.769  0.00  0.00    +0.000 C 
ATOM     19  C   UNL     1       4.465   2.027  19.732  0.00  0.00    +0.000 C 
ENDBRANCH   6  18
TORSDOF 6
ENDMDL
MODEL 4
REMARK VINA RESULT:      -6.1      1.081      1.238
REMARK  Name = 
REMARK  11 active torsions:
REMARK  status: ('A' for Active; 'I' for Inactive)
REMARK    1  A    between atoms: C_1  and  C_2
REMARK    2  A    between atoms: C_2  and  C_3
REMARK    3  A    between atoms: N_5  and  C_6
REMARK    4  A    between atoms: C_7  and  N_8
REMARK    5  A    between atoms: C_9  and  C_11
REMARK    6  A    between atoms: C_11  and  C_12
REMARK    7  A    between atoms: C_11  and  O_14
REMARK    8  A    between atoms: C_12  and  C_13
REMARK    9  A    between atoms: O_14  and  C_15
REMARK   10  A    between atoms: C_16  and  C_17
REMARK   11  A    between atoms: C_17  and  C_18
REMARK                            x       y       z     vdW  Elec       q    Type
REMARK                         _______ _______ _______ _____ _____    ______ ____
ROOT
ATOM      1  C   UNL     1       1.643   3.962  19.530  0.00  0.00    +0.000 A 
ATOM      2  N   UNL     1       1.617   5.287  19.636  0.00  0.00    +0.000 NA
ATOM      3  N   UNL     1       2.623   5.719  18.850  0.00  0.00    +0.000 N 
ATOM      4  C   UNL     1       2.922   7.127  18.942  0.00  0.00    +0.000 C 
ATOM      5  C   UNL     1       3.296   4.694  18.199  0.00  0.00    +0.000 A 
ATOM      6  C   UNL     1       2.646   3.523  18.616  0.00  0.00    +0.000 A 
ENDROOT
BRANCH   5   7
ATOM      7  N   UNL     1       4.405   4.795  17.352  0.00  0.00    +0.000 N 
ATOM      8  C   UNL     1       5.729   4.490  17.680  0.00  0.00    +0.000 C 
ATOM      9  O   UNL     1       6.144   4.183  18.783  0.00  0.00    +0.000 OA
ATOM     10  H   UNL     1       4.261   5.204  16.432  0.00  0.00    +0.000 HD
BRANCH   8  11
ATOM     11  C   UNL     1       6.740   4.557  16.502  0.00  0.00    +0.000 C 
BRANCH  11  12
ATOM     12  C   UNL     1       6.999   6.031  16.115  0.00  0.00    +0.000 C 
ATOM     13  C   UNL     1       7.415   6.848  17.325  0.00  0.00    +0.000 C 
ENDBRANCH  11  12
BRANCH  11  14
ATOM     14  O   UNL     1       6.365   3.791  15.357  0.00  0.00    +0.000 OA
ATOM     15  C   UNL     1       6.590   4.507  14.142  0.00  0.00    +0.000 C 
ENDBRANCH  11  14
ENDBRANCH   8  11
ENDBRANCH   5   7
BRANCH   1  17
ATOM     16  C   UNL     1       1.291   2.618  21.619  0.00  0.00    +0.000 C 
ATOM     17  C   UNL     1       0.682   3.150  20.332  0.00  0.00    +0.000 C 
ENDBRANCH   1  17
BRANCH   6  18
ATOM     18  C   UNL     1       2.823   2.093  18.187  0.00  0.00    +0.000 C 
ATOM     19  C   UNL     1       3.944   1.334  18.884  0.00  0.00    +0.000 C 
ENDBRANCH   6  18
TORSDOF 6
ENDMDL
MODEL 5
REMARK VINA RESULT:      -6.0      1.446      3.091
REMARK  Name = 
REMARK  11 active torsions:
REMARK  status: ('A' for Active; 'I' for Inactive)
REMARK    1  A    between atoms: C_1  and  C_2
REMARK    2  A    between atoms: C_2  and  C_3
REMARK    3  A    between atoms: N_5  and  C_6
REMARK    4  A    between atoms: C_7  and  N_8
REMARK    5  A    between atoms: C_9  and  C_11
REMARK    6  A    between atoms: C_11  and  C_12
REMARK    7  A    between atoms: C_11  and  O_14
REMARK    8  A    between atoms: C_12  and  C_13
REMARK    9  A    between atoms: O_14  and  C_15
REMARK   10  A    between atoms: C_16  and  C_17
REMARK   11  A    between atoms: C_17  and  C_18
REMARK                            x       y       z     vdW  Elec       q    Type
REMARK                         _______ _______ _______ _____ _____    ______ ____
ROOT
ATOM      1  C   UNL     1       2.095   3.809  19.718  0.00  0.00    +0.000 A 
ATOM      2  N   UNL     1       2.524   2.661  19.201  0.00  0.00    +0.000 NA
ATOM      3  N   UNL     1       3.462   3.014  18.301  0.00  0.00    +0.000 N 
ATOM      4  C   UNL     1       3.953   1.946  17.464  0.00  0.00    +0.000 C 
ATOM      5  C   UNL     1       3.682   4.383  18.238  0.00  0.00    +0.000 A 
ATOM      6  C   UNL     1       2.804   4.927  19.187  0.00  0.00    +0.000 A 
ENDROOT
BRANCH   5   7
ATOM      7  N   UNL     1       4.550   5.077  17.387  0.00  0.00    +0.000 N 
ATOM      8  C   UNL     1       5.945   4.991  17.377  0.00  0.00    +0.000 C 
ATOM      9  O   UNL     1       6.634   4.377  18.171  0.00  0.00    +0.000 OA
ATOM     10  H   UNL     1       4.146   5.773  16.765  0.00  0.00    +0.000 HD
BRANCH   8  11
ATOM     11  C   UNL     1       6.652   5.764  16.228  0.00  0.00    +0.000 C 
BRANCH  11  12
ATOM     12  C   UNL     1       7.090   4.777  15.122  0.00  0.00    +0.000 C 
ATOM     13  C   UNL     1       5.888   4.237  14.368  0.00  0.00    +0.000 C 
ENDBRANCH  11  12
BRANCH  11  14
ATOM     14  O   UNL     1       7.752   6.572  16.650  0.00  0.00    +0.000 OA
ATOM     15  C   UNL     1       7.317   7.719  17.382  0.00  0.00    +0.000 C 
ENDBRANCH  11  14
ENDBRANCH   8  11
ENDBRANCH   5   7
BRANCH   1  17
ATOM     16  C   UNL     1       1.224   2.771  21.829  0.00  0.00    +0.000 C 
ATOM     17  C   UNL     1       0.992   3.787  20.723  0.00  0.00    +0.000 C 
ENDBRANCH   1  17
BRANCH   6  18
ATOM     18  C   UNL     1       2.636   6.338  19.678  0.00  0.00    +0.000 C 
ATOM     19  C   UNL     1       2.445   7.391  18.594  0.00  0.00    +0.000 C 
ENDBRANCH   6  18
TORSDOF 6
ENDMDL
MODEL 6
REMARK VINA RESULT:      -6.0      1.263      1.269
REMARK  Name = 
REMARK  11 active torsions:
REMARK  status: ('A' for Active; 'I' for Inactive)
REMARK    1  A    between atoms: C_1  and  C_2
REMARK    2  A    between atoms: C_2  and  C_3
REMARK    3  A    between atoms: N_5  and  C_6
REMARK    4  A    between atoms: C_7  and  N_8
REMARK    5  A    between atoms: C_9  and  C_11
REMARK    6  A    between atoms: C_11  and  C_12
REMARK    7  A    between atoms: C_11  and  O_14
REMARK    8  A    between atoms: C_12  and  C_13
REMARK    9  A    between atoms: O_14  and  C_15
REMARK   10  A    between atoms: C_16  and  C_17
REMARK   11  A    between atoms: C_17  and  C_18
REMARK                            x       y       z     vdW  Elec       q    Type
REMARK                         _______ _______ _______ _____ _____    ______ ____
ROOT
ATOM      1  C   UNL     1       2.044   4.062  19.986  0.00  0.00    +0.000 A 
ATOM      2  N   UNL     1       1.785   5.328  19.675  0.00  0.00    +0.000 NA
ATOM      3  N   UNL     1       2.915   5.782  19.099  0.00  0.00    +0.000 N 
ATOM      4  C   UNL     1       2.952   7.201  18.837  0.00  0.00    +0.000 C 
ATOM      5  C   UNL     1       3.911   4.820  18.997  0.00  0.00    +0.000 A 
ATOM      6  C   UNL     1       3.345   3.666  19.556  0.00  0.00    +0.000 A 
ENDROOT
BRANCH   5   7
ATOM      7  N   UNL     1       5.207   4.974  18.494  0.00  0.00    +0.000 N 
ATOM      8  C   UNL     1       5.554   5.274  17.174  0.00  0.00    +0.000 C 
ATOM      9  O   UNL     1       4.790   5.353  16.229  0.00  0.00    +0.000 OA
ATOM     10  H   UNL     1       5.984   4.772  19.119  0.00  0.00    +0.000 HD
BRANCH   8  11
ATOM     11  C   UNL     1       7.067   5.529  16.923  0.00  0.00    +0.000 C 
BRANCH  11  12
ATOM     12  C   UNL     1       7.623   6.490  17.998  0.00  0.00    +0.000 C 
ATOM     13  C   UNL     1       7.610   7.926  17.504  0.00  0.00    +0.000 C 
ENDBRANCH  11  12
BRANCH  11  14
ATOM     14  O   UNL     1       7.377   6.002  15.611  0.00  0.00    +0.000 OA
ATOM     15  C   UNL     1       7.332   4.951  14.644  0.00  0.00    +0.000 C 
ENDBRANCH  11  14
ENDBRANCH   8  11
ENDBRANCH   5   7
BRANCH   1  17
ATOM     16  C   UNL     1       1.529   2.641  21.989  0.00  0.00    +0.000 C 
ATOM     17  C   UNL     1       1.007   3.264  20.704  0.00  0.00    +0.000 C 
ENDBRANCH   1  17
BRANCH   6  18
ATOM     18  C   UNL     1       3.866   2.258  19.646  0.00  0.00    +0.000 C 
ATOM     19  C   UNL     1       3.649   1.398  18.409  0.00  0.00    +0.000 C 
ENDBRANCH   6  18
TORSDOF 6
ENDMDL
MODEL 7
REMARK VINA RESULT:      -5.9      1.125      1.881
REMARK  Name = 
REMARK  11 active torsions:
REMARK  status: ('A' for Active; 'I' for Inactive)
REMARK    1  A    between atoms: C_1  and  C_2
REMARK    2  A    between atoms: C_2  and  C_3
REMARK    3  A    between atoms: N_5  and  C_6
REMARK    4  A    between atoms: C_7  and  N_8
REMARK    5  A    between atoms: C_9  and  C_11
REMARK    6  A    between atoms: C_11  and  C_12
REMARK    7  A    between atoms: C_11  and  O_14
REMARK    8  A    between atoms: C_12  and  C_13
REMARK    9  A    between atoms: O_14  and  C_15
REMARK   10  A    between atoms: C_16  and  C_17
REMARK   11  A    between atoms: C_17  and  C_18
REMARK                            x       y       z     vdW  Elec       q    Type
REMARK                         _______ _______ _______ _____ _____    ______ ____
ROOT
ATOM      1  C   UNL     1       2.458   4.475  20.714  0.00  0.00    +0.000 A 
ATOM      2  N   UNL     1       1.831   5.647  20.738  0.00  0.00    +0.000 NA
ATOM      3  N   UNL     1       2.401   6.367  19.752  0.00  0.00    +0.000 N 
ATOM      4  C   UNL     1       2.018   7.757  19.697  0.00  0.00    +0.000 C 
ATOM      5  C   UNL     1       3.379   5.673  19.054  0.00  0.00    +0.000 A 
ATOM      6  C   UNL     1       3.415   4.408  19.658  0.00  0.00    +0.000 A 
ENDROOT
BRANCH   5   7
ATOM      7  N   UNL     1       4.186   6.140  18.010  0.00  0.00    +0.000 N 
ATOM      8  C   UNL     1       5.583   6.105  17.963  0.00  0.00    +0.000 C 
ATOM      9  O   UNL     1       6.325   5.754  18.863  0.00  0.00    +0.000 OA
ATOM     10  H   UNL     1       3.731   6.625  17.241  0.00  0.00    +0.000 HD
BRANCH   8  11
ATOM     11  C   UNL     1       6.216   6.561  16.619  0.00  0.00    +0.000 C 
BRANCH  11  12
ATOM     12  C   UNL     1       5.983   5.484  15.535  0.00  0.00    +0.000 C 
ATOM     13  C   UNL     1       6.876   4.277  15.766  0.00  0.00    +0.000 C 
ENDBRANCH  11  12
BRANCH  11  14
ATOM     14  O   UNL     1       7.600   6.903  16.704  0.00  0.00    +0.000 OA
ATOM     15  C   UNL     1       7.805   8.104  17.449  0.00  0.00    +0.000 C 
ENDBRANCH  11  14
ENDBRANCH   8  11
ENDBRANCH   5   7
BRANCH   1  17
ATOM     16  C   UNL     1       1.141   2.395  21.199  0.00  0.00    +0.000 C 
ATOM     17  C   UNL     1       2.107   3.442  21.731  0.00  0.00    +0.000 C 
ENDBRANCH   1  17
BRANCH   6  18
ATOM     18  C   UNL     1       4.180   3.165  19.296  0.00  0.00    +0.000 C 
ATOM     19  C   UNL     1       3.562   2.312  18.196  0.00  0.00    +0.000 C 
ENDBRANCH   6  18
TORSDOF 6
ENDMDL
MODEL 8
REMARK VINA RESULT:      -5.9      1.402      2.561
REMARK  Name = 
REMARK  11 active torsions:
REMARK  status: ('A' for Active; 'I' for Inactive)
REMARK    1  A    between atoms: C_1  and  C_2
REMARK    2  A    between atoms: C_2  and  C_3
REMARK    3  A    between atoms: N_5  and  C_6
REMARK    4  A    between atoms: C_7  and  N_8
REMARK    5  A    between atoms: C_9  and  C_11
REMARK    6  A    between atoms: C_11  and  C_12
REMARK    7  A    between atoms: C_11  and  O_14
REMARK    8  A    between atoms: C_12  and  C_13
REMARK    9  A    between atoms: O_14  and  C_15
REMARK   10  A    between atoms: C_16  and  C_17
REMARK   11  A    between atoms: C_17  and  C_18
REMARK                            x       y       z     vdW  Elec       q    Type
REMARK                         _______ _______ _______ _____ _____    ______ ____
ROOT
ATOM      1  C   UNL     1       2.123   3.638  19.556  0.00  0.00    +0.000 A 
ATOM      2  N   UNL     1       2.565   2.557  18.920  0.00  0.00    +0.000 NA
ATOM      3  N   UNL     1       3.581   2.996  18.152  0.00  0.00    +0.000 N 
ATOM      4  C   UNL     1       4.111   2.036  17.215  0.00  0.00    +0.000 C 
ATOM      5  C   UNL     1       3.838   4.353  18.296  0.00  0.00    +0.000 A 
ATOM      6  C   UNL     1       2.900   4.792  19.241  0.00  0.00    +0.000 A 
ENDROOT
BRANCH   5   7
ATOM      7  N   UNL     1       4.787   5.125  17.618  0.00  0.00    +0.000 N 
ATOM      8  C   UNL     1       6.175   5.061  17.778  0.00  0.00    +0.000 C 
ATOM      9  O   UNL     1       6.775   4.394  18.601  0.00  0.00    +0.000 OA
ATOM     10  H   UNL     1       4.447   5.864  17.008  0.00  0.00    +0.000 HD
BRANCH   8  11
ATOM     11  C   UNL     1       7.000   5.934  16.792  0.00  0.00    +0.000 C 
BRANCH  11  12
ATOM     12  C   UNL     1       6.989   7.408  17.258  0.00  0.00    +0.000 C 
ATOM     13  C   UNL     1       8.114   7.676  18.242  0.00  0.00    +0.000 C 
ENDBRANCH  11  12
BRANCH  11  14
ATOM     14  O   UNL     1       6.591   5.832  15.427  0.00  0.00    +0.000 OA
ATOM     15  C   UNL     1       6.933   4.564  14.865  0.00  0.00    +0.000 C 
ENDBRANCH  11  14
ENDBRANCH   8  11
ENDBRANCH   5   7
BRANCH   1  17
ATOM     16  C   UNL     1       1.283   2.856  21.787  0.00  0.00    +0.000 C 
ATOM     17  C   UNL     1       0.943   3.517  20.461  0.00  0.00    +0.000 C 
ENDBRANCH   1  17
BRANCH   6  18
ATOM     18  C   UNL     1       2.727   6.128  19.909  0.00  0.00    +0.000 C 
ATOM     19  C   UNL     1       2.453   7.298  18.973  0.00  0.00    +0.000 C 
ENDBRANCH   6  18
TORSDOF 6
ENDMDL
MODEL 9
REMARK VINA RESULT:      -5.8      2.322      6.018
REMARK  Name = 
REMARK  11 active torsions:
REMARK  status: ('A' for Active; 'I' for Inactive)
REMARK    1  A    between atoms: C_1  and  C_2
REMARK    2  A    between atoms: C_2  and  C_3
REMARK    3  A    between atoms: N_5  and  C_6
REMARK    4  A    between atoms: C_7  and  N_8
REMARK    5  A    between atoms: C_9  and  C_11
REMARK    6  A    between atoms: C_11  and  C_12
REMARK    7  A    between atoms: C_11  and  O_14
REMARK    8  A    between atoms: C_12  and  C_13
REMARK    9  A    between atoms: O_14  and  C_15
REMARK   10  A    between atoms: C_16  and  C_17
REMARK   11  A    between atoms: C_17  and  C_18
REMARK                            x       y       z     vdW  Elec       q    Type
REMARK                         _______ _______ _______ _____ _____    ______ ____
ROOT
ATOM      1  C   UNL     1       7.546   7.308  17.999  0.00  0.00    +0.000 A 
ATOM      2  N   UNL     1       8.367   6.855  18.941  0.00  0.00    +0.000 NA
ATOM      3  N   UNL     1       7.819   5.695  19.352  0.00  0.00    +0.000 N 
ATOM      4  C   UNL     1       8.431   5.095  20.513  0.00  0.00    +0.000 C 
ATOM      5  C   UNL     1       6.658   5.357  18.669  0.00  0.00    +0.000 A 
ATOM      6  C   UNL     1       6.473   6.400  17.750  0.00  0.00    +0.000 A 
ENDROOT
BRANCH   5   7
ATOM      7  N   UNL     1       5.828   4.251  18.877  0.00  0.00    +0.000 N 
ATOM      8  C   UNL     1       4.520   4.277  19.372  0.00  0.00    +0.000 C 
ATOM      9  O   UNL     1       3.930   5.255  19.794  0.00  0.00    +0.000 OA
ATOM     10  H   UNL     1       6.227   3.327  18.736  0.00  0.00    +0.000 HD
BRANCH   8  11
ATOM     11  C   UNL     1       3.778   2.911  19.367  0.00  0.00    +0.000 C 
BRANCH  11  12
ATOM     12  C   UNL     1       3.606   2.412  17.915  0.00  0.00    +0.000 C 
ATOM     13  C   UNL     1       2.550   3.221  17.182  0.00  0.00    +0.000 C 
ENDBRANCH  11  12
BRANCH  11  14
ATOM     14  O   UNL     1       2.526   2.917  20.053  0.00  0.00    +0.000 OA
ATOM     15  C   UNL     1       2.674   2.578  21.433  0.00  0.00    +0.000 C 
ENDBRANCH  11  14
ENDBRANCH   8  11
ENDBRANCH   5   7
BRANCH   1  17
ATOM     16  C   UNL     1       8.574   9.579  18.282  0.00  0.00    +0.000 C 
ATOM     17  C   UNL     1       7.828   8.626  17.361  0.00  0.00    +0.000 C 
ENDBRANCH   1  17
BRANCH   6  18
ATOM     18  C   UNL     1       5.465   6.575  16.648  0.00  0.00    +0.000 C 
ATOM     19  C   UNL     1       5.483   5.502  15.568  0.00  0.00    +0.000 C 
ENDBRANCH   6  18
TORSDOF 6
ENDMDL
