MODEL 1
REMARK VINA RESULT:      -8.3      0.000      0.000
REMARK  Name = 
REMARK  12 active torsions:
REMARK  status: ('A' for Active; 'I' for Inactive)
REMARK    1  A    between atoms: C_8  and  C_9
REMARK    2  A    between atoms: C_9  and  N_10
REMARK    3  A    between atoms: N_10  and  C_11
REMARK    4  A    between atoms: C_14  and  S_15
REMARK    5  A    between atoms: S_15  and  N_18
REMARK    6  A    between atoms: N_18  and  C_19
REMARK    7  A    between atoms: C_19  and  C_20
REMARK    8  A    between atoms: C_19  and  C_25
REMARK    9  A    between atoms: C_20  and  C_21
REMARK   10  A    between atoms: C_21  and  C_22
REMARK   11  A    between atoms: C_22  and  O_24
REMARK   12  A    between atoms: C_25  and  O_27
REMARK                            x       y       z     vdW  Elec       q    Type
REMARK                         _______ _______ _______ _____ _____    ______ ____
ROOT
ATOM      1  C   UNL     1       2.192   7.769  18.952  0.00  0.00    +0.000 A 
ATOM      2  C   UNL     1       2.984   7.962  17.809  0.00  0.00    +0.000 A 
ATOM      3  C   UNL     1       4.076   7.142  17.523  0.00  0.00    +0.000 A 
ATOM      4  C   UNL     1       4.428   6.130  18.412  0.00  0.00    +0.000 A 
ATOM      5  C   UNL     1       3.666   5.917  19.567  0.00  0.00    +0.000 A 
ATOM      6  C   UNL     1       2.564   6.749  19.838  0.00  0.00    +0.000 A 
ENDROOT
BRANCH   4   7
ATOM      7  S   UNL     1       5.873   5.147  18.076  0.00  0.00    +0.000 S 
ATOM      8  O   UNL     1       6.436   5.631  16.837  0.00  0.00    +0.000 OA
ATOM      9  O   UNL     1       6.657   5.038  19.286  0.00  0.00    +0.000 OA
BRANCH   7  10
ATOM     10  N   UNL     1       5.257   3.624  17.750  0.00  0.00    +0.000 NA
ATOM     11  H   UNL     1       5.994   2.914  17.678  0.00  0.00    +0.000 HD
BRANCH  10  12
ATOM     12  C   UNL     1       3.993   3.156  18.379  0.00  0.00    +0.000 C 
BRANCH  12  13
ATOM     13  C   UNL     1       4.295   1.826  19.093  0.00  0.00    +0.000 C 
ATOM     14  O   UNL     1       4.903   1.750  20.154  0.00  0.00    +0.000 OA
BRANCH  13  15
ATOM     15  O   UNL     1       3.854   0.721  18.449  0.00  0.00    +0.000 OA
ATOM     16  H   UNL     1       3.757   0.796  17.480  0.00  0.00    +0.000 HD
ENDBRANCH  13  15
ENDBRANCH  12  13
BRANCH  12  17
ATOM     17  C   UNL     1       2.898   2.948  17.329  0.00  0.00    +0.000 C 
BRANCH  17  18
ATOM     18  C   UNL     1       1.579   3.607  17.746  0.00  0.00    +0.000 C 
BRANCH  18  19
ATOM     19  C   UNL     1       0.966   2.986  18.972  0.00  0.00    +0.000 C 
ATOM     20  O   UNL     1       0.672   3.589  19.990  0.00  0.00    +0.000 OA
BRANCH  19  21
ATOM     21  O   UNL     1       0.830   1.646  18.837  0.00  0.00    +0.000 OA
ATOM     22  H   UNL     1       1.381   1.267  18.125  0.00  0.00    +0.000 HD
ENDBRANCH  19  21
ENDBRANCH  18  19
ENDBRANCH  17  18
ENDBRANCH  12  17
ENDBRANCH  10  12
ENDBRANCH   7  10
ENDBRANCH   4   7
BRANCH   1  23
ATOM     23  N   UNL     1       1.175   8.683  19.197  0.00  0.00    +0.000 N 
ATOM     24  H   UNL     1       0.982   8.808  20.195  0.00  0.00    +0.000 HD
BRANCH  23  25
ATOM     25  C   UNL     1       1.112   9.980  18.526  0.00  0.00    +0.000 C 
BRANCH  25  33
ATOM     26  N   UNL     1      -6.114  12.221  17.127  0.00  0.00    +0.000 N 
ATOM     27  C   UNL     1      -4.846  11.682  17.184  0.00  0.00    +0.000 A 
ATOM     28  N   UNL     1      -4.429  10.983  16.132  0.00  0.00    +0.000 NA
ATOM     29  C   UNL     1      -3.182  10.489  16.204  0.00  0.00    +0.000 A 
ATOM     30  N   UNL     1      -2.782   9.701  15.110  0.00  0.00    +0.000 N 
ATOM     31  C   UNL     1      -2.337  10.653  17.296  0.00  0.00    +0.000 A 
ATOM     32  N   UNL     1      -1.052  10.184  17.332  0.00  0.00    +0.000 NA
ATOM     33  C   UNL     1      -0.334  10.452  18.448  0.00  0.00    +0.000 A 
ATOM     34  C   UNL     1      -0.915  11.141  19.491  0.00  0.00    +0.000 A 
ATOM     35  N   UNL     1      -2.195  11.602  19.456  0.00  0.00    +0.000 NA
ATOM     36  C   UNL     1      -2.912  11.378  18.347  0.00  0.00    +0.000 A 
ATOM     37  N   UNL     1      -4.148  11.876  18.296  0.00  0.00    +0.000 NA
ATOM     38  H   UNL     1      -6.690  11.706  16.476  0.00  0.00    +0.000 HD
ATOM     39  H   UNL     1      -6.479  12.366  18.057  0.00  0.00    +0.000 HD
ATOM     40  H   UNL     1      -3.445   9.810  14.351  0.00  0.00    +0.000 HD
ATOM     41  H   UNL     1      -1.815   9.886  14.856  0.00  0.00    +0.000 HD
ENDBRANCH  25  33
ENDBRANCH  23  25
ENDBRANCH   1  23
TORSDOF 12
ENDMDL
MODEL 2
REMARK VINA RESULT:      -8.2      3.287      5.094
REMARK  Name = 
REMARK  12 active torsions:
REMARK  status: ('A' for Active; 'I' for Inactive)
REMARK    1  A    between atoms: C_8  and  C_9
REMARK    2  A    between atoms: C_9  and  N_10
REMARK    3  A    between atoms: N_10  and  C_11
REMARK    4  A    between atoms: C_14  and  S_15
REMARK    5  A    between atoms: S_15  and  N_18
REMARK    6  A    between atoms: N_18  and  C_19
REMARK    7  A    between atoms: C_19  and  C_20
REMARK    8  A    between atoms: C_19  and  C_25
REMARK    9  A    between atoms: C_20  and  C_21
REMARK   10  A    between atoms: C_21  and  C_22
REMARK   11  A    between atoms: C_22  and  O_24
REMARK   12  A    between atoms: C_25  and  O_27
REMARK                            x       y       z     vdW  Elec       q    Type
REMARK                         _______ _______ _______ _____ _____    ______ ____
ROOT
ATOM      1  C   UNL     1       1.182   9.770  19.125  0.00  0.00    +0.000 A 
ATOM      2  C   UNL     1       1.265   8.842  20.175  0.00  0.00    +0.000 A 
ATOM      3  C   UNL     1       1.929   7.624  20.029  0.00  0.00    +0.000 A 
ATOM      4  C   UNL     1       2.489   7.288  18.799  0.00  0.00    +0.000 A 
ATOM      5  C   UNL     1       2.415   8.186  17.728  0.00  0.00    +0.000 A 
ATOM      6  C   UNL     1       1.746   9.414  17.893  0.00  0.00    +0.000 A 
ENDROOT
BRANCH   4   7
ATOM      7  S   UNL     1       3.258   5.695  18.605  0.00  0.00    +0.000 S 
ATOM      8  O   UNL     1       3.642   5.246  19.923  0.00  0.00    +0.000 OA
ATOM      9  O   UNL     1       2.447   4.887  17.723  0.00  0.00    +0.000 OA
BRANCH   7  10
ATOM     10  N   UNL     1       4.683   6.033  17.791  0.00  0.00    +0.000 NA
ATOM     11  H   UNL     1       5.246   6.744  18.272  0.00  0.00    +0.000 HD
BRANCH  10  12
ATOM     12  C   UNL     1       5.464   4.954  17.129  0.00  0.00    +0.000 C 
BRANCH  12  13
ATOM     13  C   UNL     1       6.951   5.202  17.440  0.00  0.00    +0.000 C 
ATOM     14  O   UNL     1       7.576   6.172  17.032  0.00  0.00    +0.000 OA
BRANCH  13  15
ATOM     15  O   UNL     1       7.540   4.247  18.196  0.00  0.00    +0.000 OA
ATOM     16  H   UNL     1       7.364   3.322  17.937  0.00  0.00    +0.000 HD
ENDBRANCH  13  15
ENDBRANCH  12  13
BRANCH  12  17
ATOM     17  C   UNL     1       5.239   4.961  15.615  0.00  0.00    +0.000 C 
BRANCH  17  18
ATOM     18  C   UNL     1       6.079   3.889  14.912  0.00  0.00    +0.000 C 
BRANCH  18  19
ATOM     19  C   UNL     1       6.838   4.412  13.723  0.00  0.00    +0.000 C 
ATOM     20  O   UNL     1       6.756   3.970  12.590  0.00  0.00    +0.000 OA
BRANCH  19  21
ATOM     21  O   UNL     1       7.684   5.410  14.072  0.00  0.00    +0.000 OA
ATOM     22  H   UNL     1       8.610   5.247  13.808  0.00  0.00    +0.000 HD
ENDBRANCH  19  21
ENDBRANCH  18  19
ENDBRANCH  17  18
ENDBRANCH  12  17
ENDBRANCH  10  12
ENDBRANCH   7  10
ENDBRANCH   4   7
BRANCH   1  23
ATOM     23  N   UNL     1       0.432  10.921  19.336  0.00  0.00    +0.000 N 
ATOM     24  H   UNL     1      -0.576  10.763  19.248  0.00  0.00    +0.000 HD
BRANCH  23  25
ATOM     25  C   UNL     1       0.685  11.823  20.458  0.00  0.00    +0.000 C 
BRANCH  25  33
ATOM     26  N   UNL     1      -5.767  13.090  24.454  0.00  0.00    +0.000 N 
ATOM     27  C   UNL     1      -4.720  12.981  23.562  0.00  0.00    +0.000 A 
ATOM     28  N   UNL     1      -4.781  13.714  22.454  0.00  0.00    +0.000 NA
ATOM     29  C   UNL     1      -3.739  13.607  21.613  0.00  0.00    +0.000 A 
ATOM     30  N   UNL     1      -3.849  14.341  20.419  0.00  0.00    +0.000 N 
ATOM     31  C   UNL     1      -2.640  12.782  21.830  0.00  0.00    +0.000 A 
ATOM     32  N   UNL     1      -1.564  12.723  20.986  0.00  0.00    +0.000 NA
ATOM     33  C   UNL     1      -0.550  11.902  21.346  0.00  0.00    +0.000 A 
ATOM     34  C   UNL     1      -0.646  11.153  22.499  0.00  0.00    +0.000 A 
ATOM     35  N   UNL     1      -1.720  11.208  23.333  0.00  0.00    +0.000 NA
ATOM     36  C   UNL     1      -2.720  12.041  23.015  0.00  0.00    +0.000 A 
ATOM     37  N   UNL     1      -3.745  12.131  23.861  0.00  0.00    +0.000 NA
ATOM     38  H   UNL     1      -6.603  13.408  23.984  0.00  0.00    +0.000 HD
ATOM     39  H   UNL     1      -5.839  12.254  25.017  0.00  0.00    +0.000 HD
ATOM     40  H   UNL     1      -4.622  14.994  20.490  0.00  0.00    +0.000 HD
ATOM     41  H   UNL     1      -2.962  14.765  20.162  0.00  0.00    +0.000 HD
ENDBRANCH  25  33
ENDBRANCH  23  25
ENDBRANCH   1  23
TORSDOF 12
ENDMDL
MODEL 3
REMARK VINA RESULT:      -8.2      2.390      4.158
REMARK  Name = 
REMARK  12 active torsions:
REMARK  status: ('A' for Active; 'I' for Inactive)
REMARK    1  A    between atoms: C_8  and  C_9
REMARK    2  A    between atoms: C_9  and  N_10
REMARK    3  A    between atoms: N_10  and  C_11
REMARK    4  A    between atoms: C_14  and  S_15
REMARK    5  A    between atoms: S_15  and  N_18
REMARK    6  A    between atoms: N_18  and  C_19
REMARK    7  A    between atoms: C_19  and  C_20
REMARK    8  A    between atoms: C_19  and  C_25
REMARK    9  A    between atoms: C_20  and  C_21
REMARK   10  A    between atoms: C_21  and  C_22
REMARK   11  A    between atoms: C_22  and  O_24
REMARK   12  A    between atoms: C_25  and  O_27
REMARK                            x       y       z     vdW  Elec       q    Type
REMARK                         _______ _______ _______ _____ _____    ______ ____
ROOT
ATOM      1  C   UNL     1       1.498   8.928  19.457  0.00  0.00    +0.000 A 
ATOM      2  C   UNL     1       2.117   8.815  18.202  0.00  0.00    +0.000 A 
ATOM      3  C   UNL     1       2.818   7.667  17.829  0.00  0.00    +0.000 A 
ATOM      4  C   UNL     1       2.953   6.619  18.734  0.00  0.00    +0.000 A 
ATOM      5  C   UNL     1       2.356   6.703  19.998  0.00  0.00    +0.000 A 
ATOM      6  C   UNL     1       1.648   7.865  20.357  0.00  0.00    +0.000 A 
ENDROOT
BRANCH   4   7
ATOM      7  S   UNL     1       3.921   5.198  18.274  0.00  0.00    +0.000 S 
ATOM      8  O   UNL     1       4.427   4.616  19.495  0.00  0.00    +0.000 OA
ATOM      9  O   UNL     1       3.185   4.423  17.300  0.00  0.00    +0.000 OA
BRANCH   7  10
ATOM     10  N   UNL     1       5.244   5.852  17.482  0.00  0.00    +0.000 NA
ATOM     11  H   UNL     1       5.077   6.818  17.179  0.00  0.00    +0.000 HD
BRANCH  10  12
ATOM     12  C   UNL     1       6.631   5.566  17.937  0.00  0.00    +0.000 C 
BRANCH  12  13
ATOM     13  C   UNL     1       7.432   6.876  17.829  0.00  0.00    +0.000 C 
ATOM     14  O   UNL     1       8.246   7.244  18.668  0.00  0.00    +0.000 OA
BRANCH  13  15
ATOM     15  O   UNL     1       7.160   7.622  16.733  0.00  0.00    +0.000 OA
ATOM     16  H   UNL     1       7.359   7.210  15.871  0.00  0.00    +0.000 HD
ENDBRANCH  13  15
ENDBRANCH  12  13
BRANCH  12  17
ATOM     17  C   UNL     1       7.283   4.482  17.076  0.00  0.00    +0.000 C 
BRANCH  17  18
ATOM     18  C   UNL     1       6.421   4.129  15.859  0.00  0.00    +0.000 C 
BRANCH  18  19
ATOM     19  C   UNL     1       6.967   4.671  14.566  0.00  0.00    +0.000 C 
ATOM     20  O   UNL     1       7.788   5.568  14.473  0.00  0.00    +0.000 OA
BRANCH  19  21
ATOM     21  O   UNL     1       6.388   4.080  13.494  0.00  0.00    +0.000 OA
ATOM     22  H   UNL     1       5.549   4.499  13.223  0.00  0.00    +0.000 HD
ENDBRANCH  19  21
ENDBRANCH  18  19
ENDBRANCH  17  18
ENDBRANCH  12  17
ENDBRANCH  10  12
ENDBRANCH   7  10
ENDBRANCH   4   7
BRANCH   1  23
ATOM     23  N   UNL     1       0.890  10.138  19.772  0.00  0.00    +0.000 N 
ATOM     24  H   UNL     1       1.346  10.622  20.551  0.00  0.00    +0.000 HD
BRANCH  23  25
ATOM     25  C   UNL     1       0.513  11.112  18.750  0.00  0.00    +0.000 C 
BRANCH  25  33
ATOM     26  N   UNL     1      -7.155  11.103  18.132  0.00  0.00    +0.000 N 
ATOM     27  C   UNL     1      -5.811  11.312  18.355  0.00  0.00    +0.000 A 
ATOM     28  N   UNL     1      -5.473  12.295  19.186  0.00  0.00    +0.000 NA
ATOM     29  C   UNL     1      -4.159  12.464  19.404  0.00  0.00    +0.000 A 
ATOM     30  N   UNL     1      -3.820  13.546  20.235  0.00  0.00    +0.000 N 
ATOM     31  C   UNL     1      -3.163  11.696  18.811  0.00  0.00    +0.000 A 
ATOM     32  N   UNL     1      -1.830  11.850  19.082  0.00  0.00    +0.000 NA
ATOM     33  C   UNL     1      -0.977  11.005  18.458  0.00  0.00    +0.000 A 
ATOM     34  C   UNL     1      -1.463  10.066  17.573  0.00  0.00    +0.000 A 
ATOM     35  N   UNL     1      -2.787   9.918  17.299  0.00  0.00    +0.000 NA
ATOM     36  C   UNL     1      -3.653  10.721  17.933  0.00  0.00    +0.000 A 
ATOM     37  N   UNL     1      -4.953  10.539  17.701  0.00  0.00    +0.000 NA
ATOM     38  H   UNL     1      -7.683  11.944  18.319  0.00  0.00    +0.000 HD
ATOM     39  H   UNL     1      -7.299  10.652  17.239  0.00  0.00    +0.000 HD
ATOM     40  H   UNL     1      -4.653  13.896  20.696  0.00  0.00    +0.000 HD
ATOM     41  H   UNL     1      -3.060  13.303  20.865  0.00  0.00    +0.000 HD
ENDBRANCH  25  33
ENDBRANCH  23  25
ENDBRANCH   1  23
TORSDOF 12
ENDMDL
MODEL 4
REMARK VINA RESULT:      -8.0      2.172      3.884
REMARK  Name = 
REMARK  12 active torsions:
REMARK  status: ('A' for Active; 'I' for Inactive)
REMARK    1  A    between atoms: C_8  and  C_9
REMARK    2  A    between atoms: C_9  and  N_10
REMARK    3  A    between atoms: N_10  and  C_11
REMARK    4  A    between atoms: C_14  and  S_15
REMARK    5  A    between atoms: S_15  and  N_18
REMARK    6  A    between atoms: N_18  and  C_19
REMARK    7  A    between atoms: C_19  and  C_20
REMARK    8  A    between atoms: C_19  and  C_25
REMARK    9  A    between atoms: C_20  and  C_21
REMARK   10  A    between atoms: C_21  and  C_22
REMARK   11  A    between atoms: C_22  and  O_24
REMARK   12  A    between atoms: C_25  and  O_27
REMARK                            x       y       z     vdW  Elec       q    Type
REMARK                         _______ _______ _______ _____ _____    ______ ____
ROOT
ATOM      1  C   UNL     1       1.432   8.541  19.768  0.00  0.00    +0.000 A 
ATOM      2  C   UNL     1       2.086   8.342  18.542  0.00  0.00    +0.000 A 
ATOM      3  C   UNL     1       2.690   7.126  18.218  0.00  0.00    +0.000 A 
ATOM      4  C   UNL     1       2.690   6.090  19.147  0.00  0.00    +0.000 A 
ATOM      5  C   UNL     1       2.056   6.258  20.384  0.00  0.00    +0.000 A 
ATOM      6  C   UNL     1       1.447   7.488  20.693  0.00  0.00    +0.000 A 
ENDROOT
BRANCH   4   7
ATOM      7  S   UNL     1       3.538   4.575  18.752  0.00  0.00    +0.000 S 
ATOM      8  O   UNL     1       3.567   3.780  19.958  0.00  0.00    +0.000 OA
ATOM      9  O   UNL     1       3.022   4.060  17.503  0.00  0.00    +0.000 OA
BRANCH   7  10
ATOM     10  N   UNL     1       5.116   5.059  18.470  0.00  0.00    +0.000 NA
ATOM     11  H   UNL     1       5.682   5.059  19.326  0.00  0.00    +0.000 HD
BRANCH  10  12
ATOM     12  C   UNL     1       5.839   4.641  17.238  0.00  0.00    +0.000 C 
BRANCH  12  13
ATOM     13  C   UNL     1       7.330   4.962  17.446  0.00  0.00    +0.000 C 
ATOM     14  O   UNL     1       8.080   4.281  18.135  0.00  0.00    +0.000 OA
BRANCH  13  15
ATOM     15  O   UNL     1       7.764   6.080  16.821  0.00  0.00    +0.000 OA
ATOM     16  H   UNL     1       8.519   5.968  16.211  0.00  0.00    +0.000 HD
ENDBRANCH  13  15
ENDBRANCH  12  13
BRANCH  12  17
ATOM     17  C   UNL     1       5.311   5.385  16.009  0.00  0.00    +0.000 C 
BRANCH  17  18
ATOM     18  C   UNL     1       5.161   4.453  14.803  0.00  0.00    +0.000 C 
BRANCH  18  19
ATOM     19  C   UNL     1       6.406   4.362  13.964  0.00  0.00    +0.000 C 
ATOM     20  O   UNL     1       7.275   5.215  13.903  0.00  0.00    +0.000 OA
BRANCH  19  21
ATOM     21  O   UNL     1       6.426   3.230  13.221  0.00  0.00    +0.000 OA
ATOM     22  H   UNL     1       6.484   2.414  13.754  0.00  0.00    +0.000 HD
ENDBRANCH  19  21
ENDBRANCH  18  19
ENDBRANCH  17  18
ENDBRANCH  12  17
ENDBRANCH  10  12
ENDBRANCH   7  10
ENDBRANCH   4   7
BRANCH   1  23
ATOM     23  N   UNL     1       0.930   9.808  20.036  0.00  0.00    +0.000 N 
ATOM     24  H   UNL     1       1.376  10.251  20.845  0.00  0.00    +0.000 HD
BRANCH  23  25
ATOM     25  C   UNL     1       0.727  10.806  18.988  0.00  0.00    +0.000 C 
BRANCH  25  33
ATOM     26  N   UNL     1      -6.844  11.391  17.746  0.00  0.00    +0.000 N 
ATOM     27  C   UNL     1      -5.512  11.488  18.091  0.00  0.00    +0.000 A 
ATOM     28  N   UNL     1      -5.182  12.392  19.010  0.00  0.00    +0.000 NA
ATOM     29  C   UNL     1      -3.883  12.452  19.345  0.00  0.00    +0.000 A 
ATOM     30  N   UNL     1      -3.544  13.455  20.271  0.00  0.00    +0.000 N 
ATOM     31  C   UNL     1      -2.893  11.650  18.786  0.00  0.00    +0.000 A 
ATOM     32  N   UNL     1      -1.582  11.691  19.175  0.00  0.00    +0.000 NA
ATOM     33  C   UNL     1      -0.737  10.824  18.569  0.00  0.00    +0.000 A 
ATOM     34  C   UNL     1      -1.207   9.978  17.587  0.00  0.00    +0.000 A 
ATOM     35  N   UNL     1      -2.510   9.944  17.197  0.00  0.00    +0.000 NA
ATOM     36  C   UNL     1      -3.371  10.768  17.810  0.00  0.00    +0.000 A 
ATOM     37  N   UNL     1      -4.655  10.695  17.461  0.00  0.00    +0.000 NA
ATOM     38  H   UNL     1      -7.327  12.255  17.945  0.00  0.00    +0.000 HD
ATOM     39  H   UNL     1      -6.940  11.006  16.817  0.00  0.00    +0.000 HD
ATOM     40  H   UNL     1      -4.388  13.837  20.683  0.00  0.00    +0.000 HD
ATOM     41  H   UNL     1      -2.859  13.121  20.943  0.00  0.00    +0.000 HD
ENDBRANCH  25  33
ENDBRANCH  23  25
ENDBRANCH   1  23
TORSDOF 12
ENDMDL
MODEL 5
REMARK VINA RESULT:      -7.9      2.436      4.012
REMARK  Name = 
REMARK  12 active torsions:
REMARK  status: ('A' for Active; 'I' for Inactive)
REMARK    1  A    between atoms: C_8  and  C_9
REMARK    2  A    between atoms: C_9  and  N_10
REMARK    3  A    between atoms: N_10  and  C_11
REMARK    4  A    between atoms: C_14  and  S_15
REMARK    5  A    between atoms: S_15  and  N_18
REMARK    6  A    between atoms: N_18  and  C_19
REMARK    7  A    between atoms: C_19  and  C_20
REMARK    8  A    between atoms: C_19  and  C_25
REMARK    9  A    between atoms: C_20  and  C_21
REMARK   10  A    between atoms: C_21  and  C_22
REMARK   11  A    between atoms: C_22  and  O_24
REMARK   12  A    between atoms: C_25  and  O_27
REMARK                            x       y       z     vdW  Elec       q    Type
REMARK                         _______ _______ _______ _____ _____    ______ ____
ROOT
ATOM      1  C   UNL     1       1.093   9.784  19.411  0.00  0.00    +0.000 A 
ATOM      2  C   UNL     1       1.623   9.429  18.161  0.00  0.00    +0.000 A 
ATOM      3  C   UNL     1       2.211   8.183  17.938  0.00  0.00    +0.000 A 
ATOM      4  C   UNL     1       2.323   7.278  18.989  0.00  0.00    +0.000 A 
ATOM      5  C   UNL     1       1.815   7.604  20.252  0.00  0.00    +0.000 A 
ATOM      6  C   UNL     1       1.219   8.862  20.459  0.00  0.00    +0.000 A 
ENDROOT
BRANCH   4   7
ATOM      7  S   UNL     1       3.152   5.727  18.710  0.00  0.00    +0.000 S 
ATOM      8  O   UNL     1       3.709   5.311  19.976  0.00  0.00    +0.000 OA
ATOM      9  O   UNL     1       2.290   4.869  17.929  0.00  0.00    +0.000 OA
BRANCH   7  10
ATOM     10  N   UNL     1       4.452   6.135  17.736  0.00  0.00    +0.000 NA
ATOM     11  H   UNL     1       5.071   6.822  18.182  0.00  0.00    +0.000 HD
BRANCH  10  12
ATOM     12  C   UNL     1       5.142   5.111  16.907  0.00  0.00    +0.000 C 
BRANCH  12  13
ATOM     13  C   UNL     1       6.483   4.788  17.591  0.00  0.00    +0.000 C 
ATOM     14  O   UNL     1       7.569   5.150  17.158  0.00  0.00    +0.000 OA
BRANCH  13  15
ATOM     15  O   UNL     1       6.382   4.045  18.717  0.00  0.00    +0.000 OA
ATOM     16  H   UNL     1       6.614   3.100  18.633  0.00  0.00    +0.000 HD
ENDBRANCH  13  15
ENDBRANCH  12  13
BRANCH  12  17
ATOM     17  C   UNL     1       5.391   5.627  15.487  0.00  0.00    +0.000 C 
BRANCH  17  18
ATOM     18  C   UNL     1       5.532   4.479  14.483  0.00  0.00    +0.000 C 
BRANCH  18  19
ATOM     19  C   UNL     1       6.772   4.579  13.636  0.00  0.00    +0.000 C 
ATOM     20  O   UNL     1       6.922   4.047  12.549  0.00  0.00    +0.000 OA
BRANCH  19  21
ATOM     21  O   UNL     1       7.743   5.290  14.255  0.00  0.00    +0.000 OA
ATOM     22  H   UNL     1       7.555   5.471  15.196  0.00  0.00    +0.000 HD
ENDBRANCH  19  21
ENDBRANCH  18  19
ENDBRANCH  17  18
ENDBRANCH  12  17
ENDBRANCH  10  12
ENDBRANCH   7  10
ENDBRANCH   4   7
BRANCH   1  23
ATOM     23  N   UNL     1       0.599  11.074  19.563  0.00  0.00    +0.000 N 
ATOM     24  H   UNL     1       1.294  11.726  19.939  0.00  0.00    +0.000 HD
BRANCH  23  25
ATOM     25  C   UNL     1      -0.176  11.741  18.518  0.00  0.00    +0.000 C 
BRANCH  25  33
ATOM     26  N   UNL     1      -7.647  12.876  19.963  0.00  0.00    +0.000 N 
ATOM     27  C   UNL     1      -6.384  12.554  19.512  0.00  0.00    +0.000 A 
ATOM     28  N   UNL     1      -6.281  12.051  18.285  0.00  0.00    +0.000 NA
ATOM     29  C   UNL     1      -5.039  11.768  17.860  0.00  0.00    +0.000 A 
ATOM     30  N   UNL     1      -4.956  11.180  16.586  0.00  0.00    +0.000 N 
ATOM     31  C   UNL     1      -3.891  11.954  18.623  0.00  0.00    +0.000 A 
ATOM     32  N   UNL     1      -2.628  11.705  18.156  0.00  0.00    +0.000 NA
ATOM     33  C   UNL     1      -1.602  11.970  18.999  0.00  0.00    +0.000 A 
ATOM     34  C   UNL     1      -1.859  12.436  20.270  0.00  0.00    +0.000 A 
ATOM     35  N   UNL     1      -3.115  12.677  20.734  0.00  0.00    +0.000 NA
ATOM     36  C   UNL     1      -4.144  12.456  19.905  0.00  0.00    +0.000 A 
ATOM     37  N   UNL     1      -5.368  12.742  20.346  0.00  0.00    +0.000 NA
ATOM     38  H   UNL     1      -8.348  12.344  19.467  0.00  0.00    +0.000 HD
ATOM     39  H   UNL     1      -7.677  12.857  20.973  0.00  0.00    +0.000 HD
ATOM     40  H   UNL     1      -5.852  11.257  16.116  0.00  0.00    +0.000 HD
ATOM     41  H   UNL     1      -4.170  11.550  16.059  0.00  0.00    +0.000 HD
ENDBRANCH  25  33
ENDBRANCH  23  25
ENDBRANCH   1  23
TORSDOF 12
ENDMDL
MODEL 6
REMARK VINA RESULT:      -7.9      2.601      4.891
REMARK  Name = 
REMARK  12 active torsions:
REMARK  status: ('A' for Active; 'I' for Inactive)
REMARK    1  A    between atoms: C_8  and  C_9
REMARK    2  A    between atoms: C_9  and  N_10
REMARK    3  A    between atoms: N_10  and  C_11
REMARK    4  A    between atoms: C_14  and  S_15
REMARK    5  A    between atoms: S_15  and  N_18
REMARK    6  A    between atoms: N_18  and  C_19
REMARK    7  A    between atoms: C_19  and  C_20
REMARK    8  A    between atoms: C_19  and  C_25
REMARK    9  A    between atoms: C_20  and  C_21
REMARK   10  A    between atoms: C_21  and  C_22
REMARK   11  A    between atoms: C_22  and  O_24
REMARK   12  A    between atoms: C_25  and  O_27
REMARK                            x       y       z     vdW  Elec       q    Type
REMARK                         _______ _______ _______ _____ _____    ______ ____
ROOT
ATOM      1  C   UNL     1       2.787   7.886  18.359  0.00  0.00    +0.000 A 
ATOM      2  C   UNL     1       2.533   6.991  19.410  0.00  0.00    +0.000 A 
ATOM      3  C   UNL     1       3.028   5.686  19.402  0.00  0.00    +0.000 A 
ATOM      4  C   UNL     1       3.755   5.233  18.305  0.00  0.00    +0.000 A 
ATOM      5  C   UNL     1       4.017   6.096  17.234  0.00  0.00    +0.000 A 
ATOM      6  C   UNL     1       3.516   7.411  17.260  0.00  0.00    +0.000 A 
ENDROOT
BRANCH   4   7
ATOM      7  S   UNL     1       4.306   3.541  18.273  0.00  0.00    +0.000 S 
ATOM      8  O   UNL     1       5.071   3.321  19.478  0.00  0.00    +0.000 OA
ATOM      9  O   UNL     1       3.195   2.693  17.900  0.00  0.00    +0.000 OA
BRANCH   7  10
ATOM     10  N   UNL     1       5.401   3.499  17.006  0.00  0.00    +0.000 NA
ATOM     11  H   UNL     1       5.020   3.030  16.177  0.00  0.00    +0.000 HD
BRANCH  10  12
ATOM     12  C   UNL     1       6.289   4.658  16.720  0.00  0.00    +0.000 C 
BRANCH  12  13
ATOM     13  C   UNL     1       6.747   4.539  15.255  0.00  0.00    +0.000 C 
ATOM     14  O   UNL     1       6.292   3.719  14.468  0.00  0.00    +0.000 OA
BRANCH  13  15
ATOM     15  O   UNL     1       7.719   5.407  14.890  0.00  0.00    +0.000 OA
ATOM     16  H   UNL     1       8.537   5.012  14.531  0.00  0.00    +0.000 HD
ENDBRANCH  13  15
ENDBRANCH  12  13
BRANCH  12  17
ATOM     17  C   UNL     1       7.506   4.664  17.649  0.00  0.00    +0.000 C 
BRANCH  17  18
ATOM     18  C   UNL     1       7.435   5.803  18.671  0.00  0.00    +0.000 C 
BRANCH  18  19
ATOM     19  C   UNL     1       7.869   7.131  18.113  0.00  0.00    +0.000 C 
ATOM     20  O   UNL     1       7.592   7.548  17.001  0.00  0.00    +0.000 OA
BRANCH  19  21
ATOM     21  O   UNL     1       8.670   7.797  18.977  0.00  0.00    +0.000 OA
ATOM     22  H   UNL     1       8.265   8.609  19.338  0.00  0.00    +0.000 HD
ENDBRANCH  19  21
ENDBRANCH  18  19
ENDBRANCH  17  18
ENDBRANCH  12  17
ENDBRANCH  10  12
ENDBRANCH   7  10
ENDBRANCH   4   7
BRANCH   1  23
ATOM     23  N   UNL     1       2.188   9.138  18.414  0.00  0.00    +0.000 N 
ATOM     24  H   UNL     1       2.625   9.818  17.785  0.00  0.00    +0.000 HD
BRANCH  23  25
ATOM     25  C   UNL     1       0.737   9.312  18.382  0.00  0.00    +0.000 C 
BRANCH  25  33
ATOM     26  N   UNL     1      -2.062  13.892  23.894  0.00  0.00    +0.000 N 
ATOM     27  C   UNL     1      -1.760  13.126  22.788  0.00  0.00    +0.000 A 
ATOM     28  N   UNL     1      -2.516  13.287  21.706  0.00  0.00    +0.000 NA
ATOM     29  C   UNL     1      -2.187  12.546  20.635  0.00  0.00    +0.000 A 
ATOM     30  N   UNL     1      -3.035  12.685  19.522  0.00  0.00    +0.000 N 
ATOM     31  C   UNL     1      -1.137  11.635  20.607  0.00  0.00    +0.000 A 
ATOM     32  N   UNL     1      -0.785  10.924  19.492  0.00  0.00    +0.000 NA
ATOM     33  C   UNL     1       0.284  10.102  19.603  0.00  0.00    +0.000 A 
ATOM     34  C   UNL     1       0.943   9.989  20.808  0.00  0.00    +0.000 A 
ATOM     35  N   UNL     1       0.589  10.692  21.917  0.00  0.00    +0.000 NA
ATOM     36  C   UNL     1      -0.445  11.539  21.821  0.00  0.00    +0.000 A 
ATOM     37  N   UNL     1      -0.757  12.263  22.895  0.00  0.00    +0.000 NA
ATOM     38  H   UNL     1      -3.028  14.186  23.870  0.00  0.00    +0.000 HD
ATOM     39  H   UNL     1      -1.734  13.441  24.737  0.00  0.00    +0.000 HD
ATOM     40  H   UNL     1      -3.644  13.485  19.655  0.00  0.00    +0.000 HD
ATOM     41  H   UNL     1      -2.507  12.695  18.654  0.00  0.00    +0.000 HD
ENDBRANCH  25  33
ENDBRANCH  23  25
ENDBRANCH   1  23
TORSDOF 12
ENDMDL
MODEL 7
REMARK VINA RESULT:      -7.9      2.255      3.581
REMARK  Name = 
REMARK  12 active torsions:
REMARK  status: ('A' for Active; 'I' for Inactive)
REMARK    1  A    between atoms: C_8  and  C_9
REMARK    2  A    between atoms: C_9  and  N_10
REMARK    3  A    between atoms: N_10  and  C_11
REMARK    4  A    between atoms: C_14  and  S_15
REMARK    5  A    between atoms: S_15  and  N_18
REMARK    6  A    between atoms: N_18  and  C_19
REMARK    7  A    between atoms: C_19  and  C_20
REMARK    8  A    between atoms: C_19  and  C_25
REMARK    9  A    between atoms: C_20  and  C_21
REMARK   10  A    between atoms: C_21  and  C_22
REMARK   11  A    between atoms: C_22  and  O_24
REMARK   12  A    between atoms: C_25  and  O_27
REMARK                            x       y       z     vdW  Elec       q    Type
REMARK                         _______ _______ _______ _____ _____    ______ ____
ROOT
ATOM      1  C   UNL     1       1.904   7.766  19.477  0.00  0.00    +0.000 A 
ATOM      2  C   UNL     1       2.510   7.674  18.214  0.00  0.00    +0.000 A 
ATOM      3  C   UNL     1       3.195   6.528  17.808  0.00  0.00    +0.000 A 
ATOM      4  C   UNL     1       3.327   5.458  18.688  0.00  0.00    +0.000 A 
ATOM      5  C   UNL     1       2.744   5.520  19.959  0.00  0.00    +0.000 A 
ATOM      6  C   UNL     1       2.051   6.681  20.352  0.00  0.00    +0.000 A 
ENDROOT
BRANCH   4   7
ATOM      7  S   UNL     1       4.276   4.038  18.186  0.00  0.00    +0.000 S 
ATOM      8  O   UNL     1       5.422   3.963  19.062  0.00  0.00    +0.000 OA
ATOM      9  O   UNL     1       3.380   2.919  17.995  0.00  0.00    +0.000 OA
BRANCH   7  10
ATOM     10  N   UNL     1       4.864   4.460  16.676  0.00  0.00    +0.000 NA
ATOM     11  H   UNL     1       4.355   5.252  16.268  0.00  0.00    +0.000 HD
BRANCH  10  12
ATOM     12  C   UNL     1       6.322   4.433  16.384  0.00  0.00    +0.000 C 
BRANCH  12  13
ATOM     13  C   UNL     1       6.918   5.764  16.877  0.00  0.00    +0.000 C 
ATOM     14  O   UNL     1       7.835   5.837  17.686  0.00  0.00    +0.000 OA
BRANCH  13  15
ATOM     15  O   UNL     1       6.337   6.872  16.363  0.00  0.00    +0.000 OA
ATOM     16  H   UNL     1       5.479   7.130  16.752  0.00  0.00    +0.000 HD
ENDBRANCH  13  15
ENDBRANCH  12  13
BRANCH  12  17
ATOM     17  C   UNL     1       6.582   4.267  14.885  0.00  0.00    +0.000 C 
BRANCH  17  18
ATOM     18  C   UNL     1       5.281   4.059  14.103  0.00  0.00    +0.000 C 
BRANCH  18  19
ATOM     19  C   UNL     1       5.500   3.497  12.724  0.00  0.00    +0.000 C 
ATOM     20  O   UNL     1       4.652   3.436  11.850  0.00  0.00    +0.000 OA
BRANCH  19  21
ATOM     21  O   UNL     1       6.751   3.001  12.581  0.00  0.00    +0.000 OA
ATOM     22  H   UNL     1       6.902   2.564  11.721  0.00  0.00    +0.000 HD
ENDBRANCH  19  21
ENDBRANCH  18  19
ENDBRANCH  17  18
ENDBRANCH  12  17
ENDBRANCH  10  12
ENDBRANCH   7  10
ENDBRANCH   4   7
BRANCH   1  23
ATOM     23  N   UNL     1       1.312   8.974  19.826  0.00  0.00    +0.000 N 
ATOM     24  H   UNL     1       1.613   9.315  20.743  0.00  0.00    +0.000 HD
BRANCH  23  25
ATOM     25  C   UNL     1       1.226  10.098  18.895  0.00  0.00    +0.000 C 
BRANCH  25  33
ATOM     26  N   UNL     1      -5.997  12.120  17.181  0.00  0.00    +0.000 N 
ATOM     27  C   UNL     1      -4.723  11.607  17.304  0.00  0.00    +0.000 A 
ATOM     28  N   UNL     1      -4.269  10.847  16.311  0.00  0.00    +0.000 NA
ATOM     29  C   UNL     1      -3.017  10.379  16.445  0.00  0.00    +0.000 A 
ATOM     30  N   UNL     1      -2.578   9.528  15.416  0.00  0.00    +0.000 N 
ATOM     31  C   UNL     1      -2.202  10.630  17.543  0.00  0.00    +0.000 A 
ATOM     32  N   UNL     1      -0.911  10.185  17.641  0.00  0.00    +0.000 NA
ATOM     33  C   UNL     1      -0.225  10.539  18.752  0.00  0.00    +0.000 A 
ATOM     34  C   UNL     1      -0.841  11.286  19.733  0.00  0.00    +0.000 A 
ATOM     35  N   UNL     1      -2.127  11.722  19.638  0.00  0.00    +0.000 NA
ATOM     36  C   UNL     1      -2.814  11.413  18.529  0.00  0.00    +0.000 A 
ATOM     37  N   UNL     1      -4.055  11.885  18.417  0.00  0.00    +0.000 NA
ATOM     38  H   UNL     1      -6.549  11.553  16.552  0.00  0.00    +0.000 HD
ATOM     39  H   UNL     1      -6.387  12.320  18.091  0.00  0.00    +0.000 HD
ATOM     40  H   UNL     1      -3.224   9.575  14.635  0.00  0.00    +0.000 HD
ATOM     41  H   UNL     1      -1.609   9.711  15.173  0.00  0.00    +0.000 HD
ENDBRANCH  25  33
ENDBRANCH  23  25
ENDBRANCH   1  23
TORSDOF 12
ENDMDL
MODEL 8
REMARK VINA RESULT:      -7.9      3.641      5.683
REMARK  Name = 
REMARK  12 active torsions:
REMARK  status: ('A' for Active; 'I' for Inactive)
REMARK    1  A    between atoms: C_8  and  C_9
REMARK    2  A    between atoms: C_9  and  N_10
REMARK    3  A    between atoms: N_10  and  C_11
REMARK    4  A    between atoms: C_14  and  S_15
REMARK    5  A    between atoms: S_15  and  N_18
REMARK    6  A    between atoms: N_18  and  C_19
REMARK    7  A    between atoms: C_19  and  C_20
REMARK    8  A    between atoms: C_19  and  C_25
REMARK    9  A    between atoms: C_20  and  C_21
REMARK   10  A    between atoms: C_21  and  C_22
REMARK   11  A    between atoms: C_22  and  O_24
REMARK   12  A    between atoms: C_25  and  O_27
REMARK                            x       y       z     vdW  Elec       q    Type
REMARK                         _______ _______ _______ _____ _____    ______ ____
ROOT
ATOM      1  C   UNL     1       1.396   9.144  19.279  0.00  0.00    +0.000 A 
ATOM      2  C   UNL     1       2.070   8.979  18.059  0.00  0.00    +0.000 A 
ATOM      3  C   UNL     1       2.814   7.832  17.778  0.00  0.00    +0.000 A 
ATOM      4  C   UNL     1       2.937   6.839  18.744  0.00  0.00    +0.000 A 
ATOM      5  C   UNL     1       2.287   6.976  19.977  0.00  0.00    +0.000 A 
ATOM      6  C   UNL     1       1.536   8.136  20.242  0.00  0.00    +0.000 A 
ENDROOT
BRANCH   4   7
ATOM      7  S   UNL     1       3.959   5.422  18.403  0.00  0.00    +0.000 S 
ATOM      8  O   UNL     1       4.927   5.330  19.471  0.00  0.00    +0.000 OA
ATOM      9  O   UNL     1       3.111   4.310  18.035  0.00  0.00    +0.000 OA
BRANCH   7  10
ATOM     10  N   UNL     1       4.813   5.863  17.031  0.00  0.00    +0.000 NA
ATOM     11  H   UNL     1       5.180   6.819  17.093  0.00  0.00    +0.000 HD
BRANCH  10  12
ATOM     12  C   UNL     1       5.698   4.893  16.332  0.00  0.00    +0.000 C 
BRANCH  12  13
ATOM     13  C   UNL     1       7.147   5.206  16.748  0.00  0.00    +0.000 C 
ATOM     14  O   UNL     1       7.867   4.414  17.343  0.00  0.00    +0.000 OA
BRANCH  13  15
ATOM     15  O   UNL     1       7.577   6.448  16.425  0.00  0.00    +0.000 OA
ATOM     16  H   UNL     1       8.335   6.789  16.936  0.00  0.00    +0.000 HD
ENDBRANCH  13  15
ENDBRANCH  12  13
BRANCH  12  17
ATOM     17  C   UNL     1       5.554   5.010  14.813  0.00  0.00    +0.000 C 
BRANCH  17  18
ATOM     18  C   UNL     1       6.522   4.077  14.078  0.00  0.00    +0.000 C 
BRANCH  18  19
ATOM     19  C   UNL     1       7.450   4.801  13.141  0.00  0.00    +0.000 C 
ATOM     20  O   UNL     1       8.211   5.698  13.463  0.00  0.00    +0.000 OA
BRANCH  19  21
ATOM     21  O   UNL     1       7.299   4.378  11.864  0.00  0.00    +0.000 OA
ATOM     22  H   UNL     1       6.577   4.830  11.386  0.00  0.00    +0.000 HD
ENDBRANCH  19  21
ENDBRANCH  18  19
ENDBRANCH  17  18
ENDBRANCH  12  17
ENDBRANCH  10  12
ENDBRANCH   7  10
ENDBRANCH   4   7
BRANCH   1  23
ATOM     23  N   UNL     1       0.746  10.351  19.502  0.00  0.00    +0.000 N 
ATOM     24  H   UNL     1       0.791  10.984  18.698  0.00  0.00    +0.000 HD
BRANCH  23  25
ATOM     25  C   UNL     1      -0.586  10.422  20.100  0.00  0.00    +0.000 C 
BRANCH  25  33
ATOM     26  N   UNL     1      -1.876  16.042  25.194  0.00  0.00    +0.000 N 
ATOM     27  C   UNL     1      -1.833  14.928  24.382  0.00  0.00    +0.000 A 
ATOM     28  N   UNL     1      -2.874  14.101  24.420  0.00  0.00    +0.000 NA
ATOM     29  C   UNL     1      -2.818  13.037  23.602  0.00  0.00    +0.000 A 
ATOM     30  N   UNL     1      -3.899  12.142  23.702  0.00  0.00    +0.000 N 
ATOM     31  C   UNL     1      -1.752  12.757  22.755  0.00  0.00    +0.000 A 
ATOM     32  N   UNL     1      -1.733  11.694  21.893  0.00  0.00    +0.000 NA
ATOM     33  C   UNL     1      -0.643  11.569  21.100  0.00  0.00    +0.000 A 
ATOM     34  C   UNL     1       0.393  12.472  21.208  0.00  0.00    +0.000 A 
ATOM     35  N   UNL     1       0.376  13.524  22.070  0.00  0.00    +0.000 NA
ATOM     36  C   UNL     1      -0.709  13.688  22.839  0.00  0.00    +0.000 A 
ATOM     37  N   UNL     1      -0.744  14.749  23.645  0.00  0.00    +0.000 NA
ATOM     38  H   UNL     1      -2.498  15.888  25.976  0.00  0.00    +0.000 HD
ATOM     39  H   UNL     1      -0.942  16.365  25.401  0.00  0.00    +0.000 HD
ATOM     40  H   UNL     1      -4.645  12.568  24.241  0.00  0.00    +0.000 HD
ATOM     41  H   UNL     1      -4.181  11.801  22.787  0.00  0.00    +0.000 HD
ENDBRANCH  25  33
ENDBRANCH  23  25
ENDBRANCH   1  23
TORSDOF 12
ENDMDL
MODEL 9
REMARK VINA RESULT:      -7.8      2.076      3.676
REMARK  Name = 
REMARK  12 active torsions:
REMARK  status: ('A' for Active; 'I' for Inactive)
REMARK    1  A    between atoms: C_8  and  C_9
REMARK    2  A    between atoms: C_9  and  N_10
REMARK    3  A    between atoms: N_10  and  C_11
REMARK    4  A    between atoms: C_14  and  S_15
REMARK    5  A    between atoms: S_15  and  N_18
REMARK    6  A    between atoms: N_18  and  C_19
REMARK    7  A    between atoms: C_19  and  C_20
REMARK    8  A    between atoms: C_19  and  C_25
REMARK    9  A    between atoms: C_20  and  C_21
REMARK   10  A    between atoms: C_21  and  C_22
REMARK   11  A    between atoms: C_22  and  O_24
REMARK   12  A    between atoms: C_25  and  O_27
REMARK                            x       y       z     vdW  Elec       q    Type
REMARK                         _______ _______ _______ _____ _____    ______ ____
ROOT
ATOM      1  C   UNL     1       1.878   8.742  18.350  0.00  0.00    +0.000 A 
ATOM      2  C   UNL     1       2.824   8.342  17.393  0.00  0.00    +0.000 A 
ATOM      3  C   UNL     1       3.561   7.166  17.533  0.00  0.00    +0.000 A 
ATOM      4  C   UNL     1       3.396   6.383  18.672  0.00  0.00    +0.000 A 
ATOM      5  C   UNL     1       2.468   6.757  19.651  0.00  0.00    +0.000 A 
ATOM      6  C   UNL     1       1.728   7.944  19.492  0.00  0.00    +0.000 A 
ENDROOT
BRANCH   4   7
ATOM      7  S   UNL     1       4.404   4.930  18.877  0.00  0.00    +0.000 S 
ATOM      8  O   UNL     1       5.354   5.218  19.926  0.00  0.00    +0.000 OA
ATOM      9  O   UNL     1       3.548   3.766  18.913  0.00  0.00    +0.000 OA
BRANCH   7  10
ATOM     10  N   UNL     1       5.285   4.848  17.454  0.00  0.00    +0.000 NA
ATOM     11  H   UNL     1       4.859   5.401  16.701  0.00  0.00    +0.000 HD
BRANCH  10  12
ATOM     12  C   UNL     1       6.772   4.848  17.471  0.00  0.00    +0.000 C 
BRANCH  12  13
ATOM     13  C   UNL     1       7.233   6.312  17.597  0.00  0.00    +0.000 C 
ATOM     14  O   UNL     1       7.041   7.160  16.735  0.00  0.00    +0.000 OA
BRANCH  13  15
ATOM     15  O   UNL     1       7.896   6.603  18.740  0.00  0.00    +0.000 OA
ATOM     16  H   UNL     1       8.632   6.005  18.977  0.00  0.00    +0.000 HD
ENDBRANCH  13  15
ENDBRANCH  12  13
BRANCH  12  17
ATOM     17  C   UNL     1       7.339   4.231  16.190  0.00  0.00    +0.000 C 
BRANCH  17  18
ATOM     18  C   UNL     1       6.230   3.877  15.192  0.00  0.00    +0.000 C 
BRANCH  18  19
ATOM     19  C   UNL     1       6.533   4.319  13.786  0.00  0.00    +0.000 C 
ATOM     20  O   UNL     1       7.304   5.214  13.483  0.00  0.00    +0.000 OA
BRANCH  19  21
ATOM     21  O   UNL     1       5.792   3.638  12.880  0.00  0.00    +0.000 OA
ATOM     22  H   UNL     1       4.858   3.528  13.142  0.00  0.00    +0.000 HD
ENDBRANCH  19  21
ENDBRANCH  18  19
ENDBRANCH  17  18
ENDBRANCH  12  17
ENDBRANCH  10  12
ENDBRANCH   7  10
ENDBRANCH   4   7
BRANCH   1  23
ATOM     23  N   UNL     1       1.249   9.967  18.167  0.00  0.00    +0.000 N 
ATOM     24  H   UNL     1       0.564   9.954  17.405  0.00  0.00    +0.000 HD
BRANCH  23  25
ATOM     25  C   UNL     1       0.716  10.746  19.284  0.00  0.00    +0.000 C 
BRANCH  25  33
ATOM     26  N   UNL     1      -6.491  12.225  17.034  0.00  0.00    +0.000 N 
ATOM     27  C   UNL     1      -5.193  11.814  17.250  0.00  0.00    +0.000 A 
ATOM     28  N   UNL     1      -4.602  11.118  16.282  0.00  0.00    +0.000 NA
ATOM     29  C   UNL     1      -3.330  10.748  16.507  0.00  0.00    +0.000 A 
ATOM     30  N   UNL     1      -2.744   9.961  15.500  0.00  0.00    +0.000 N 
ATOM     31  C   UNL     1      -2.627  11.036  17.672  0.00  0.00    +0.000 A 
ATOM     32  N   UNL     1      -1.315  10.694  17.864  0.00  0.00    +0.000 NA
ATOM     33  C   UNL     1      -0.749  11.073  19.033  0.00  0.00    +0.000 A 
ATOM     34  C   UNL     1      -1.500  11.744  19.975  0.00  0.00    +0.000 A 
ATOM     35  N   UNL     1      -2.805  12.077  19.785  0.00  0.00    +0.000 NA
ATOM     36  C   UNL     1      -3.376  11.743  18.620  0.00  0.00    +0.000 A 
ATOM     37  N   UNL     1      -4.639  12.116  18.418  0.00  0.00    +0.000 NA
ATOM     38  H   UNL     1      -6.944  11.632  16.353  0.00  0.00    +0.000 HD
ATOM     39  H   UNL     1      -6.966  12.370  17.914  0.00  0.00    +0.000 HD
ATOM     40  H   UNL     1      -3.329   9.976  14.672  0.00  0.00    +0.000 HD
ATOM     41  H   UNL     1      -1.777  10.228  15.339  0.00  0.00    +0.000 HD
ENDBRANCH  25  33
ENDBRANCH  23  25
ENDBRANCH   1  23
TORSDOF 12
ENDMDL
