MODEL 1
REMARK VINA RESULT:      -8.3      0.000      0.000
REMARK  Name = 
REMARK  4 active torsions:
REMARK  status: ('A' for Active; 'I' for Inactive)
REMARK    1  A    between atoms: C_1  and  C_2
REMARK    2  A    between atoms: C_6  and  C_7
REMARK    3  A    between atoms: C_7  and  N_8
REMARK    4  A    between atoms: C_14  and  C_15
REMARK                            x       y       z     vdW  Elec       q    Type
REMARK                         _______ _______ _______ _____ _____    ______ ____
ROOT
ATOM      1  C   UNL     1       7.250   4.909  13.830  0.00  0.00    +0.000 C 
ATOM      2  C   UNL     1       6.454   5.138  15.092  0.00  0.00    +0.000 A 
ATOM      3  C   UNL     1       6.637   4.141  16.193  0.00  0.00    +0.000 A 
ATOM      4  C   UNL     1       5.912   4.361  17.297  0.00  0.00    +0.000 A 
ATOM      5  N   UNL     1       5.048   5.456  17.354  0.00  0.00    +0.000 N 
ATOM      6  C   UNL     1       4.193   5.881  18.355  0.00  0.00    +0.000 A 
ATOM      7  C   UNL     1       3.584   7.014  17.828  0.00  0.00    +0.000 A 
ATOM      8  N   UNL     1       4.083   7.303  16.578  0.00  0.00    +0.000 NA
ATOM      9  C   UNL     1       4.940   6.348  16.291  0.00  0.00    +0.000 A 
ATOM     10  N   UNL     1       5.667   6.172  15.143  0.00  0.00    +0.000 NA
ENDROOT
BRANCH   7  11
ATOM     11  C   UNL     1       2.591   7.858  18.484  0.00  0.00    +0.000 A 
ATOM     12  C   UNL     1       2.024   8.943  17.804  0.00  0.00    +0.000 A 
ATOM     13  C   UNL     1       1.072   9.761  18.428  0.00  0.00    +0.000 A 
ATOM     14  C   UNL     1       0.685   9.509  19.743  0.00  0.00    +0.000 A 
ATOM     15  C   UNL     1       1.228   8.428  20.426  0.00  0.00    +0.000 A 
ATOM     16  C   UNL     1       2.153   7.600  19.790  0.00  0.00    +0.000 A 
ENDBRANCH   7  11
BRANCH   6  17
ATOM     17  C   UNL     1       4.098   5.245  19.700  0.00  0.00    +0.000 C 
BRANCH  17  18
ATOM     18  N   UNL     1       3.217   4.059  19.725  0.00  0.00    +0.000 NA
ATOM     19  C   UNL     1       2.476   3.949  20.987  0.00  0.00    +0.000 C 
ATOM     20  C   UNL     1       1.402   2.860  20.991  0.00  0.00    +0.000 C 
ATOM     21  C   UNL     1       0.477   2.989  19.793  0.00  0.00    +0.000 C 
ATOM     22  C   UNL     1       1.302   2.958  18.519  0.00  0.00    +0.000 C 
ATOM     23  C   UNL     1       2.363   4.057  18.528  0.00  0.00    +0.000 C 
ENDBRANCH  17  18
ENDBRANCH   6  17
TORSDOF 3
ENDMDL
MODEL 2
REMARK VINA RESULT:      -8.2      1.571      5.352
REMARK  Name = 
REMARK  4 active torsions:
REMARK  status: ('A' for Active; 'I' for Inactive)
REMARK    1  A    between atoms: C_1  and  C_2
REMARK    2  A    between atoms: C_6  and  C_7
REMARK    3  A    between atoms: C_7  and  N_8
REMARK    4  A    between atoms: C_14  and  C_15
REMARK                            x       y       z     vdW  Elec       q    Type
REMARK                         _______ _______ _______ _____ _____    ______ ____
ROOT
ATOM      1  C   UNL     1      -0.207  10.676  19.402  0.00  0.00    +0.000 C 
ATOM      2  C   UNL     1       0.733   9.495  19.398  0.00  0.00    +0.000 A 
ATOM      3  C   UNL     1       0.778   8.666  20.643  0.00  0.00    +0.000 A 
ATOM      4  C   UNL     1       1.628   7.632  20.618  0.00  0.00    +0.000 A 
ATOM      5  N   UNL     1       2.405   7.399  19.482  0.00  0.00    +0.000 N 
ATOM      6  C   UNL     1       3.353   6.426  19.220  0.00  0.00    +0.000 A 
ATOM      7  C   UNL     1       3.795   6.716  17.935  0.00  0.00    +0.000 A 
ATOM      8  N   UNL     1       3.111   7.788  17.410  0.00  0.00    +0.000 NA
ATOM      9  C   UNL     1       2.299   8.209  18.355  0.00  0.00    +0.000 A 
ATOM     10  N   UNL     1       1.438   9.275  18.328  0.00  0.00    +0.000 NA
ENDROOT
BRANCH   7  11
ATOM     11  C   UNL     1       4.801   5.985  17.170  0.00  0.00    +0.000 A 
ATOM     12  C   UNL     1       6.148   6.359  17.232  0.00  0.00    +0.000 A 
ATOM     13  C   UNL     1       7.119   5.665  16.498  0.00  0.00    +0.000 A 
ATOM     14  C   UNL     1       6.750   4.593  15.685  0.00  0.00    +0.000 A 
ATOM     15  C   UNL     1       5.419   4.201  15.623  0.00  0.00    +0.000 A 
ATOM     16  C   UNL     1       4.462   4.879  16.379  0.00  0.00    +0.000 A 
ENDBRANCH   7  11
BRANCH   6  17
ATOM     17  C   UNL     1       3.678   5.304  20.145  0.00  0.00    +0.000 C 
BRANCH  17  18
ATOM     18  N   UNL     1       3.010   4.036  19.785  0.00  0.00    +0.000 NA
ATOM     19  C   UNL     1       1.867   4.250  18.890  0.00  0.00    +0.000 C 
ATOM     20  C   UNL     1       1.264   2.964  18.323  0.00  0.00    +0.000 C 
ATOM     21  C   UNL     1       2.329   2.084  17.690  0.00  0.00    +0.000 C 
ATOM     22  C   UNL     1       3.410   1.792  18.716  0.00  0.00    +0.000 C 
ATOM     23  C   UNL     1       4.007   3.087  19.265  0.00  0.00    +0.000 C 
ENDBRANCH  17  18
ENDBRANCH   6  17
TORSDOF 3
ENDMDL
MODEL 3
REMARK VINA RESULT:      -8.1      1.596      5.366
REMARK  Name = 
REMARK  4 active torsions:
REMARK  status: ('A' for Active; 'I' for Inactive)
REMARK    1  A    between atoms: C_1  and  C_2
REMARK    2  A    between atoms: C_6  and  C_7
REMARK    3  A    between atoms: C_7  and  N_8
REMARK    4  A    between atoms: C_14  and  C_15
REMARK                            x       y       z     vdW  Elec       q    Type
REMARK                         _______ _______ _______ _____ _____    ______ ____
ROOT
ATOM      1  C   UNL     1      -0.160  10.630  19.566  0.00  0.00    +0.000 C 
ATOM      2  C   UNL     1       0.742   9.419  19.575  0.00  0.00    +0.000 A 
ATOM      3  C   UNL     1       0.709   8.564  20.803  0.00  0.00    +0.000 A 
ATOM      4  C   UNL     1       1.526   7.504  20.790  0.00  0.00    +0.000 A 
ATOM      5  N   UNL     1       2.342   7.269  19.682  0.00  0.00    +0.000 N 
ATOM      6  C   UNL     1       3.269   6.272  19.438  0.00  0.00    +0.000 A 
ATOM      7  C   UNL     1       3.773   6.574  18.178  0.00  0.00    +0.000 A 
ATOM      8  N   UNL     1       3.145   7.678  17.649  0.00  0.00    +0.000 NA
ATOM      9  C   UNL     1       2.308   8.104  18.569  0.00  0.00    +0.000 A 
ATOM     10  N   UNL     1       1.483   9.198  18.530  0.00  0.00    +0.000 NA
ENDROOT
BRANCH   7  11
ATOM     11  C   UNL     1       4.786   5.826  17.439  0.00  0.00    +0.000 A 
ATOM     12  C   UNL     1       4.418   5.009  16.363  0.00  0.00    +0.000 A 
ATOM     13  C   UNL     1       5.384   4.285  15.651  0.00  0.00    +0.000 A 
ATOM     14  C   UNL     1       6.728   4.363  16.014  0.00  0.00    +0.000 A 
ATOM     15  C   UNL     1       7.111   5.180  17.070  0.00  0.00    +0.000 A 
ATOM     16  C   UNL     1       6.147   5.920  17.757  0.00  0.00    +0.000 A 
ENDBRANCH   7  11
BRANCH   6  17
ATOM     17  C   UNL     1       3.521   5.121  20.351  0.00  0.00    +0.000 C 
BRANCH  17  18
ATOM     18  N   UNL     1       2.933   3.853  19.870  0.00  0.00    +0.000 NA
ATOM     19  C   UNL     1       1.826   4.078  18.934  0.00  0.00    +0.000 C 
ATOM     20  C   UNL     1       1.314   2.810  18.250  0.00  0.00    +0.000 C 
ATOM     21  C   UNL     1       2.451   2.027  17.614  0.00  0.00    +0.000 C 
ATOM     22  C   UNL     1       3.494   1.711  18.672  0.00  0.00    +0.000 C 
ATOM     23  C   UNL     1       3.999   2.990  19.339  0.00  0.00    +0.000 C 
ENDBRANCH  17  18
ENDBRANCH   6  17
TORSDOF 3
ENDMDL
MODEL 4
REMARK VINA RESULT:      -8.1      0.292      1.044
REMARK  Name = 
REMARK  4 active torsions:
REMARK  status: ('A' for Active; 'I' for Inactive)
REMARK    1  A    between atoms: C_1  and  C_2
REMARK    2  A    between atoms: C_6  and  C_7
REMARK    3  A    between atoms: C_7  and  N_8
REMARK    4  A    between atoms: C_14  and  C_15
REMARK                            x       y       z     vdW  Elec       q    Type
REMARK                         _______ _______ _______ _____ _____    ______ ____
ROOT
ATOM      1  C   UNL     1       7.296   4.910  13.562  0.00  0.00    +0.000 C 
ATOM      2  C   UNL     1       6.548   5.116  14.857  0.00  0.00    +0.000 A 
ATOM      3  C   UNL     1       6.813   4.132  15.953  0.00  0.00    +0.000 A 
ATOM      4  C   UNL     1       6.129   4.331  17.086  0.00  0.00    +0.000 A 
ATOM      5  N   UNL     1       5.230   5.396  17.177  0.00  0.00    +0.000 N 
ATOM      6  C   UNL     1       4.405   5.795  18.213  0.00  0.00    +0.000 A 
ATOM      7  C   UNL     1       3.735   6.904  17.709  0.00  0.00    +0.000 A 
ATOM      8  N   UNL     1       4.169   7.204  16.438  0.00  0.00    +0.000 NA
ATOM      9  C   UNL     1       5.045   6.278  16.117  0.00  0.00    +0.000 A 
ATOM     10  N   UNL     1       5.728   6.122  14.939  0.00  0.00    +0.000 NA
ENDROOT
BRANCH   7  11
ATOM     11  C   UNL     1       2.742   7.717  18.405  0.00  0.00    +0.000 A 
ATOM     12  C   UNL     1       2.366   7.405  19.717  0.00  0.00    +0.000 A 
ATOM     13  C   UNL     1       1.410   8.179  20.390  0.00  0.00    +0.000 A 
ATOM     14  C   UNL     1       0.814   9.266  19.755  0.00  0.00    +0.000 A 
ATOM     15  C   UNL     1       1.187   9.597  18.458  0.00  0.00    +0.000 A 
ATOM     16  C   UNL     1       2.159   8.840  17.803  0.00  0.00    +0.000 A 
ENDBRANCH   7  11
BRANCH   6  17
ATOM     17  C   UNL     1       4.390   5.163  19.563  0.00  0.00    +0.000 C 
BRANCH  17  18
ATOM     18  N   UNL     1       3.532   3.963  19.637  0.00  0.00    +0.000 NA
ATOM     19  C   UNL     1       2.739   3.927  20.871  0.00  0.00    +0.000 C 
ATOM     20  C   UNL     1       1.686   2.818  20.910  0.00  0.00    +0.000 C 
ATOM     21  C   UNL     1       0.811   2.842  19.667  0.00  0.00    +0.000 C 
ATOM     22  C   UNL     1       1.692   2.737  18.434  0.00  0.00    +0.000 C 
ATOM     23  C   UNL     1       2.731   3.857  18.408  0.00  0.00    +0.000 C 
ENDBRANCH  17  18
ENDBRANCH   6  17
TORSDOF 3
ENDMDL
MODEL 5
REMARK VINA RESULT:      -8.0      1.273      5.268
REMARK  Name = 
REMARK  4 active torsions:
REMARK  status: ('A' for Active; 'I' for Inactive)
REMARK    1  A    between atoms: C_1  and  C_2
REMARK    2  A    between atoms: C_6  and  C_7
REMARK    3  A    between atoms: C_7  and  N_8
REMARK    4  A    between atoms: C_14  and  C_15
REMARK                            x       y       z     vdW  Elec       q    Type
REMARK                         _______ _______ _______ _____ _____    ______ ____
ROOT
ATOM      1  C   UNL     1       0.236  11.217  18.573  0.00  0.00    +0.000 C 
ATOM      2  C   UNL     1       1.063   9.960  18.692  0.00  0.00    +0.000 A 
ATOM      3  C   UNL     1       0.877   9.147  19.934  0.00  0.00    +0.000 A 
ATOM      4  C   UNL     1       1.630   8.043  20.020  0.00  0.00    +0.000 A 
ATOM      5  N   UNL     1       2.523   7.730  18.994  0.00  0.00    +0.000 N 
ATOM      6  C   UNL     1       3.409   6.676  18.857  0.00  0.00    +0.000 A 
ATOM      7  C   UNL     1       4.035   6.911  17.639  0.00  0.00    +0.000 A 
ATOM      8  N   UNL     1       3.519   8.031  17.029  0.00  0.00    +0.000 NA
ATOM      9  C   UNL     1       2.632   8.531  17.861  0.00  0.00    +0.000 A 
ATOM     10  N   UNL     1       1.878   9.666  17.722  0.00  0.00    +0.000 NA
ENDROOT
BRANCH   7  11
ATOM     11  C   UNL     1       5.063   6.086  17.011  0.00  0.00    +0.000 A 
ATOM     12  C   UNL     1       4.855   5.545  15.737  0.00  0.00    +0.000 A 
ATOM     13  C   UNL     1       5.836   4.749  15.129  0.00  0.00    +0.000 A 
ATOM     14  C   UNL     1       7.032   4.479  15.793  0.00  0.00    +0.000 A 
ATOM     15  C   UNL     1       7.259   5.020  17.052  0.00  0.00    +0.000 A 
ATOM     16  C   UNL     1       6.290   5.835  17.640  0.00  0.00    +0.000 A 
ENDBRANCH   7  11
BRANCH   6  17
ATOM     17  C   UNL     1       3.515   5.542  19.819  0.00  0.00    +0.000 C 
BRANCH  17  18
ATOM     18  N   UNL     1       2.321   4.672  19.831  0.00  0.00    +0.000 NA
ATOM     19  C   UNL     1       2.153   3.949  18.565  0.00  0.00    +0.000 C 
ATOM     20  C   UNL     1       1.055   2.883  18.591  0.00  0.00    +0.000 C 
ATOM     21  C   UNL     1       1.227   1.940  19.771  0.00  0.00    +0.000 C 
ATOM     22  C   UNL     1       1.255   2.748  21.057  0.00  0.00    +0.000 C 
ATOM     23  C   UNL     1       2.362   3.801  21.016  0.00  0.00    +0.000 C 
ENDBRANCH  17  18
ENDBRANCH   6  17
TORSDOF 3
ENDMDL
MODEL 6
REMARK VINA RESULT:      -8.0      1.019      1.352
REMARK  Name = 
REMARK  4 active torsions:
REMARK  status: ('A' for Active; 'I' for Inactive)
REMARK    1  A    between atoms: C_1  and  C_2
REMARK    2  A    between atoms: C_6  and  C_7
REMARK    3  A    between atoms: C_7  and  N_8
REMARK    4  A    between atoms: C_14  and  C_15
REMARK                            x       y       z     vdW  Elec       q    Type
REMARK                         _______ _______ _______ _____ _____    ______ ____
ROOT
ATOM      1  C   UNL     1       7.613   4.980  14.410  0.00  0.00    +0.000 C 
ATOM      2  C   UNL     1       6.397   5.057  15.301  0.00  0.00    +0.000 A 
ATOM      3  C   UNL     1       5.649   3.782  15.533  0.00  0.00    +0.000 A 
ATOM      4  C   UNL     1       4.569   3.881  16.317  0.00  0.00    +0.000 A 
ATOM      5  N   UNL     1       4.205   5.121  16.846  0.00  0.00    +0.000 N 
ATOM      6  C   UNL     1       3.141   5.481  17.653  0.00  0.00    +0.000 A 
ATOM      7  C   UNL     1       3.296   6.851  17.832  0.00  0.00    +0.000 A 
ATOM      8  N   UNL     1       4.435   7.303  17.206  0.00  0.00    +0.000 NA
ATOM      9  C   UNL     1       4.959   6.263  16.594  0.00  0.00    +0.000 A 
ATOM     10  N   UNL     1       6.077   6.213  15.804  0.00  0.00    +0.000 NA
ENDROOT
BRANCH   7  11
ATOM     11  C   UNL     1       2.437   7.733  18.616  0.00  0.00    +0.000 A 
ATOM     12  C   UNL     1       1.827   8.842  18.017  0.00  0.00    +0.000 A 
ATOM     13  C   UNL     1       1.004   9.697  18.764  0.00  0.00    +0.000 A 
ATOM     14  C   UNL     1       0.789   9.455  20.120  0.00  0.00    +0.000 A 
ATOM     15  C   UNL     1       1.376   8.351  20.725  0.00  0.00    +0.000 A 
ATOM     16  C   UNL     1       2.171   7.489  19.970  0.00  0.00    +0.000 A 
ENDBRANCH   7  11
BRANCH   6  17
ATOM     17  C   UNL     1       2.161   4.516  18.227  0.00  0.00    +0.000 C 
BRANCH  17  18
ATOM     18  N   UNL     1       2.496   4.090  19.602  0.00  0.00    +0.000 NA
ATOM     19  C   UNL     1       1.306   3.997  20.455  0.00  0.00    +0.000 C 
ATOM     20  C   UNL     1       1.564   3.367  21.825  0.00  0.00    +0.000 C 
ATOM     21  C   UNL     1       2.282   2.034  21.696  0.00  0.00    +0.000 C 
ATOM     22  C   UNL     1       3.571   2.234  20.919  0.00  0.00    +0.000 C 
ATOM     23  C   UNL     1       3.294   2.855  19.551  0.00  0.00    +0.000 C 
ENDBRANCH  17  18
ENDBRANCH   6  17
TORSDOF 3
ENDMDL
MODEL 7
REMARK VINA RESULT:      -7.9      1.596      5.331
REMARK  Name = 
REMARK  4 active torsions:
REMARK  status: ('A' for Active; 'I' for Inactive)
REMARK    1  A    between atoms: C_1  and  C_2
REMARK    2  A    between atoms: C_6  and  C_7
REMARK    3  A    between atoms: C_7  and  N_8
REMARK    4  A    between atoms: C_14  and  C_15
REMARK                            x       y       z     vdW  Elec       q    Type
REMARK                         _______ _______ _______ _____ _____    ______ ____
ROOT
ATOM      1  C   UNL     1       0.025  11.303  19.167  0.00  0.00    +0.000 C 
ATOM      2  C   UNL     1       0.845  10.036  19.148  0.00  0.00    +0.000 A 
ATOM      3  C   UNL     1       0.647   9.088  20.289  0.00  0.00    +0.000 A 
ATOM      4  C   UNL     1       1.394   7.978  20.253  0.00  0.00    +0.000 A 
ATOM      5  N   UNL     1       2.291   7.777  19.202  0.00  0.00    +0.000 N 
ATOM      6  C   UNL     1       3.173   6.741  18.952  0.00  0.00    +0.000 A 
ATOM      7  C   UNL     1       3.808   7.108  17.771  0.00  0.00    +0.000 A 
ATOM      8  N   UNL     1       3.300   8.293  17.289  0.00  0.00    +0.000 NA
ATOM      9  C   UNL     1       2.411   8.701  18.168  0.00  0.00    +0.000 A 
ATOM     10  N   UNL     1       1.663   9.849  18.154  0.00  0.00    +0.000 NA
ENDROOT
BRANCH   7  11
ATOM     11  C   UNL     1       4.835   6.354  17.059  0.00  0.00    +0.000 A 
ATOM     12  C   UNL     1       6.187   6.685  17.209  0.00  0.00    +0.000 A 
ATOM     13  C   UNL     1       7.179   5.968  16.526  0.00  0.00    +0.000 A 
ATOM     14  C   UNL     1       6.828   4.919  15.677  0.00  0.00    +0.000 A 
ATOM     15  C   UNL     1       5.491   4.570  15.529  0.00  0.00    +0.000 A 
ATOM     16  C   UNL     1       4.511   5.269  16.234  0.00  0.00    +0.000 A 
ENDBRANCH   7  11
BRANCH   6  17
ATOM     17  C   UNL     1       3.268   5.505  19.779  0.00  0.00    +0.000 C 
BRANCH  17  18
ATOM     18  N   UNL     1       2.755   4.300  19.093  0.00  0.00    +0.000 NA
ATOM     19  C   UNL     1       3.687   3.172  19.190  0.00  0.00    +0.000 C 
ATOM     20  C   UNL     1       3.123   1.846  18.677  0.00  0.00    +0.000 C 
ATOM     21  C   UNL     1       1.777   1.533  19.311  0.00  0.00    +0.000 C 
ATOM     22  C   UNL     1       0.823   2.686  19.052  0.00  0.00    +0.000 C 
ATOM     23  C   UNL     1       1.399   4.000  19.579  0.00  0.00    +0.000 C 
ENDBRANCH  17  18
ENDBRANCH   6  17
TORSDOF 3
ENDMDL
MODEL 8
REMARK VINA RESULT:      -7.9      0.697      1.242
REMARK  Name = 
REMARK  4 active torsions:
REMARK  status: ('A' for Active; 'I' for Inactive)
REMARK    1  A    between atoms: C_1  and  C_2
REMARK    2  A    between atoms: C_6  and  C_7
REMARK    3  A    between atoms: C_7  and  N_8
REMARK    4  A    between atoms: C_14  and  C_15
REMARK                            x       y       z     vdW  Elec       q    Type
REMARK                         _______ _______ _______ _____ _____    ______ ____
ROOT
ATOM      1  C   UNL     1       7.105   5.032  14.455  0.00  0.00    +0.000 C 
ATOM      2  C   UNL     1       6.195   5.321  15.624  0.00  0.00    +0.000 A 
ATOM      3  C   UNL     1       6.223   4.343  16.757  0.00  0.00    +0.000 A 
ATOM      4  C   UNL     1       5.398   4.616  17.775  0.00  0.00    +0.000 A 
ATOM      5  N   UNL     1       4.580   5.746  17.723  0.00  0.00    +0.000 N 
ATOM      6  C   UNL     1       3.646   6.227  18.624  0.00  0.00    +0.000 A 
ATOM      7  C   UNL     1       3.142   7.371  18.016  0.00  0.00    +0.000 A 
ATOM      8  N   UNL     1       3.777   7.612  16.819  0.00  0.00    +0.000 NA
ATOM      9  C   UNL     1       4.618   6.617  16.639  0.00  0.00    +0.000 A 
ATOM     10  N   UNL     1       5.450   6.386  15.575  0.00  0.00    +0.000 NA
ENDROOT
BRANCH   7  11
ATOM     11  C   UNL     1       2.124   8.269  18.551  0.00  0.00    +0.000 A 
ATOM     12  C   UNL     1       1.420   9.129  17.699  0.00  0.00    +0.000 A 
ATOM     13  C   UNL     1       0.444   9.997  18.206  0.00  0.00    +0.000 A 
ATOM     14  C   UNL     1       0.167  10.021  19.572  0.00  0.00    +0.000 A 
ATOM     15  C   UNL     1       0.846   9.164  20.428  0.00  0.00    +0.000 A 
ATOM     16  C   UNL     1       1.797   8.282  19.914  0.00  0.00    +0.000 A 
ENDBRANCH   7  11
BRANCH   6  17
ATOM     17  C   UNL     1       3.388   5.626  19.963  0.00  0.00    +0.000 C 
BRANCH  17  18
ATOM     18  N   UNL     1       2.201   4.745  19.991  0.00  0.00    +0.000 NA
ATOM     19  C   UNL     1       1.928   4.146  18.680  0.00  0.00    +0.000 C 
ATOM     20  C   UNL     1       0.840   3.072  18.695  0.00  0.00    +0.000 C 
ATOM     21  C   UNL     1       1.113   2.021  19.759  0.00  0.00    +0.000 C 
ATOM     22  C   UNL     1       1.249   2.702  21.110  0.00  0.00    +0.000 C 
ATOM     23  C   UNL     1       2.345   3.765  21.078  0.00  0.00    +0.000 C 
ENDBRANCH  17  18
ENDBRANCH   6  17
TORSDOF 3
ENDMDL
MODEL 9
REMARK VINA RESULT:      -7.9      1.273      5.346
REMARK  Name = 
REMARK  4 active torsions:
REMARK  status: ('A' for Active; 'I' for Inactive)
REMARK    1  A    between atoms: C_1  and  C_2
REMARK    2  A    between atoms: C_6  and  C_7
REMARK    3  A    between atoms: C_7  and  N_8
REMARK    4  A    between atoms: C_14  and  C_15
REMARK                            x       y       z     vdW  Elec       q    Type
REMARK                         _______ _______ _______ _____ _____    ______ ____
ROOT
ATOM      1  C   UNL     1       0.174  10.991  19.022  0.00  0.00    +0.000 C 
ATOM      2  C   UNL     1       1.036   9.751  19.027  0.00  0.00    +0.000 A 
ATOM      3  C   UNL     1       0.927   8.860  20.224  0.00  0.00    +0.000 A 
ATOM      4  C   UNL     1       1.710   7.775  20.208  0.00  0.00    +0.000 A 
ATOM      5  N   UNL     1       2.561   7.547  19.125  0.00  0.00    +0.000 N 
ATOM      6  C   UNL     1       3.465   6.528  18.885  0.00  0.00    +0.000 A 
ATOM      7  C   UNL     1       4.029   6.852  17.656  0.00  0.00    +0.000 A 
ATOM      8  N   UNL     1       3.457   7.992  17.139  0.00  0.00    +0.000 NA
ATOM      9  C   UNL     1       2.598   8.418  18.040  0.00  0.00    +0.000 A 
ATOM     10  N   UNL     1       1.811   9.538  18.004  0.00  0.00    +0.000 NA
ENDROOT
BRANCH   7  11
ATOM     11  C   UNL     1       5.046   6.095  16.933  0.00  0.00    +0.000 A 
ATOM     12  C   UNL     1       6.174   5.606  17.603  0.00  0.00    +0.000 A 
ATOM     13  C   UNL     1       7.157   4.881  16.915  0.00  0.00    +0.000 A 
ATOM     14  C   UNL     1       7.026   4.646  15.547  0.00  0.00    +0.000 A 
ATOM     15  C   UNL     1       5.905   5.112  14.871  0.00  0.00    +0.000 A 
ATOM     16  C   UNL     1       4.917   5.808  15.568  0.00  0.00    +0.000 A 
ENDBRANCH   7  11
BRANCH   6  17
ATOM     17  C   UNL     1       3.644   5.342  19.770  0.00  0.00    +0.000 C 
BRANCH  17  18
ATOM     18  N   UNL     1       2.447   4.476  19.836  0.00  0.00    +0.000 NA
ATOM     19  C   UNL     1       2.133   3.869  18.538  0.00  0.00    +0.000 C 
ATOM     20  C   UNL     1       1.033   2.808  18.591  0.00  0.00    +0.000 C 
ATOM     21  C   UNL     1       1.320   1.764  19.657  0.00  0.00    +0.000 C 
ATOM     22  C   UNL     1       1.498   2.455  20.997  0.00  0.00    +0.000 C 
ATOM     23  C   UNL     1       2.607   3.504  20.928  0.00  0.00    +0.000 C 
ENDBRANCH  17  18
ENDBRANCH   6  17
TORSDOF 3
ENDMDL
