MODEL 1
REMARK VINA RESULT:      -5.4      0.000      0.000
REMARK  Name = 
REMARK  6 active torsions:
REMARK  status: ('A' for Active; 'I' for Inactive)
REMARK    1  A    between atoms: C_1  and  C_2
REMARK    2  A    between atoms: C_2  and  N_3
REMARK    3  A    between atoms: C_7  and  C_8
REMARK    4  A    between atoms: C_8  and  O_10
REMARK    5  A    between atoms: O_10  and  C_11
REMARK    6  A    between atoms: C_12  and  C_13
REMARK                            x       y       z     vdW  Elec       q    Type
REMARK                         _______ _______ _______ _____ _____    ______ ____
ROOT
ATOM      1  N   UNL     1       6.625   5.274  17.419  0.00  0.00    +0.000 N 
ATOM      2  C   UNL     1       6.786   4.714  16.152  0.00  0.00    +0.000 C 
ATOM      3  O   UNL     1       7.724   4.869  15.386  0.00  0.00    +0.000 OA
ATOM      4  C   UNL     1       5.570   3.848  15.880  0.00  0.00    +0.000 C 
ATOM      5  C   UNL     1       4.832   3.989  17.179  0.00  0.00    +0.000 C 
ATOM      6  C   UNL     1       5.480   4.803  18.030  0.00  0.00    +0.000 C 
ATOM      7  C   UNL     1       5.137   5.188  19.432  0.00  0.00    +0.000 C 
ENDROOT
BRANCH   1   9
ATOM      8  C   UNL     1       7.455   7.606  17.523  0.00  0.00    +0.000 C 
ATOM      9  C   UNL     1       7.601   6.175  18.013  0.00  0.00    +0.000 C 
ENDBRANCH   1   9
BRANCH   5  10
ATOM     10  C   UNL     1       3.562   3.287  17.437  0.00  0.00    +0.000 C 
ATOM     11  O   UNL     1       3.465   2.112  17.733  0.00  0.00    +0.000 OA
BRANCH  10  12
ATOM     12  O   UNL     1       2.517   4.146  17.303  0.00  0.00    +0.000 OA
ATOM     13  C   UNL     1       1.501   3.948  18.291  0.00  0.00    +0.000 C 
ENDBRANCH  10  12
ENDBRANCH   5  10
TORSDOF 3
ENDMDL
MODEL 2
REMARK VINA RESULT:      -5.4      0.648      1.265
REMARK  Name = 
REMARK  6 active torsions:
REMARK  status: ('A' for Active; 'I' for Inactive)
REMARK    1  A    between atoms: C_1  and  C_2
REMARK    2  A    between atoms: C_2  and  N_3
REMARK    3  A    between atoms: C_7  and  C_8
REMARK    4  A    between atoms: C_8  and  O_10
REMARK    5  A    between atoms: O_10  and  C_11
REMARK    6  A    between atoms: C_12  and  C_13
REMARK                            x       y       z     vdW  Elec       q    Type
REMARK                         _______ _______ _______ _____ _____    ______ ____
ROOT
ATOM      1  N   UNL     1       6.424   5.238  17.513  0.00  0.00    +0.000 N 
ATOM      2  C   UNL     1       6.560   4.688  16.238  0.00  0.00    +0.000 C 
ATOM      3  O   UNL     1       7.544   4.728  15.515  0.00  0.00    +0.000 OA
ATOM      4  C   UNL     1       5.250   4.006  15.893  0.00  0.00    +0.000 C 
ATOM      5  C   UNL     1       4.482   4.220  17.165  0.00  0.00    +0.000 C 
ATOM      6  C   UNL     1       5.198   4.917  18.064  0.00  0.00    +0.000 C 
ATOM      7  C   UNL     1       4.851   5.316  19.461  0.00  0.00    +0.000 C 
ENDROOT
BRANCH   1   9
ATOM      8  C   UNL     1       7.606   7.410  17.666  0.00  0.00    +0.000 C 
ATOM      9  C   UNL     1       7.488   5.981  18.170  0.00  0.00    +0.000 C 
ENDBRANCH   1   9
BRANCH   5  10
ATOM     10  C   UNL     1       3.117   3.696  17.352  0.00  0.00    +0.000 C 
ATOM     11  O   UNL     1       2.127   4.380  17.520  0.00  0.00    +0.000 OA
BRANCH  10  12
ATOM     12  O   UNL     1       3.127   2.337  17.300  0.00  0.00    +0.000 OA
ATOM     13  C   UNL     1       3.501   1.733  18.542  0.00  0.00    +0.000 C 
ENDBRANCH  10  12
ENDBRANCH   5  10
TORSDOF 3
ENDMDL
MODEL 3
REMARK VINA RESULT:      -5.3      2.559      3.613
REMARK  Name = 
REMARK  6 active torsions:
REMARK  status: ('A' for Active; 'I' for Inactive)
REMARK    1  A    between atoms: C_1  and  C_2
REMARK    2  A    between atoms: C_2  and  N_3
REMARK    3  A    between atoms: C_7  and  C_8
REMARK    4  A    between atoms: C_8  and  O_10
REMARK    5  A    between atoms: O_10  and  C_11
REMARK    6  A    between atoms: C_12  and  C_13
REMARK                            x       y       z     vdW  Elec       q    Type
REMARK                         _______ _______ _______ _____ _____    ______ ____
ROOT
ATOM      1  N   UNL     1       4.086   4.314  17.666  0.00  0.00    +0.000 N 
ATOM      2  C   UNL     1       3.463   5.559  17.761  0.00  0.00    +0.000 C 
ATOM      3  O   UNL     1       3.904   6.638  17.398  0.00  0.00    +0.000 OA
ATOM      4  C   UNL     1       2.104   5.341  18.399  0.00  0.00    +0.000 C 
ATOM      5  C   UNL     1       2.101   3.847  18.541  0.00  0.00    +0.000 C 
ATOM      6  C   UNL     1       3.248   3.304  18.097  0.00  0.00    +0.000 C 
ATOM      7  C   UNL     1       3.656   1.870  18.008  0.00  0.00    +0.000 C 
ENDROOT
BRANCH   1   9
ATOM      8  C   UNL     1       5.421   4.122  15.588  0.00  0.00    +0.000 C 
ATOM      9  C   UNL     1       5.418   4.139  17.107  0.00  0.00    +0.000 C 
ENDBRANCH   1   9
BRANCH   5  10
ATOM     10  C   UNL     1       0.946   3.117  19.095  0.00  0.00    +0.000 C 
ATOM     11  O   UNL     1       0.298   2.283  18.495  0.00  0.00    +0.000 OA
BRANCH  10  12
ATOM     12  O   UNL     1       0.719   3.506  20.378  0.00  0.00    +0.000 OA
ATOM     13  C   UNL     1       1.481   2.761  21.332  0.00  0.00    +0.000 C 
ENDBRANCH  10  12
ENDBRANCH   5  10
TORSDOF 3
ENDMDL
MODEL 4
REMARK VINA RESULT:      -5.3      1.856      4.866
REMARK  Name = 
REMARK  6 active torsions:
REMARK  status: ('A' for Active; 'I' for Inactive)
REMARK    1  A    between atoms: C_1  and  C_2
REMARK    2  A    between atoms: C_2  and  N_3
REMARK    3  A    between atoms: C_7  and  C_8
REMARK    4  A    between atoms: C_8  and  O_10
REMARK    5  A    between atoms: O_10  and  C_11
REMARK    6  A    between atoms: C_12  and  C_13
REMARK                            x       y       z     vdW  Elec       q    Type
REMARK                         _______ _______ _______ _____ _____    ______ ____
ROOT
ATOM      1  N   UNL     1       3.826   4.505  17.973  0.00  0.00    +0.000 N 
ATOM      2  C   UNL     1       4.129   4.867  19.286  0.00  0.00    +0.000 C 
ATOM      3  O   UNL     1       3.365   4.914  20.237  0.00  0.00    +0.000 OA
ATOM      4  C   UNL     1       5.609   5.194  19.338  0.00  0.00    +0.000 C 
ATOM      5  C   UNL     1       6.012   4.884  17.926  0.00  0.00    +0.000 C 
ATOM      6  C   UNL     1       4.962   4.483  17.188  0.00  0.00    +0.000 C 
ATOM      7  C   UNL     1       4.909   4.037  15.764  0.00  0.00    +0.000 C 
ENDROOT
BRANCH   1   9
ATOM      8  C   UNL     1       2.147   2.686  17.865  0.00  0.00    +0.000 C 
ATOM      9  C   UNL     1       2.485   4.133  17.547  0.00  0.00    +0.000 C 
ENDBRANCH   1   9
BRANCH   5  10
ATOM     10  C   UNL     1       7.406   5.011  17.464  0.00  0.00    +0.000 C 
ATOM     11  O   UNL     1       8.297   4.226  17.720  0.00  0.00    +0.000 OA
BRANCH  10  12
ATOM     12  O   UNL     1       7.547   6.130  16.704  0.00  0.00    +0.000 OA
ATOM     13  C   UNL     1       7.572   7.332  17.479  0.00  0.00    +0.000 C 
ENDBRANCH  10  12
ENDBRANCH   5  10
TORSDOF 3
ENDMDL
MODEL 5
REMARK VINA RESULT:      -5.3      2.444      4.896
REMARK  Name = 
REMARK  6 active torsions:
REMARK  status: ('A' for Active; 'I' for Inactive)
REMARK    1  A    between atoms: C_1  and  C_2
REMARK    2  A    between atoms: C_2  and  N_3
REMARK    3  A    between atoms: C_7  and  C_8
REMARK    4  A    between atoms: C_8  and  O_10
REMARK    5  A    between atoms: O_10  and  C_11
REMARK    6  A    between atoms: C_12  and  C_13
REMARK                            x       y       z     vdW  Elec       q    Type
REMARK                         _______ _______ _______ _____ _____    ______ ____
ROOT
ATOM      1  N   UNL     1       3.012   3.092  19.292  0.00  0.00    +0.000 N 
ATOM      2  C   UNL     1       4.346   2.898  19.654  0.00  0.00    +0.000 C 
ATOM      3  O   UNL     1       4.788   2.079  20.444  0.00  0.00    +0.000 OA
ATOM      4  C   UNL     1       5.179   3.898  18.874  0.00  0.00    +0.000 C 
ATOM      5  C   UNL     1       4.118   4.553  18.039  0.00  0.00    +0.000 C 
ATOM      6  C   UNL     1       2.899   4.051  18.304  0.00  0.00    +0.000 C 
ATOM      7  C   UNL     1       1.578   4.371  17.685  0.00  0.00    +0.000 C 
ENDROOT
BRANCH   1   9
ATOM      8  C   UNL     1       1.351   2.920  21.122  0.00  0.00    +0.000 C 
ATOM      9  C   UNL     1       1.921   2.310  19.852  0.00  0.00    +0.000 C 
ENDBRANCH   1   9
BRANCH   5  10
ATOM     10  C   UNL     1       4.434   5.605  17.057  0.00  0.00    +0.000 C 
ATOM     11  O   UNL     1       4.266   6.796  17.233  0.00  0.00    +0.000 OA
BRANCH  10  12
ATOM     12  O   UNL     1       4.950   5.050  15.928  0.00  0.00    +0.000 OA
ATOM     13  C   UNL     1       6.327   5.378  15.722  0.00  0.00    +0.000 C 
ENDBRANCH  10  12
ENDBRANCH   5  10
TORSDOF 3
ENDMDL
MODEL 6
REMARK VINA RESULT:      -5.2      1.702      4.251
REMARK  Name = 
REMARK  6 active torsions:
REMARK  status: ('A' for Active; 'I' for Inactive)
REMARK    1  A    between atoms: C_1  and  C_2
REMARK    2  A    between atoms: C_2  and  N_3
REMARK    3  A    between atoms: C_7  and  C_8
REMARK    4  A    between atoms: C_8  and  O_10
REMARK    5  A    between atoms: O_10  and  C_11
REMARK    6  A    between atoms: C_12  and  C_13
REMARK                            x       y       z     vdW  Elec       q    Type
REMARK                         _______ _______ _______ _____ _____    ______ ____
ROOT
ATOM      1  N   UNL     1       3.971   4.293  18.493  0.00  0.00    +0.000 N 
ATOM      2  C   UNL     1       3.419   3.792  17.314  0.00  0.00    +0.000 C 
ATOM      3  O   UNL     1       2.271   3.417  17.134  0.00  0.00    +0.000 OA
ATOM      4  C   UNL     1       4.510   3.799  16.261  0.00  0.00    +0.000 C 
ATOM      5  C   UNL     1       5.636   4.423  17.032  0.00  0.00    +0.000 C 
ATOM      6  C   UNL     1       5.276   4.699  18.298  0.00  0.00    +0.000 C 
ATOM      7  C   UNL     1       6.054   5.355  19.392  0.00  0.00    +0.000 C 
ENDROOT
BRANCH   1   9
ATOM      8  C   UNL     1       2.399   5.707  19.785  0.00  0.00    +0.000 C 
ATOM      9  C   UNL     1       3.211   4.423  19.727  0.00  0.00    +0.000 C 
ENDBRANCH   1   9
BRANCH   5  10
ATOM     10  C   UNL     1       6.951   4.689  16.420  0.00  0.00    +0.000 C 
ATOM     11  O   UNL     1       8.004   4.222  16.806  0.00  0.00    +0.000 OA
BRANCH  10  12
ATOM     12  O   UNL     1       6.811   5.524  15.357  0.00  0.00    +0.000 OA
ATOM     13  C   UNL     1       7.136   4.902  14.110  0.00  0.00    +0.000 C 
ENDBRANCH  10  12
ENDBRANCH   5  10
TORSDOF 3
ENDMDL
MODEL 7
REMARK VINA RESULT:      -5.2      2.109      4.569
REMARK  Name = 
REMARK  6 active torsions:
REMARK  status: ('A' for Active; 'I' for Inactive)
REMARK    1  A    between atoms: C_1  and  C_2
REMARK    2  A    between atoms: C_2  and  N_3
REMARK    3  A    between atoms: C_7  and  C_8
REMARK    4  A    between atoms: C_8  and  O_10
REMARK    5  A    between atoms: O_10  and  C_11
REMARK    6  A    between atoms: C_12  and  C_13
REMARK                            x       y       z     vdW  Elec       q    Type
REMARK                         _______ _______ _______ _____ _____    ______ ____
ROOT
ATOM      1  N   UNL     1       3.028   4.586  18.228  0.00  0.00    +0.000 N 
ATOM      2  C   UNL     1       3.566   3.422  17.680  0.00  0.00    +0.000 C 
ATOM      3  O   UNL     1       3.218   2.272  17.896  0.00  0.00    +0.000 OA
ATOM      4  C   UNL     1       4.682   3.834  16.739  0.00  0.00    +0.000 C 
ATOM      5  C   UNL     1       4.584   5.329  16.831  0.00  0.00    +0.000 C 
ATOM      6  C   UNL     1       3.618   5.711  17.684  0.00  0.00    +0.000 C 
ATOM      7  C   UNL     1       3.147   7.082  18.045  0.00  0.00    +0.000 C 
ENDROOT
BRANCH   1   9
ATOM      8  C   UNL     1       2.419   4.519  20.629  0.00  0.00    +0.000 C 
ATOM      9  C   UNL     1       1.936   4.575  19.189  0.00  0.00    +0.000 C 
ENDBRANCH   1   9
BRANCH   5  10
ATOM     10  C   UNL     1       5.460   6.220  16.049  0.00  0.00    +0.000 C 
ATOM     11  O   UNL     1       5.084   6.966  15.167  0.00  0.00    +0.000 OA
BRANCH  10  12
ATOM     12  O   UNL     1       6.749   6.090  16.463  0.00  0.00    +0.000 OA
ATOM     13  C   UNL     1       7.132   7.085  17.417  0.00  0.00    +0.000 C 
ENDBRANCH  10  12
ENDBRANCH   5  10
TORSDOF 3
ENDMDL
MODEL 8
REMARK VINA RESULT:      -5.2      2.291      4.159
REMARK  Name = 
REMARK  6 active torsions:
REMARK  status: ('A' for Active; 'I' for Inactive)
REMARK    1  A    between atoms: C_1  and  C_2
REMARK    2  A    between atoms: C_2  and  N_3
REMARK    3  A    between atoms: C_7  and  C_8
REMARK    4  A    between atoms: C_8  and  O_10
REMARK    5  A    between atoms: O_10  and  C_11
REMARK    6  A    between atoms: C_12  and  C_13
REMARK                            x       y       z     vdW  Elec       q    Type
REMARK                         _______ _______ _______ _____ _____    ______ ____
ROOT
ATOM      1  N   UNL     1       5.427   4.743  18.521  0.00  0.00    +0.000 N 
ATOM      2  C   UNL     1       6.696   5.168  18.914  0.00  0.00    +0.000 C 
ATOM      3  O   UNL     1       7.084   5.393  20.050  0.00  0.00    +0.000 OA
ATOM      4  C   UNL     1       7.541   5.301  17.661  0.00  0.00    +0.000 C 
ATOM      5  C   UNL     1       6.570   4.827  16.620  0.00  0.00    +0.000 C 
ATOM      6  C   UNL     1       5.381   4.508  17.160  0.00  0.00    +0.000 C 
ATOM      7  C   UNL     1       4.153   3.958  16.512  0.00  0.00    +0.000 C 
ENDROOT
BRANCH   1   9
ATOM      8  C   UNL     1       3.434   5.725  19.618  0.00  0.00    +0.000 C 
ATOM      9  C   UNL     1       4.343   4.516  19.464  0.00  0.00    +0.000 C 
ENDBRANCH   1   9
BRANCH   5  10
ATOM     10  C   UNL     1       6.935   4.732  15.195  0.00  0.00    +0.000 C 
ATOM     11  O   UNL     1       7.621   5.538  14.598  0.00  0.00    +0.000 OA
BRANCH  10  12
ATOM     12  O   UNL     1       6.400   3.608  14.649  0.00  0.00    +0.000 OA
ATOM     13  C   UNL     1       6.161   3.728  13.244  0.00  0.00    +0.000 C 
ENDBRANCH  10  12
ENDBRANCH   5  10
TORSDOF 3
ENDMDL
MODEL 9
REMARK VINA RESULT:      -5.1      2.579      5.244
REMARK  Name = 
REMARK  6 active torsions:
REMARK  status: ('A' for Active; 'I' for Inactive)
REMARK    1  A    between atoms: C_1  and  C_2
REMARK    2  A    between atoms: C_2  and  N_3
REMARK    3  A    between atoms: C_7  and  C_8
REMARK    4  A    between atoms: C_8  and  O_10
REMARK    5  A    between atoms: O_10  and  C_11
REMARK    6  A    between atoms: C_12  and  C_13
REMARK                            x       y       z     vdW  Elec       q    Type
REMARK                         _______ _______ _______ _____ _____    ______ ____
ROOT
ATOM      1  N   UNL     1       2.074   4.058  19.401  0.00  0.00    +0.000 N 
ATOM      2  C   UNL     1       2.378   5.385  19.703  0.00  0.00    +0.000 C 
ATOM      3  O   UNL     1       1.818   6.108  20.512  0.00  0.00    +0.000 OA
ATOM      4  C   UNL     1       3.559   5.789  18.841  0.00  0.00    +0.000 C 
ATOM      5  C   UNL     1       3.845   4.495  18.137  0.00  0.00    +0.000 C 
ATOM      6  C   UNL     1       2.978   3.533  18.498  0.00  0.00    +0.000 C 
ATOM      7  C   UNL     1       2.917   2.099  18.087  0.00  0.00    +0.000 C 
ENDROOT
BRANCH   1   9
ATOM      8  C   UNL     1       1.354   2.788  21.403  0.00  0.00    +0.000 C 
ATOM      9  C   UNL     1       0.982   3.334  20.034  0.00  0.00    +0.000 C 
ENDBRANCH   1   9
BRANCH   5  10
ATOM     10  C   UNL     1       4.961   4.353  17.185  0.00  0.00    +0.000 C 
ATOM     11  O   UNL     1       4.840   4.274  15.978  0.00  0.00    +0.000 OA
BRANCH  10  12
ATOM     12  O   UNL     1       6.145   4.333  17.852  0.00  0.00    +0.000 OA
ATOM     13  C   UNL     1       7.268   4.602  17.007  0.00  0.00    +0.000 C 
ENDBRANCH  10  12
ENDBRANCH   5  10
TORSDOF 3
ENDMDL
