MODEL 1
REMARK VINA RESULT:      -7.3      0.000      0.000
REMARK  Name = 
REMARK  3 active torsions:
REMARK  status: ('A' for Active; 'I' for Inactive)
REMARK    1  A    between atoms: C_1  and  C_2
REMARK    2  A    between atoms: C_8  and  N_9
REMARK    3  A    between atoms: N_15  and  C_16
REMARK                            x       y       z     vdW  Elec       q    Type
REMARK                         _______ _______ _______ _____ _____    ______ ____
ROOT
ATOM      1  N   UNL     1      -0.016  12.091  20.314  0.00  0.00    +0.000 N 
ATOM      2  C   UNL     1       0.315  11.779  19.001  0.00  0.00    +0.000 A 
ATOM      3  N   UNL     1       0.847  10.679  18.569  0.00  0.00    +0.000 NA
ATOM      4  C   UNL     1       1.109   9.743  19.574  0.00  0.00    +0.000 A 
ATOM      5  N   UNL     1       1.712   8.546  19.325  0.00  0.00    +0.000 NA
ATOM      6  C   UNL     1       1.831   7.848  20.434  0.00  0.00    +0.000 A 
ATOM      7  N   UNL     1       2.315   6.589  20.550  0.00  0.00    +0.000 N 
ATOM      8  S   UNL     1       1.260   8.666  21.854  0.00  0.00    +0.000 S 
ATOM      9  C   UNL     1       0.779   9.963  20.880  0.00  0.00    +0.000 A 
ATOM     10  C   UNL     1       0.123  11.145  21.335  0.00  0.00    +0.000 A 
ATOM     11  O   UNL     1      -0.295  11.298  22.483  0.00  0.00    +0.000 OA
ATOM     12  H   UNL     1       2.306   6.174  21.478  0.00  0.00    +0.000 HD
ENDROOT
BRANCH   1  20
ATOM     13  C   UNL     1       1.792  14.249  21.149  0.00  0.00    +0.000 C 
ATOM     14  C   UNL     1       0.299  14.417  21.036  0.00  0.00    +0.000 A 
ATOM     15  C   UNL     1      -0.250  15.681  21.306  0.00  0.00    +0.000 A 
ATOM     16  C   UNL     1      -1.614  15.922  21.145  0.00  0.00    +0.000 A 
ATOM     17  C   UNL     1      -2.457  14.898  20.722  0.00  0.00    +0.000 A 
ATOM     18  C   UNL     1      -1.938  13.629  20.461  0.00  0.00    +0.000 A 
ATOM     19 CL   UNL     1      -3.067  12.392  20.024  0.00  0.00    +0.000 Cl
ATOM     20  C   UNL     1      -0.560  13.372  20.614  0.00  0.00    +0.000 A 
ENDBRANCH   1  20
BRANCH   7  21
ATOM     21  C   UNL     1       2.353   5.615  19.528  0.00  0.00    +0.000 A 
ATOM     22  C   UNL     1       3.252   5.640  18.453  0.00  0.00    +0.000 A 
ATOM     23  C   UNL     1       3.206   4.671  17.448  0.00  0.00    +0.000 A 
ATOM     24  C   UNL     1       2.264   3.645  17.505  0.00  0.00    +0.000 A 
ATOM     25  C   UNL     1       1.374   3.587  18.572  0.00  0.00    +0.000 A 
ATOM     26  C   UNL     1       1.430   4.559  19.568  0.00  0.00    +0.000 A 
ATOM     27  F   UNL     1       0.549   4.498  20.581  0.00  0.00    +0.000 F 
ENDBRANCH   7  21
TORSDOF 2
ENDMDL
MODEL 2
REMARK VINA RESULT:      -7.3      1.117      1.763
REMARK  Name = 
REMARK  3 active torsions:
REMARK  status: ('A' for Active; 'I' for Inactive)
REMARK    1  A    between atoms: C_1  and  C_2
REMARK    2  A    between atoms: C_8  and  N_9
REMARK    3  A    between atoms: N_15  and  C_16
REMARK                            x       y       z     vdW  Elec       q    Type
REMARK                         _______ _______ _______ _____ _____    ______ ____
ROOT
ATOM      1  N   UNL     1      -0.097  11.986  20.300  0.00  0.00    +0.000 N 
ATOM      2  C   UNL     1       0.307  11.706  19.000  0.00  0.00    +0.000 A 
ATOM      3  N   UNL     1       0.872  10.621  18.573  0.00  0.00    +0.000 NA
ATOM      4  C   UNL     1       1.089   9.665  19.570  0.00  0.00    +0.000 A 
ATOM      5  N   UNL     1       1.716   8.479  19.327  0.00  0.00    +0.000 NA
ATOM      6  C   UNL     1       1.782   7.757  20.426  0.00  0.00    +0.000 A 
ATOM      7  N   UNL     1       2.271   6.500  20.540  0.00  0.00    +0.000 N 
ATOM      8  S   UNL     1       1.128   8.538  21.831  0.00  0.00    +0.000 S 
ATOM      9  C   UNL     1       0.687   9.853  20.861  0.00  0.00    +0.000 A 
ATOM     10  C   UNL     1      -0.004  11.019  21.306  0.00  0.00    +0.000 A 
ATOM     11  O   UNL     1      -0.484  11.142  22.433  0.00  0.00    +0.000 OA
ATOM     12  H   UNL     1       2.217   6.064  21.457  0.00  0.00    +0.000 HD
ENDROOT
BRANCH   1  20
ATOM     13  C   UNL     1      -2.988  12.370  19.950  0.00  0.00    +0.000 C 
ATOM     14  C   UNL     1      -2.058  13.460  20.415  0.00  0.00    +0.000 A 
ATOM     15  C   UNL     1      -2.610  14.711  20.736  0.00  0.00    +0.000 A 
ATOM     16  C   UNL     1      -1.815  15.738  21.246  0.00  0.00    +0.000 A 
ATOM     17  C   UNL     1      -0.451  15.535  21.433  0.00  0.00    +0.000 A 
ATOM     18  C   UNL     1       0.123  14.304  21.109  0.00  0.00    +0.000 A 
ATOM     19 CL   UNL     1       1.839  14.166  21.290  0.00  0.00    +0.000 Cl
ATOM     20  C   UNL     1      -0.668  13.256  20.598  0.00  0.00    +0.000 A 
ENDBRANCH   1  20
BRANCH   7  21
ATOM     21  C   UNL     1       2.373   5.550  19.500  0.00  0.00    +0.000 A 
ATOM     22  C   UNL     1       3.323   5.611  18.472  0.00  0.00    +0.000 A 
ATOM     23  C   UNL     1       3.340   4.664  17.445  0.00  0.00    +0.000 A 
ATOM     24  C   UNL     1       2.412   3.624  17.433  0.00  0.00    +0.000 A 
ATOM     25  C   UNL     1       1.471   3.530  18.454  0.00  0.00    +0.000 A 
ATOM     26  C   UNL     1       1.465   4.481  19.472  0.00  0.00    +0.000 A 
ATOM     27  F   UNL     1       0.537   4.385  20.439  0.00  0.00    +0.000 F 
ENDBRANCH   7  21
TORSDOF 2
ENDMDL
MODEL 3
REMARK VINA RESULT:      -7.2      1.739      2.003
REMARK  Name = 
REMARK  3 active torsions:
REMARK  status: ('A' for Active; 'I' for Inactive)
REMARK    1  A    between atoms: C_1  and  C_2
REMARK    2  A    between atoms: C_8  and  N_9
REMARK    3  A    between atoms: N_15  and  C_16
REMARK                            x       y       z     vdW  Elec       q    Type
REMARK                         _______ _______ _______ _____ _____    ______ ____
ROOT
ATOM      1  N   UNL     1       1.075  11.479  19.324  0.00  0.00    +0.000 N 
ATOM      2  C   UNL     1       1.711  10.926  18.219  0.00  0.00    +0.000 A 
ATOM      3  N   UNL     1       2.099   9.698  18.074  0.00  0.00    +0.000 NA
ATOM      4  C   UNL     1       1.840   8.886  19.183  0.00  0.00    +0.000 A 
ATOM      5  N   UNL     1       2.219   7.578  19.240  0.00  0.00    +0.000 NA
ATOM      6  C   UNL     1       1.846   7.039  20.382  0.00  0.00    +0.000 A 
ATOM      7  N   UNL     1       1.991   5.745  20.751  0.00  0.00    +0.000 N 
ATOM      8  S   UNL     1       1.064   8.142  21.469  0.00  0.00    +0.000 S 
ATOM      9  C   UNL     1       1.187   9.349  20.289  0.00  0.00    +0.000 A 
ATOM     10  C   UNL     1       0.695  10.682  20.409  0.00  0.00    +0.000 A 
ATOM     11  O   UNL     1      -0.006  11.071  21.343  0.00  0.00    +0.000 OA
ATOM     12  H   UNL     1       1.615   5.476  21.656  0.00  0.00    +0.000 HD
ENDROOT
BRANCH   1  20
ATOM     13  C   UNL     1       2.904  13.365  20.637  0.00  0.00    +0.000 C 
ATOM     14  C   UNL     1       1.618  13.785  19.973  0.00  0.00    +0.000 A 
ATOM     15  C   UNL     1       1.300  15.152  19.946  0.00  0.00    +0.000 A 
ATOM     16  C   UNL     1       0.165  15.613  19.280  0.00  0.00    +0.000 A 
ATOM     17  C   UNL     1      -0.680  14.712  18.637  0.00  0.00    +0.000 A 
ATOM     18  C   UNL     1      -0.392  13.346  18.661  0.00  0.00    +0.000 A 
ATOM     19 CL   UNL     1      -1.540  12.288  17.913  0.00  0.00    +0.000 Cl
ATOM     20  C   UNL     1       0.755  12.866  19.326  0.00  0.00    +0.000 A 
ENDBRANCH   1  20
BRANCH   7  21
ATOM     21  C   UNL     1       2.125   4.641  19.878  0.00  0.00    +0.000 A 
ATOM     22  C   UNL     1       1.065   3.807  19.499  0.00  0.00    +0.000 A 
ATOM     23  C   UNL     1       1.274   2.703  18.669  0.00  0.00    +0.000 A 
ATOM     24  C   UNL     1       2.551   2.416  18.190  0.00  0.00    +0.000 A 
ATOM     25  C   UNL     1       3.617   3.240  18.537  0.00  0.00    +0.000 A 
ATOM     26  C   UNL     1       3.395   4.339  19.365  0.00  0.00    +0.000 A 
ATOM     27  F   UNL     1       4.440   5.113  19.705  0.00  0.00    +0.000 F 
ENDBRANCH   7  21
TORSDOF 2
ENDMDL
MODEL 4
REMARK VINA RESULT:      -7.2      1.004      1.381
REMARK  Name = 
REMARK  3 active torsions:
REMARK  status: ('A' for Active; 'I' for Inactive)
REMARK    1  A    between atoms: C_1  and  C_2
REMARK    2  A    between atoms: C_8  and  N_9
REMARK    3  A    between atoms: N_15  and  C_16
REMARK                            x       y       z     vdW  Elec       q    Type
REMARK                         _______ _______ _______ _____ _____    ______ ____
ROOT
ATOM      1  N   UNL     1      -0.325  12.246  20.290  0.00  0.00    +0.000 N 
ATOM      2  C   UNL     1      -0.236  11.739  19.000  0.00  0.00    +0.000 A 
ATOM      3  N   UNL     1       0.219  10.577  18.646  0.00  0.00    +0.000 NA
ATOM      4  C   UNL     1       0.668   9.795  19.714  0.00  0.00    +0.000 A 
ATOM      5  N   UNL     1       1.226   8.563  19.539  0.00  0.00    +0.000 NA
ATOM      6  C   UNL     1       1.552   8.035  20.700  0.00  0.00    +0.000 A 
ATOM      7  N   UNL     1       2.060   6.798  20.911  0.00  0.00    +0.000 N 
ATOM      8  S   UNL     1       1.241   9.063  22.063  0.00  0.00    +0.000 S 
ATOM      9  C   UNL     1       0.579  10.211  21.011  0.00  0.00    +0.000 A 
ATOM     10  C   UNL     1       0.006  11.459  21.397  0.00  0.00    +0.000 A 
ATOM     11  O   UNL     1      -0.197  11.787  22.566  0.00  0.00    +0.000 OA
ATOM     12  H   UNL     1       2.224   6.524  21.876  0.00  0.00    +0.000 HD
ENDROOT
BRANCH   1  20
ATOM     13  C   UNL     1       1.568  14.492  20.271  0.00  0.00    +0.000 C 
ATOM     14  C   UNL     1       0.088  14.658  20.503  0.00  0.00    +0.000 A 
ATOM     15  C   UNL     1      -0.415  15.957  20.679  0.00  0.00    +0.000 A 
ATOM     16  C   UNL     1      -1.783  16.185  20.820  0.00  0.00    +0.000 A 
ATOM     17  C   UNL     1      -2.673  15.115  20.799  0.00  0.00    +0.000 A 
ATOM     18  C   UNL     1      -2.197  13.813  20.640  0.00  0.00    +0.000 A 
ATOM     19 CL   UNL     1      -3.362  12.535  20.713  0.00  0.00    +0.000 Cl
ATOM     20  C   UNL     1      -0.816  13.568  20.490  0.00  0.00    +0.000 A 
ENDBRANCH   1  20
BRANCH   7  21
ATOM     21  C   UNL     1       1.920   5.683  20.054  0.00  0.00    +0.000 A 
ATOM     22  C   UNL     1       1.066   4.602  20.307  0.00  0.00    +0.000 A 
ATOM     23  C   UNL     1       1.010   3.507  19.441  0.00  0.00    +0.000 A 
ATOM     24  C   UNL     1       1.800   3.478  18.294  0.00  0.00    +0.000 A 
ATOM     25  C   UNL     1       2.641   4.549  18.010  0.00  0.00    +0.000 A 
ATOM     26  C   UNL     1       2.688   5.635  18.881  0.00  0.00    +0.000 A 
ATOM     27  F   UNL     1       3.521   6.652  18.602  0.00  0.00    +0.000 F 
ENDBRANCH   7  21
TORSDOF 2
ENDMDL
MODEL 5
REMARK VINA RESULT:      -7.1      1.455      2.190
REMARK  Name = 
REMARK  3 active torsions:
REMARK  status: ('A' for Active; 'I' for Inactive)
REMARK    1  A    between atoms: C_1  and  C_2
REMARK    2  A    between atoms: C_8  and  N_9
REMARK    3  A    between atoms: N_15  and  C_16
REMARK                            x       y       z     vdW  Elec       q    Type
REMARK                         _______ _______ _______ _____ _____    ______ ____
ROOT
ATOM      1  N   UNL     1      -0.127  12.131  20.222  0.00  0.00    +0.000 N 
ATOM      2  C   UNL     1      -0.026  11.621  18.934  0.00  0.00    +0.000 A 
ATOM      3  N   UNL     1       0.401  10.446  18.589  0.00  0.00    +0.000 NA
ATOM      4  C   UNL     1       0.805   9.651  19.666  0.00  0.00    +0.000 A 
ATOM      5  N   UNL     1       1.330   8.403  19.502  0.00  0.00    +0.000 NA
ATOM      6  C   UNL     1       1.615   7.865  20.669  0.00  0.00    +0.000 A 
ATOM      7  N   UNL     1       2.082   6.614  20.891  0.00  0.00    +0.000 N 
ATOM      8  S   UNL     1       1.307   8.902  22.026  0.00  0.00    +0.000 S 
ATOM      9  C   UNL     1       0.701  10.069  20.962  0.00  0.00    +0.000 A 
ATOM     10  C   UNL     1       0.158  11.334  21.336  0.00  0.00    +0.000 A 
ATOM     11  O   UNL     1      -0.059  11.667  22.501  0.00  0.00    +0.000 OA
ATOM     12  H   UNL     1       2.217   6.335  21.858  0.00  0.00    +0.000 HD
ENDROOT
BRANCH   1  20
ATOM     13  C   UNL     1      -3.005  12.626  20.540  0.00  0.00    +0.000 C 
ATOM     14  C   UNL     1      -1.970  13.722  20.548  0.00  0.00    +0.000 A 
ATOM     15  C   UNL     1      -2.401  15.041  20.759  0.00  0.00    +0.000 A 
ATOM     16  C   UNL     1      -1.486  16.090  20.855  0.00  0.00    +0.000 A 
ATOM     17  C   UNL     1      -0.123  15.838  20.731  0.00  0.00    +0.000 A 
ATOM     18  C   UNL     1       0.330  14.537  20.507  0.00  0.00    +0.000 A 
ATOM     19 CL   UNL     1       2.033  14.325  20.277  0.00  0.00    +0.000 Cl
ATOM     20  C   UNL     1      -0.582  13.466  20.413  0.00  0.00    +0.000 A 
ENDBRANCH   1  20
BRANCH   7  21
ATOM     21  C   UNL     1       1.926   5.504  20.030  0.00  0.00    +0.000 A 
ATOM     22  C   UNL     1       1.022   4.458  20.255  0.00  0.00    +0.000 A 
ATOM     23  C   UNL     1       0.952   3.364  19.388  0.00  0.00    +0.000 A 
ATOM     24  C   UNL     1       1.778   3.301  18.269  0.00  0.00    +0.000 A 
ATOM     25  C   UNL     1       2.671   4.337  18.013  0.00  0.00    +0.000 A 
ATOM     26  C   UNL     1       2.732   5.422  18.884  0.00  0.00    +0.000 A 
ATOM     27  F   UNL     1       3.613   6.405  18.632  0.00  0.00    +0.000 F 
ENDBRANCH   7  21
TORSDOF 2
ENDMDL
MODEL 6
REMARK VINA RESULT:      -7.1      2.060      2.637
REMARK  Name = 
REMARK  3 active torsions:
REMARK  status: ('A' for Active; 'I' for Inactive)
REMARK    1  A    between atoms: C_1  and  C_2
REMARK    2  A    between atoms: C_8  and  N_9
REMARK    3  A    between atoms: N_15  and  C_16
REMARK                            x       y       z     vdW  Elec       q    Type
REMARK                         _______ _______ _______ _____ _____    ______ ____
ROOT
ATOM      1  N   UNL     1       1.088  11.446  19.295  0.00  0.00    +0.000 N 
ATOM      2  C   UNL     1       1.733  10.896  18.195  0.00  0.00    +0.000 A 
ATOM      3  N   UNL     1       2.125   9.668  18.052  0.00  0.00    +0.000 NA
ATOM      4  C   UNL     1       1.858   8.855  19.157  0.00  0.00    +0.000 A 
ATOM      5  N   UNL     1       2.239   7.547  19.217  0.00  0.00    +0.000 NA
ATOM      6  C   UNL     1       1.857   7.006  20.355  0.00  0.00    +0.000 A 
ATOM      7  N   UNL     1       2.001   5.712  20.723  0.00  0.00    +0.000 N 
ATOM      8  S   UNL     1       1.064   8.107  21.436  0.00  0.00    +0.000 S 
ATOM      9  C   UNL     1       1.196   9.315  20.259  0.00  0.00    +0.000 A 
ATOM     10  C   UNL     1       0.700  10.648  20.376  0.00  0.00    +0.000 A 
ATOM     11  O   UNL     1      -0.009  11.035  21.305  0.00  0.00    +0.000 OA
ATOM     12  H   UNL     1       1.618   5.442  21.625  0.00  0.00    +0.000 HD
ENDROOT
BRANCH   1  20
ATOM     13  C   UNL     1      -1.378  12.340  17.973  0.00  0.00    +0.000 C 
ATOM     14  C   UNL     1      -0.412  13.280  18.645  0.00  0.00    +0.000 A 
ATOM     15  C   UNL     1      -0.727  14.648  18.676  0.00  0.00    +0.000 A 
ATOM     16  C   UNL     1       0.086  15.559  19.348  0.00  0.00    +0.000 A 
ATOM     17  C   UNL     1       1.237  15.120  19.995  0.00  0.00    +0.000 A 
ATOM     18  C   UNL     1       1.580  13.767  19.968  0.00  0.00    +0.000 A 
ATOM     19 CL   UNL     1       3.073  13.319  20.722  0.00  0.00    +0.000 Cl
ATOM     20  C   UNL     1       0.765  12.833  19.296  0.00  0.00    +0.000 A 
ENDBRANCH   1  20
BRANCH   7  21
ATOM     21  C   UNL     1       2.144   4.610  19.851  0.00  0.00    +0.000 A 
ATOM     22  C   UNL     1       1.090   3.773  19.465  0.00  0.00    +0.000 A 
ATOM     23  C   UNL     1       1.308   2.669  18.636  0.00  0.00    +0.000 A 
ATOM     24  C   UNL     1       2.588   2.388  18.164  0.00  0.00    +0.000 A 
ATOM     25  C   UNL     1       3.649   3.215  18.517  0.00  0.00    +0.000 A 
ATOM     26  C   UNL     1       3.419   4.313  19.344  0.00  0.00    +0.000 A 
ATOM     27  F   UNL     1       4.459   5.090  19.691  0.00  0.00    +0.000 F 
ENDBRANCH   7  21
TORSDOF 2
ENDMDL
MODEL 7
REMARK VINA RESULT:      -7.0      1.052      1.164
REMARK  Name = 
REMARK  3 active torsions:
REMARK  status: ('A' for Active; 'I' for Inactive)
REMARK    1  A    between atoms: C_1  and  C_2
REMARK    2  A    between atoms: C_8  and  N_9
REMARK    3  A    between atoms: N_15  and  C_16
REMARK                            x       y       z     vdW  Elec       q    Type
REMARK                         _______ _______ _______ _____ _____    ______ ____
ROOT
ATOM      1  N   UNL     1       0.742  11.866  19.748  0.00  0.00    +0.000 N 
ATOM      2  C   UNL     1       1.094  11.344  18.510  0.00  0.00    +0.000 A 
ATOM      3  N   UNL     1       1.440  10.122  18.246  0.00  0.00    +0.000 NA
ATOM      4  C   UNL     1       1.459   9.284  19.365  0.00  0.00    +0.000 A 
ATOM      5  N   UNL     1       1.845   7.978  19.299  0.00  0.00    +0.000 NA
ATOM      6  C   UNL     1       1.760   7.411  20.484  0.00  0.00    +0.000 A 
ATOM      7  N   UNL     1       1.994   6.110  20.776  0.00  0.00    +0.000 N 
ATOM      8  S   UNL     1       1.260   8.483  21.753  0.00  0.00    +0.000 S 
ATOM      9  C   UNL     1       1.091   9.716  20.607  0.00  0.00    +0.000 A 
ATOM     10  C   UNL     1       0.637  11.043  20.873  0.00  0.00    +0.000 A 
ATOM     11  O   UNL     1       0.182  11.405  21.958  0.00  0.00    +0.000 OA
ATOM     12  H   UNL     1       1.849   5.819  21.738  0.00  0.00    +0.000 HD
ENDROOT
BRANCH   1  20
ATOM     13  C   UNL     1       2.913  13.794  20.192  0.00  0.00    +0.000 C 
ATOM     14  C   UNL     1       1.462  14.189  20.094  0.00  0.00    +0.000 A 
ATOM     15  C   UNL     1       1.138  15.552  20.179  0.00  0.00    +0.000 A 
ATOM     16  C   UNL     1      -0.176  15.990  20.018  0.00  0.00    +0.000 A 
ATOM     17  C   UNL     1      -1.193  15.069  19.780  0.00  0.00    +0.000 A 
ATOM     18  C   UNL     1      -0.898  13.707  19.705  0.00  0.00    +0.000 A 
ATOM     19 CL   UNL     1      -2.232  12.624  19.494  0.00  0.00    +0.000 Cl
ATOM     20  C   UNL     1       0.427  13.250  19.860  0.00  0.00    +0.000 A 
ENDBRANCH   1  20
BRANCH   7  21
ATOM     21  C   UNL     1       1.917   5.027  19.871  0.00  0.00    +0.000 A 
ATOM     22  C   UNL     1       2.090   5.148  18.486  0.00  0.00    +0.000 A 
ATOM     23  C   UNL     1       1.954   4.044  17.641  0.00  0.00    +0.000 A 
ATOM     24  C   UNL     1       1.655   2.790  18.167  0.00  0.00    +0.000 A 
ATOM     25  C   UNL     1       1.498   2.640  19.541  0.00  0.00    +0.000 A 
ATOM     26  C   UNL     1       1.636   3.748  20.374  0.00  0.00    +0.000 A 
ATOM     27  F   UNL     1       1.462   3.588  21.697  0.00  0.00    +0.000 F 
ENDBRANCH   7  21
TORSDOF 2
ENDMDL
MODEL 8
REMARK VINA RESULT:      -7.0      1.465      2.078
REMARK  Name = 
REMARK  3 active torsions:
REMARK  status: ('A' for Active; 'I' for Inactive)
REMARK    1  A    between atoms: C_1  and  C_2
REMARK    2  A    between atoms: C_8  and  N_9
REMARK    3  A    between atoms: N_15  and  C_16
REMARK                            x       y       z     vdW  Elec       q    Type
REMARK                         _______ _______ _______ _____ _____    ______ ____
ROOT
ATOM      1  N   UNL     1      -1.059  12.351  20.748  0.00  0.00    +0.000 N 
ATOM      2  C   UNL     1      -0.581  12.164  19.457  0.00  0.00    +0.000 A 
ATOM      3  N   UNL     1       0.132  11.172  19.022  0.00  0.00    +0.000 NA
ATOM      4  C   UNL     1       0.437  10.222  20.001  0.00  0.00    +0.000 A 
ATOM      5  N   UNL     1       1.218   9.133  19.750  0.00  0.00    +0.000 NA
ATOM      6  C   UNL     1       1.340   8.393  20.832  0.00  0.00    +0.000 A 
ATOM      7  N   UNL     1       1.981   7.205  20.931  0.00  0.00    +0.000 N 
ATOM      8  S   UNL     1       0.546   9.042  22.232  0.00  0.00    +0.000 S 
ATOM      9  C   UNL     1      -0.028  10.318  21.282  0.00  0.00    +0.000 A 
ATOM     10  C   UNL     1      -0.875  11.374  21.731  0.00  0.00    +0.000 A 
ATOM     11  O   UNL     1      -1.403  11.401  22.843  0.00  0.00    +0.000 OA
ATOM     12  H   UNL     1       1.954   6.738  21.833  0.00  0.00    +0.000 HD
ENDROOT
BRANCH   1  20
ATOM     13  C   UNL     1      -3.907  12.481  20.038  0.00  0.00    +0.000 C 
ATOM     14  C   UNL     1      -3.166  13.612  20.704  0.00  0.00    +0.000 A 
ATOM     15  C   UNL     1      -3.885  14.771  21.038  0.00  0.00    +0.000 A 
ATOM     16  C   UNL     1      -3.278  15.822  21.724  0.00  0.00    +0.000 A 
ATOM     17  C   UNL     1      -1.934  15.737  22.079  0.00  0.00    +0.000 A 
ATOM     18  C   UNL     1      -1.194  14.601  21.747  0.00  0.00    +0.000 A 
ATOM     19 CL   UNL     1       0.490  14.614  22.148  0.00  0.00    +0.000 Cl
ATOM     20  C   UNL     1      -1.797  13.529  21.058  0.00  0.00    +0.000 A 
ENDBRANCH   1  20
BRANCH   7  21
ATOM     21  C   UNL     1       2.238   6.307  19.871  0.00  0.00    +0.000 A 
ATOM     22  C   UNL     1       3.033   6.612  18.759  0.00  0.00    +0.000 A 
ATOM     23  C   UNL     1       3.208   5.694  17.720  0.00  0.00    +0.000 A 
ATOM     24  C   UNL     1       2.599   4.443  17.780  0.00  0.00    +0.000 A 
ATOM     25  C   UNL     1       1.820   4.108  18.883  0.00  0.00    +0.000 A 
ATOM     26  C   UNL     1       1.653   5.032  19.912  0.00  0.00    +0.000 A 
ATOM     27  F   UNL     1       0.882   4.699  20.961  0.00  0.00    +0.000 F 
ENDBRANCH   7  21
TORSDOF 2
ENDMDL
MODEL 9
REMARK VINA RESULT:      -6.9      1.209      1.489
REMARK  Name = 
REMARK  3 active torsions:
REMARK  status: ('A' for Active; 'I' for Inactive)
REMARK    1  A    between atoms: C_1  and  C_2
REMARK    2  A    between atoms: C_8  and  N_9
REMARK    3  A    between atoms: N_15  and  C_16
REMARK                            x       y       z     vdW  Elec       q    Type
REMARK                         _______ _______ _______ _____ _____    ______ ____
ROOT
ATOM      1  N   UNL     1      -0.303  11.638  20.116  0.00  0.00    +0.000 N 
ATOM      2  C   UNL     1       0.216  11.472  18.838  0.00  0.00    +0.000 A 
ATOM      3  N   UNL     1       0.907  10.467  18.399  0.00  0.00    +0.000 NA
ATOM      4  C   UNL     1       1.139   9.476  19.358  0.00  0.00    +0.000 A 
ATOM      5  N   UNL     1       1.887   8.366  19.102  0.00  0.00    +0.000 NA
ATOM      6  C   UNL     1       1.940   7.589  20.163  0.00  0.00    +0.000 A 
ATOM      7  N   UNL     1       2.532   6.375  20.248  0.00  0.00    +0.000 N 
ATOM      8  S   UNL     1       1.119   8.226  21.553  0.00  0.00    +0.000 S 
ATOM      9  C   UNL     1       0.630   9.552  20.623  0.00  0.00    +0.000 A 
ATOM     10  C   UNL     1      -0.193  10.625  21.074  0.00  0.00    +0.000 A 
ATOM     11  O   UNL     1      -0.762  10.639  22.166  0.00  0.00    +0.000 OA
ATOM     12  H   UNL     1       2.453   5.882  21.133  0.00  0.00    +0.000 HD
ENDROOT
BRANCH   1  20
ATOM     13  C   UNL     1       1.146  13.850  21.396  0.00  0.00    +0.000 C 
ATOM     14  C   UNL     1      -0.325  13.901  21.071  0.00  0.00    +0.000 A 
ATOM     15  C   UNL     1      -1.028  15.082  21.359  0.00  0.00    +0.000 A 
ATOM     16  C   UNL     1      -2.372  15.221  21.013  0.00  0.00    +0.000 A 
ATOM     17  C   UNL     1      -3.040  14.176  20.381  0.00  0.00    +0.000 A 
ATOM     18  C   UNL     1      -2.367  12.987  20.097  0.00  0.00    +0.000 A 
ATOM     19 CL   UNL     1      -3.295  11.708  19.390  0.00  0.00    +0.000 Cl
ATOM     20  C   UNL     1      -1.007  12.834  20.436  0.00  0.00    +0.000 A 
ENDBRANCH   1  20
BRANCH   7  21
ATOM     21  C   UNL     1       2.794   5.500  19.170  0.00  0.00    +0.000 A 
ATOM     22  C   UNL     1       1.800   4.902  18.385  0.00  0.00    +0.000 A 
ATOM     23  C   UNL     1       2.126   4.007  17.362  0.00  0.00    +0.000 A 
ATOM     24  C   UNL     1       3.459   3.702  17.095  0.00  0.00    +0.000 A 
ATOM     25  C   UNL     1       4.466   4.298  17.848  0.00  0.00    +0.000 A 
ATOM     26  C   UNL     1       4.128   5.188  18.865  0.00  0.00    +0.000 A 
ATOM     27  F   UNL     1       5.113   5.739  19.594  0.00  0.00    +0.000 F 
ENDBRANCH   7  21
TORSDOF 2
ENDMDL
