MODEL 1
REMARK VINA RESULT:      -7.7      0.000      0.000
REMARK  Name = 
REMARK  8 active torsions:
REMARK  status: ('A' for Active; 'I' for Inactive)
REMARK    1  A    between atoms: C_1  and  C_2
REMARK    2  A    between atoms: C_2  and  N_3
REMARK    3  A    between atoms: N_3  and  C_4
REMARK    4  A    between atoms: C_4  and  C_5
REMARK    5  A    between atoms: C_9  and  O_10
REMARK    6  A    between atoms: O_10  and  C_11
REMARK    7  A    between atoms: C_13  and  C_15
REMARK    8  A    between atoms: C_20  and  C_21
REMARK                            x       y       z     vdW  Elec       q    Type
REMARK                         _______ _______ _______ _____ _____    ______ ____
ROOT
ATOM      1  C   UNL     1       1.326  10.110  19.165  0.00  0.00    +0.000 A 
ATOM      2  N   UNL     1       1.107   9.305  20.179  0.00  0.00    +0.000 NA
ATOM      3  C   UNL     1       1.568   8.039  19.899  0.00  0.00    +0.000 A 
ATOM      4  C   UNL     1       1.558   6.963  20.796  0.00  0.00    +0.000 A 
ATOM      5  C   UNL     1       2.068   5.727  20.398  0.00  0.00    +0.000 A 
ATOM      6  C   UNL     1       2.578   5.532  19.109  0.00  0.00    +0.000 A 
ATOM      7  C   UNL     1       2.583   6.603  18.195  0.00  0.00    +0.000 A 
ATOM      8  C   UNL     1       2.084   7.850  18.619  0.00  0.00    +0.000 A 
ATOM      9  S   UNL     1       1.990   9.342  17.767  0.00  0.00    +0.000 S 
ENDROOT
BRANCH   6  10
ATOM     10  C   UNL     1       3.101   4.219  18.757  0.00  0.00    +0.000 A 
ATOM     11  C   UNL     1       2.691   2.930  19.175  0.00  0.00    +0.000 A 
ATOM     12  N   UNL     1       3.392   1.949  18.604  0.00  0.00    +0.000 NA
ATOM     13  N   UNL     1       4.261   2.603  17.819  0.00  0.00    +0.000 N 
ATOM     14  C   UNL     1       4.128   3.962  17.873  0.00  0.00    +0.000 A 
ATOM     15  H   UNL     1       4.912   2.056  17.267  0.00  0.00    +0.000 HD
ENDBRANCH   6  10
BRANCH   1  17
ATOM     16  N   UNL     1      -0.296  12.025  19.259  0.00  0.00    +0.000 N 
ATOM     17  C   UNL     1       1.039  11.556  19.137  0.00  0.00    +0.000 C 
ATOM     18  O   UNL     1       1.966  12.359  19.010  0.00  0.00    +0.000 OA
BRANCH  16  20
ATOM     19  C   UNL     1      -1.245  14.061  20.585  0.00  0.00    +0.000 C 
ATOM     20  C   UNL     1      -0.621  13.463  19.331  0.00  0.00    +0.000 C 
ENDBRANCH  16  20
BRANCH  16  21
ATOM     21  C   UNL     1      -1.451  11.128  19.457  0.00  0.00    +0.000 C 
BRANCH  21  22
ATOM     22  C   UNL     1      -2.444  11.047  18.308  0.00  0.00    +0.000 A 
ATOM     23  C   UNL     1      -3.731  11.593  18.403  0.00  0.00    +0.000 A 
ATOM     24  C   UNL     1      -4.587  11.602  17.298  0.00  0.00    +0.000 A 
ATOM     25  C   UNL     1      -4.169  11.056  16.089  0.00  0.00    +0.000 A 
ATOM     26  C   UNL     1      -2.901  10.488  15.968  0.00  0.00    +0.000 A 
ATOM     27  C   UNL     1      -2.039  10.497  17.071  0.00  0.00    +0.000 A 
BRANCH  26  28
ATOM     28  O   UNL     1      -2.638   9.978  14.727  0.00  0.00    +0.000 OA
ATOM     29  C   UNL     1      -3.691   9.990  13.775  0.00  0.00    +0.000 C 
ENDBRANCH  26  28
ENDBRANCH  21  22
ENDBRANCH  16  21
ENDBRANCH   1  17
TORSDOF 6
ENDMDL
MODEL 2
REMARK VINA RESULT:      -7.5      4.114      9.227
REMARK  Name = 
REMARK  8 active torsions:
REMARK  status: ('A' for Active; 'I' for Inactive)
REMARK    1  A    between atoms: C_1  and  C_2
REMARK    2  A    between atoms: C_2  and  N_3
REMARK    3  A    between atoms: N_3  and  C_4
REMARK    4  A    between atoms: C_4  and  C_5
REMARK    5  A    between atoms: C_9  and  O_10
REMARK    6  A    between atoms: O_10  and  C_11
REMARK    7  A    between atoms: C_13  and  C_15
REMARK    8  A    between atoms: C_20  and  C_21
REMARK                            x       y       z     vdW  Elec       q    Type
REMARK                         _______ _______ _______ _____ _____    ______ ____
ROOT
ATOM      1  C   UNL     1       3.157   5.664  18.004  0.00  0.00    +0.000 A 
ATOM      2  N   UNL     1       2.743   6.786  17.461  0.00  0.00    +0.000 NA
ATOM      3  C   UNL     1       2.141   7.586  18.405  0.00  0.00    +0.000 A 
ATOM      4  C   UNL     1       1.660   8.881  18.173  0.00  0.00    +0.000 A 
ATOM      5  C   UNL     1       1.080   9.600  19.218  0.00  0.00    +0.000 A 
ATOM      6  C   UNL     1       0.951   9.048  20.498  0.00  0.00    +0.000 A 
ATOM      7  C   UNL     1       1.421   7.743  20.740  0.00  0.00    +0.000 A 
ATOM      8  C   UNL     1       2.024   7.038  19.680  0.00  0.00    +0.000 A 
ATOM      9  S   UNL     1       2.722   5.465  19.664  0.00  0.00    +0.000 S 
ENDROOT
BRANCH   6  10
ATOM     10  C   UNL     1       0.342   9.852  21.547  0.00  0.00    +0.000 A 
ATOM     11  C   UNL     1       0.284  11.259  21.703  0.00  0.00    +0.000 A 
ATOM     12  N   UNL     1      -0.402  11.636  22.784  0.00  0.00    +0.000 NA
ATOM     13  N   UNL     1      -0.785  10.472  23.331  0.00  0.00    +0.000 N 
ATOM     14  C   UNL     1      -0.367   9.377  22.630  0.00  0.00    +0.000 A 
ATOM     15  H   UNL     1      -1.337  10.503  24.181  0.00  0.00    +0.000 HD
ENDBRANCH   6  10
BRANCH   1  17
ATOM     16  N   UNL     1       5.013   4.935  16.477  0.00  0.00    +0.000 N 
ATOM     17  C   UNL     1       3.915   4.604  17.314  0.00  0.00    +0.000 C 
ATOM     18  O   UNL     1       3.592   3.424  17.471  0.00  0.00    +0.000 OA
BRANCH  16  20
ATOM     19  C   UNL     1       6.265   4.020  14.380  0.00  0.00    +0.000 C 
ATOM     20  C   UNL     1       5.858   3.904  15.843  0.00  0.00    +0.000 C 
ENDBRANCH  16  20
BRANCH  16  21
ATOM     21  C   UNL     1       5.485   6.319  16.275  0.00  0.00    +0.000 C 
BRANCH  21  22
ATOM     22  C   UNL     1       6.522   6.827  17.263  0.00  0.00    +0.000 A 
ATOM     23  C   UNL     1       7.164   5.971  18.168  0.00  0.00    +0.000 A 
ATOM     24  C   UNL     1       8.191   6.440  18.991  0.00  0.00    +0.000 A 
ATOM     25  C   UNL     1       8.582   7.774  18.926  0.00  0.00    +0.000 A 
ATOM     26  C   UNL     1       7.950   8.656  18.048  0.00  0.00    +0.000 A 
ATOM     27  C   UNL     1       6.935   8.178  17.211  0.00  0.00    +0.000 A 
BRANCH  26  28
ATOM     28  O   UNL     1       8.430   9.935  18.108  0.00  0.00    +0.000 OA
ATOM     29  C   UNL     1       9.318  10.255  19.167  0.00  0.00    +0.000 C 
ENDBRANCH  26  28
ENDBRANCH  21  22
ENDBRANCH  16  21
ENDBRANCH   1  17
TORSDOF 6
ENDMDL
MODEL 3
REMARK VINA RESULT:      -7.4      1.533      2.245
REMARK  Name = 
REMARK  8 active torsions:
REMARK  status: ('A' for Active; 'I' for Inactive)
REMARK    1  A    between atoms: C_1  and  C_2
REMARK    2  A    between atoms: C_2  and  N_3
REMARK    3  A    between atoms: N_3  and  C_4
REMARK    4  A    between atoms: C_4  and  C_5
REMARK    5  A    between atoms: C_9  and  O_10
REMARK    6  A    between atoms: O_10  and  C_11
REMARK    7  A    between atoms: C_13  and  C_15
REMARK    8  A    between atoms: C_20  and  C_21
REMARK                            x       y       z     vdW  Elec       q    Type
REMARK                         _______ _______ _______ _____ _____    ______ ____
ROOT
ATOM      1  C   UNL     1       1.197   9.538  19.992  0.00  0.00    +0.000 A 
ATOM      2  N   UNL     1       1.795   9.290  18.849  0.00  0.00    +0.000 NA
ATOM      3  C   UNL     1       2.207   7.979  18.794  0.00  0.00    +0.000 A 
ATOM      4  C   UNL     1       2.808   7.371  17.683  0.00  0.00    +0.000 A 
ATOM      5  C   UNL     1       3.168   6.025  17.744  0.00  0.00    +0.000 A 
ATOM      6  C   UNL     1       2.958   5.267  18.902  0.00  0.00    +0.000 A 
ATOM      7  C   UNL     1       2.364   5.869  20.027  0.00  0.00    +0.000 A 
ATOM      8  C   UNL     1       1.986   7.224  19.943  0.00  0.00    +0.000 A 
ATOM      9  S   UNL     1       1.215   8.224  21.113  0.00  0.00    +0.000 S 
ENDROOT
BRANCH   6  10
ATOM     10  C   UNL     1       3.351   3.865  18.899  0.00  0.00    +0.000 A 
ATOM     11  C   UNL     1       2.792   2.760  18.211  0.00  0.00    +0.000 A 
ATOM     12  N   UNL     1       3.455   1.622  18.427  0.00  0.00    +0.000 NA
ATOM     13  N   UNL     1       4.441   1.989  19.259  0.00  0.00    +0.000 N 
ATOM     14  C   UNL     1       4.424   3.319  19.572  0.00  0.00    +0.000 A 
ATOM     15  H   UNL     1       5.094   1.278  19.569  0.00  0.00    +0.000 HD
ENDBRANCH   6  10
BRANCH   1  17
ATOM     16  N   UNL     1      -0.817  11.035  20.098  0.00  0.00    +0.000 N 
ATOM     17  C   UNL     1       0.559  10.812  20.370  0.00  0.00    +0.000 C 
ATOM     18  O   UNL     1       1.227  11.686  20.929  0.00  0.00    +0.000 OA
BRANCH  16  20
ATOM     19  C   UNL     1      -2.010  12.395  21.977  0.00  0.00    +0.000 C 
ATOM     20  C   UNL     1      -1.520  12.255  20.542  0.00  0.00    +0.000 C 
ENDBRANCH  16  20
BRANCH  16  21
ATOM     21  C   UNL     1      -1.690  10.022  19.473  0.00  0.00    +0.000 C 
BRANCH  21  22
ATOM     22  C   UNL     1      -2.338  10.414  18.155  0.00  0.00    +0.000 A 
ATOM     23  C   UNL     1      -1.841   9.966  16.924  0.00  0.00    +0.000 A 
ATOM     24  C   UNL     1      -2.517  10.249  15.734  0.00  0.00    +0.000 A 
ATOM     25  C   UNL     1      -3.692  10.993  15.760  0.00  0.00    +0.000 A 
ATOM     26  C   UNL     1      -4.204  11.468  16.968  0.00  0.00    +0.000 A 
ATOM     27  C   UNL     1      -3.535  11.166  18.161  0.00  0.00    +0.000 A 
BRANCH  26  28
ATOM     28  O   UNL     1      -5.354  12.195  16.835  0.00  0.00    +0.000 OA
ATOM     29  C   UNL     1      -6.271  12.178  17.918  0.00  0.00    +0.000 C 
ENDBRANCH  26  28
ENDBRANCH  21  22
ENDBRANCH  16  21
ENDBRANCH   1  17
TORSDOF 6
ENDMDL
MODEL 4
REMARK VINA RESULT:      -7.4      3.442      9.093
REMARK  Name = 
REMARK  8 active torsions:
REMARK  status: ('A' for Active; 'I' for Inactive)
REMARK    1  A    between atoms: C_1  and  C_2
REMARK    2  A    between atoms: C_2  and  N_3
REMARK    3  A    between atoms: N_3  and  C_4
REMARK    4  A    between atoms: C_4  and  C_5
REMARK    5  A    between atoms: C_9  and  O_10
REMARK    6  A    between atoms: O_10  and  C_11
REMARK    7  A    between atoms: C_13  and  C_15
REMARK    8  A    between atoms: C_20  and  C_21
REMARK                            x       y       z     vdW  Elec       q    Type
REMARK                         _______ _______ _______ _____ _____    ______ ____
ROOT
ATOM      1  C   UNL     1       2.037   6.127  19.813  0.00  0.00    +0.000 A 
ATOM      2  N   UNL     1       1.701   6.821  20.876  0.00  0.00    +0.000 NA
ATOM      3  C   UNL     1       1.423   8.125  20.535  0.00  0.00    +0.000 A 
ATOM      4  C   UNL     1       0.961   9.107  21.421  0.00  0.00    +0.000 A 
ATOM      5  C   UNL     1       0.701  10.395  20.950  0.00  0.00    +0.000 A 
ATOM      6  C   UNL     1       0.908  10.734  19.608  0.00  0.00    +0.000 A 
ATOM      7  C   UNL     1       1.382   9.758  18.711  0.00  0.00    +0.000 A 
ATOM      8  C   UNL     1       1.620   8.457  19.197  0.00  0.00    +0.000 A 
ATOM      9  S   UNL     1       2.157   7.053  18.359  0.00  0.00    +0.000 S 
ENDROOT
BRANCH   6  10
ATOM     10  C   UNL     1       0.612  12.093  19.179  0.00  0.00    +0.000 A 
ATOM     11  C   UNL     1       1.447  13.236  19.122  0.00  0.00    +0.000 A 
ATOM     12  N   UNL     1       0.827  14.311  18.631  0.00  0.00    +0.000 NA
ATOM     13  N   UNL     1      -0.412  13.865  18.374  0.00  0.00    +0.000 N 
ATOM     14  C   UNL     1      -0.592  12.546  18.683  0.00  0.00    +0.000 A 
ATOM     15  H   UNL     1      -1.082  14.516  17.981  0.00  0.00    +0.000 HD
ENDBRANCH   6  10
BRANCH   1  17
ATOM     16  N   UNL     1       3.647   4.216  19.570  0.00  0.00    +0.000 N 
ATOM     17  C   UNL     1       2.323   4.681  19.785  0.00  0.00    +0.000 C 
ATOM     18  O   UNL     1       1.405   3.875  19.952  0.00  0.00    +0.000 OA
BRANCH  16  20
ATOM     19  C   UNL     1       3.573   1.832  18.516  0.00  0.00    +0.000 C 
ATOM     20  C   UNL     1       3.996   2.783  19.627  0.00  0.00    +0.000 C 
ENDBRANCH  16  20
BRANCH  16  21
ATOM     21  C   UNL     1       4.803   5.119  19.405  0.00  0.00    +0.000 C 
BRANCH  21  22
ATOM     22  C   UNL     1       5.612   4.950  18.128  0.00  0.00    +0.000 A 
ATOM     23  C   UNL     1       7.006   4.812  18.149  0.00  0.00    +0.000 A 
ATOM     24  C   UNL     1       7.716   4.548  16.975  0.00  0.00    +0.000 A 
ATOM     25  C   UNL     1       7.041   4.431  15.764  0.00  0.00    +0.000 A 
ATOM     26  C   UNL     1       5.655   4.581  15.707  0.00  0.00    +0.000 A 
ATOM     27  C   UNL     1       4.944   4.826  16.888  0.00  0.00    +0.000 A 
BRANCH  26  28
ATOM     28  O   UNL     1       5.135   4.455  14.449  0.00  0.00    +0.000 OA
ATOM     29  C   UNL     1       5.945   3.837  13.462  0.00  0.00    +0.000 C 
ENDBRANCH  26  28
ENDBRANCH  21  22
ENDBRANCH  16  21
ENDBRANCH   1  17
TORSDOF 6
ENDMDL
MODEL 5
REMARK VINA RESULT:      -7.4      1.060      1.801
REMARK  Name = 
REMARK  8 active torsions:
REMARK  status: ('A' for Active; 'I' for Inactive)
REMARK    1  A    between atoms: C_1  and  C_2
REMARK    2  A    between atoms: C_2  and  N_3
REMARK    3  A    between atoms: N_3  and  C_4
REMARK    4  A    between atoms: C_4  and  C_5
REMARK    5  A    between atoms: C_9  and  O_10
REMARK    6  A    between atoms: O_10  and  C_11
REMARK    7  A    between atoms: C_13  and  C_15
REMARK    8  A    between atoms: C_20  and  C_21
REMARK                            x       y       z     vdW  Elec       q    Type
REMARK                         _______ _______ _______ _____ _____    ______ ____
ROOT
ATOM      1  C   UNL     1       1.393   9.834  19.363  0.00  0.00    +0.000 A 
ATOM      2  N   UNL     1       1.255   9.004  20.372  0.00  0.00    +0.000 NA
ATOM      3  C   UNL     1       1.590   7.724  19.994  0.00  0.00    +0.000 A 
ATOM      4  C   UNL     1       1.626   6.616  20.852  0.00  0.00    +0.000 A 
ATOM      5  C   UNL     1       1.997   5.368  20.351  0.00  0.00    +0.000 A 
ATOM      6  C   UNL     1       2.320   5.192  19.000  0.00  0.00    +0.000 A 
ATOM      7  C   UNL     1       2.277   6.296  18.128  0.00  0.00    +0.000 A 
ATOM      8  C   UNL     1       1.921   7.554  18.653  0.00  0.00    +0.000 A 
ATOM      9  S   UNL     1       1.815   9.082  17.867  0.00  0.00    +0.000 S 
ENDROOT
BRANCH   6  10
ATOM     10  C   UNL     1       2.704   3.865  18.542  0.00  0.00    +0.000 A 
ATOM     11  C   UNL     1       3.940   3.397  18.033  0.00  0.00    +0.000 A 
ATOM     12  N   UNL     1       3.927   2.093  17.750  0.00  0.00    +0.000 NA
ATOM     13  N   UNL     1       2.680   1.717  18.071  0.00  0.00    +0.000 N 
ATOM     14  C   UNL     1       1.909   2.738  18.550  0.00  0.00    +0.000 A 
ATOM     15  H   UNL     1       2.427   0.744  17.944  0.00  0.00    +0.000 HD
ENDBRANCH   6  10
BRANCH   1  17
ATOM     16  N   UNL     1      -0.107  11.844  19.504  0.00  0.00    +0.000 N 
ATOM     17  C   UNL     1       1.200  11.295  19.419  0.00  0.00    +0.000 C 
ATOM     18  O   UNL     1       2.183  12.040  19.393  0.00  0.00    +0.000 OA
BRANCH  16  20
ATOM     19  C   UNL     1      -0.289  14.223  18.451  0.00  0.00    +0.000 C 
ATOM     20  C   UNL     1      -0.342  13.293  19.656  0.00  0.00    +0.000 C 
ENDBRANCH  16  20
BRANCH  16  21
ATOM     21  C   UNL     1      -1.326  11.016  19.581  0.00  0.00    +0.000 C 
BRANCH  21  22
ATOM     22  C   UNL     1      -2.159  10.925  18.312  0.00  0.00    +0.000 A 
ATOM     23  C   UNL     1      -1.794  10.094  17.246  0.00  0.00    +0.000 A 
ATOM     24  C   UNL     1      -2.631   9.944  16.137  0.00  0.00    +0.000 A 
ATOM     25  C   UNL     1      -3.838  10.632  16.077  0.00  0.00    +0.000 A 
ATOM     26  C   UNL     1      -4.223  11.481  17.115  0.00  0.00    +0.000 A 
ATOM     27  C   UNL     1      -3.391  11.615  18.233  0.00  0.00    +0.000 A 
BRANCH  26  28
ATOM     28  O   UNL     1      -5.424  12.100  16.909  0.00  0.00    +0.000 OA
ATOM     29  C   UNL     1      -6.476  11.813  17.818  0.00  0.00    +0.000 C 
ENDBRANCH  26  28
ENDBRANCH  21  22
ENDBRANCH  16  21
ENDBRANCH   1  17
TORSDOF 6
ENDMDL
MODEL 6
REMARK VINA RESULT:      -7.4      3.453      9.063
REMARK  Name = 
REMARK  8 active torsions:
REMARK  status: ('A' for Active; 'I' for Inactive)
REMARK    1  A    between atoms: C_1  and  C_2
REMARK    2  A    between atoms: C_2  and  N_3
REMARK    3  A    between atoms: N_3  and  C_4
REMARK    4  A    between atoms: C_4  and  C_5
REMARK    5  A    between atoms: C_9  and  O_10
REMARK    6  A    between atoms: O_10  and  C_11
REMARK    7  A    between atoms: C_13  and  C_15
REMARK    8  A    between atoms: C_20  and  C_21
REMARK                            x       y       z     vdW  Elec       q    Type
REMARK                         _______ _______ _______ _____ _____    ______ ____
ROOT
ATOM      1  C   UNL     1       2.165   5.604  19.667  0.00  0.00    +0.000 A 
ATOM      2  N   UNL     1       1.778   6.286  20.721  0.00  0.00    +0.000 NA
ATOM      3  C   UNL     1       1.560   7.604  20.392  0.00  0.00    +0.000 A 
ATOM      4  C   UNL     1       1.068   8.580  21.268  0.00  0.00    +0.000 A 
ATOM      5  C   UNL     1       0.875   9.884  20.810  0.00  0.00    +0.000 A 
ATOM      6  C   UNL     1       1.180  10.245  19.493  0.00  0.00    +0.000 A 
ATOM      7  C   UNL     1       1.685   9.275  18.607  0.00  0.00    +0.000 A 
ATOM      8  C   UNL     1       1.855   7.958  19.078  0.00  0.00    +0.000 A 
ATOM      9  S   UNL     1       2.407   6.556  18.245  0.00  0.00    +0.000 S 
ENDROOT
BRANCH   6  10
ATOM     10  C   UNL     1       0.951  11.621  19.076  0.00  0.00    +0.000 A 
ATOM     11  C   UNL     1       1.874  12.664  18.818  0.00  0.00    +0.000 A 
ATOM     12  N   UNL     1       1.287  13.791  18.413  0.00  0.00    +0.000 NA
ATOM     13  N   UNL     1      -0.019  13.481  18.414  0.00  0.00    +0.000 N 
ATOM     14  C   UNL     1      -0.273  12.195  18.801  0.00  0.00    +0.000 A 
ATOM     15  H   UNL     1      -0.680  14.195  18.131  0.00  0.00    +0.000 HD
ENDBRANCH   6  10
BRANCH   1  17
ATOM     16  N   UNL     1       3.741   3.650  19.581  0.00  0.00    +0.000 N 
ATOM     17  C   UNL     1       2.413   4.152  19.624  0.00  0.00    +0.000 C 
ATOM     18  O   UNL     1       1.458   3.371  19.630  0.00  0.00    +0.000 OA
BRANCH  16  20
ATOM     19  C   UNL     1       3.720   1.301  18.450  0.00  0.00    +0.000 C 
ATOM     20  C   UNL     1       4.038   2.206  19.632  0.00  0.00    +0.000 C 
ENDBRANCH  16  20
BRANCH  16  21
ATOM     21  C   UNL     1       4.932   4.521  19.615  0.00  0.00    +0.000 C 
BRANCH  21  22
ATOM     22  C   UNL     1       5.566   4.847  18.272  0.00  0.00    +0.000 A 
ATOM     23  C   UNL     1       5.244   4.134  17.110  0.00  0.00    +0.000 A 
ATOM     24  C   UNL     1       5.755   4.521  15.868  0.00  0.00    +0.000 A 
ATOM     25  C   UNL     1       6.604   5.620  15.776  0.00  0.00    +0.000 A 
ATOM     26  C   UNL     1       6.958   6.340  16.918  0.00  0.00    +0.000 A 
ATOM     27  C   UNL     1       6.429   5.961  18.157  0.00  0.00    +0.000 A 
BRANCH  26  28
ATOM     28  O   UNL     1       7.809   7.381  16.674  0.00  0.00    +0.000 OA
ATOM     29  C   UNL     1       8.079   8.274  17.744  0.00  0.00    +0.000 C 
ENDBRANCH  26  28
ENDBRANCH  21  22
ENDBRANCH  16  21
ENDBRANCH   1  17
TORSDOF 6
ENDMDL
MODEL 7
REMARK VINA RESULT:      -7.3      1.132      1.580
REMARK  Name = 
REMARK  8 active torsions:
REMARK  status: ('A' for Active; 'I' for Inactive)
REMARK    1  A    between atoms: C_1  and  C_2
REMARK    2  A    between atoms: C_2  and  N_3
REMARK    3  A    between atoms: N_3  and  C_4
REMARK    4  A    between atoms: C_4  and  C_5
REMARK    5  A    between atoms: C_9  and  O_10
REMARK    6  A    between atoms: O_10  and  C_11
REMARK    7  A    between atoms: C_13  and  C_15
REMARK    8  A    between atoms: C_20  and  C_21
REMARK                            x       y       z     vdW  Elec       q    Type
REMARK                         _______ _______ _______ _____ _____    ______ ____
ROOT
ATOM      1  C   UNL     1       1.180  10.047  19.449  0.00  0.00    +0.000 A 
ATOM      2  N   UNL     1       1.839   9.660  18.381  0.00  0.00    +0.000 NA
ATOM      3  C   UNL     1       2.260   8.357  18.519  0.00  0.00    +0.000 A 
ATOM      4  C   UNL     1       2.922   7.617  17.530  0.00  0.00    +0.000 A 
ATOM      5  C   UNL     1       3.286   6.294  17.786  0.00  0.00    +0.000 A 
ATOM      6  C   UNL     1       3.019   5.692  19.020  0.00  0.00    +0.000 A 
ATOM      7  C   UNL     1       2.364   6.429  20.025  0.00  0.00    +0.000 A 
ATOM      8  C   UNL     1       1.983   7.757  19.744  0.00  0.00    +0.000 A 
ATOM      9  S   UNL     1       1.147   8.891  20.732  0.00  0.00    +0.000 S 
ENDROOT
BRANCH   6  10
ATOM     10  C   UNL     1       3.420   4.307  19.222  0.00  0.00    +0.000 A 
ATOM     11  C   UNL     1       4.678   3.762  19.580  0.00  0.00    +0.000 A 
ATOM     12  N   UNL     1       4.653   2.435  19.711  0.00  0.00    +0.000 NA
ATOM     13  N   UNL     1       3.379   2.118  19.432  0.00  0.00    +0.000 N 
ATOM     14  C   UNL     1       2.601   3.201  19.134  0.00  0.00    +0.000 A 
ATOM     15  H   UNL     1       3.110   1.141  19.472  0.00  0.00    +0.000 HD
ENDBRANCH   6  10
BRANCH   1  17
ATOM     16  N   UNL     1      -0.886  11.476  19.430  0.00  0.00    +0.000 N 
ATOM     17  C   UNL     1       0.516  11.352  19.623  0.00  0.00    +0.000 C 
ATOM     18  O   UNL     1       1.185  12.338  19.941  0.00  0.00    +0.000 OA
BRANCH  16  20
ATOM     19  C   UNL     1      -2.417  12.931  20.959  0.00  0.00    +0.000 C 
ATOM     20  C   UNL     1      -1.606  12.738  19.685  0.00  0.00    +0.000 C 
ENDBRANCH  16  20
BRANCH  16  21
ATOM     21  C   UNL     1      -1.757  10.333  19.092  0.00  0.00    +0.000 C 
BRANCH  21  22
ATOM     22  C   UNL     1      -2.648  10.505  17.871  0.00  0.00    +0.000 A 
ATOM     23  C   UNL     1      -3.895  11.139  17.949  0.00  0.00    +0.000 A 
ATOM     24  C   UNL     1      -4.647  11.383  16.797  0.00  0.00    +0.000 A 
ATOM     25  C   UNL     1      -4.165  10.986  15.554  0.00  0.00    +0.000 A 
ATOM     26  C   UNL     1      -2.934  10.336  15.444  0.00  0.00    +0.000 A 
ATOM     27  C   UNL     1      -2.175  10.111  16.599  0.00  0.00    +0.000 A 
BRANCH  26  28
ATOM     28  O   UNL     1      -2.601   9.993  14.164  0.00  0.00    +0.000 OA
ATOM     29  C   UNL     1      -3.649   9.912  13.211  0.00  0.00    +0.000 C 
ENDBRANCH  26  28
ENDBRANCH  21  22
ENDBRANCH  16  21
ENDBRANCH   1  17
TORSDOF 6
ENDMDL
MODEL 8
REMARK VINA RESULT:      -7.3      1.715      2.406
REMARK  Name = 
REMARK  8 active torsions:
REMARK  status: ('A' for Active; 'I' for Inactive)
REMARK    1  A    between atoms: C_1  and  C_2
REMARK    2  A    between atoms: C_2  and  N_3
REMARK    3  A    between atoms: N_3  and  C_4
REMARK    4  A    between atoms: C_4  and  C_5
REMARK    5  A    between atoms: C_9  and  O_10
REMARK    6  A    between atoms: O_10  and  C_11
REMARK    7  A    between atoms: C_13  and  C_15
REMARK    8  A    between atoms: C_20  and  C_21
REMARK                            x       y       z     vdW  Elec       q    Type
REMARK                         _______ _______ _______ _____ _____    ______ ____
ROOT
ATOM      1  C   UNL     1       1.185   9.798  19.544  0.00  0.00    +0.000 A 
ATOM      2  N   UNL     1       1.308   8.632  20.135  0.00  0.00    +0.000 NA
ATOM      3  C   UNL     1       2.097   7.791  19.384  0.00  0.00    +0.000 A 
ATOM      4  C   UNL     1       2.490   6.501  19.768  0.00  0.00    +0.000 A 
ATOM      5  C   UNL     1       3.306   5.748  18.923  0.00  0.00    +0.000 A 
ATOM      6  C   UNL     1       3.731   6.248  17.686  0.00  0.00    +0.000 A 
ATOM      7  C   UNL     1       3.335   7.539  17.287  0.00  0.00    +0.000 A 
ATOM      8  C   UNL     1       2.527   8.294  18.160  0.00  0.00    +0.000 A 
ATOM      9  S   UNL     1       1.916   9.894  17.982  0.00  0.00    +0.000 S 
ENDROOT
BRANCH   6  10
ATOM     10  C   UNL     1       4.587   5.415  16.854  0.00  0.00    +0.000 A 
ATOM     11  C   UNL     1       4.826   4.020  16.899  0.00  0.00    +0.000 A 
ATOM     12  N   UNL     1       5.653   3.602  15.939  0.00  0.00    +0.000 NA
ATOM     13  N   UNL     1       5.953   4.728  15.274  0.00  0.00    +0.000 N 
ATOM     14  C   UNL     1       5.341   5.839  15.781  0.00  0.00    +0.000 A 
ATOM     15  H   UNL     1       6.578   4.661  14.479  0.00  0.00    +0.000 HD
ENDBRANCH   6  10
BRANCH   1  17
ATOM     16  N   UNL     1      -0.932  11.079  19.976  0.00  0.00    +0.000 N 
ATOM     17  C   UNL     1       0.479  10.970  20.094  0.00  0.00    +0.000 C 
ATOM     18  O   UNL     1       1.121  11.857  20.661  0.00  0.00    +0.000 OA
BRANCH  16  20
ATOM     19  C   UNL     1      -1.961  12.208  22.090  0.00  0.00    +0.000 C 
ATOM     20  C   UNL     1      -1.690  12.186  20.591  0.00  0.00    +0.000 C 
ENDBRANCH  16  20
BRANCH  16  21
ATOM     21  C   UNL     1      -1.772  10.039  19.349  0.00  0.00    +0.000 C 
BRANCH  21  22
ATOM     22  C   UNL     1      -2.441  10.415  18.037  0.00  0.00    +0.000 A 
ATOM     23  C   UNL     1      -1.976   9.936  16.805  0.00  0.00    +0.000 A 
ATOM     24  C   UNL     1      -2.671  10.206  15.624  0.00  0.00    +0.000 A 
ATOM     25  C   UNL     1      -3.835  10.967  15.659  0.00  0.00    +0.000 A 
ATOM     26  C   UNL     1      -4.315  11.473  16.867  0.00  0.00    +0.000 A 
ATOM     27  C   UNL     1      -3.627  11.185  18.052  0.00  0.00    +0.000 A 
BRANCH  26  28
ATOM     28  O   UNL     1      -5.457  12.214  16.743  0.00  0.00    +0.000 OA
ATOM     29  C   UNL     1      -6.080  12.666  17.935  0.00  0.00    +0.000 C 
ENDBRANCH  26  28
ENDBRANCH  21  22
ENDBRANCH  16  21
ENDBRANCH   1  17
TORSDOF 6
ENDMDL
MODEL 9
REMARK VINA RESULT:      -7.3      1.076      1.665
REMARK  Name = 
REMARK  8 active torsions:
REMARK  status: ('A' for Active; 'I' for Inactive)
REMARK    1  A    between atoms: C_1  and  C_2
REMARK    2  A    between atoms: C_2  and  N_3
REMARK    3  A    between atoms: N_3  and  C_4
REMARK    4  A    between atoms: C_4  and  C_5
REMARK    5  A    between atoms: C_9  and  O_10
REMARK    6  A    between atoms: O_10  and  C_11
REMARK    7  A    between atoms: C_13  and  C_15
REMARK    8  A    between atoms: C_20  and  C_21
REMARK                            x       y       z     vdW  Elec       q    Type
REMARK                         _______ _______ _______ _____ _____    ______ ____
ROOT
ATOM      1  C   UNL     1       1.376  10.063  19.227  0.00  0.00    +0.000 A 
ATOM      2  N   UNL     1       1.179   9.243  20.235  0.00  0.00    +0.000 NA
ATOM      3  C   UNL     1       1.628   7.979  19.924  0.00  0.00    +0.000 A 
ATOM      4  C   UNL     1       1.636   6.890  20.805  0.00  0.00    +0.000 A 
ATOM      5  C   UNL     1       2.131   5.658  20.375  0.00  0.00    +0.000 A 
ATOM      6  C   UNL     1       2.607   5.480  19.071  0.00  0.00    +0.000 A 
ATOM      7  C   UNL     1       2.593   6.565  18.174  0.00  0.00    +0.000 A 
ATOM      8  C   UNL     1       2.110   7.808  18.629  0.00  0.00    +0.000 A 
ATOM      9  S   UNL     1       2.000   9.313  17.802  0.00  0.00    +0.000 S 
ENDROOT
BRANCH   6  10
ATOM     10  C   UNL     1       3.115   4.172  18.687  0.00  0.00    +0.000 A 
ATOM     11  C   UNL     1       2.751   2.880  19.140  0.00  0.00    +0.000 A 
ATOM     12  N   UNL     1       3.417   1.903  18.522  0.00  0.00    +0.000 NA
ATOM     13  N   UNL     1       4.218   2.563  17.671  0.00  0.00    +0.000 N 
ATOM     14  C   UNL     1       4.076   3.920  17.729  0.00  0.00    +0.000 A 
ATOM     15  H   UNL     1       4.831   2.019  17.074  0.00  0.00    +0.000 HD
ENDBRANCH   6  10
BRANCH   1  17
ATOM     16  N   UNL     1      -0.246  11.980  19.274  0.00  0.00    +0.000 N 
ATOM     17  C   UNL     1       1.093  11.510  19.229  0.00  0.00    +0.000 C 
ATOM     18  O   UNL     1       2.029  12.313  19.193  0.00  0.00    +0.000 OA
BRANCH  16  20
ATOM     19  C   UNL     1      -0.616  14.117  20.723  0.00  0.00    +0.000 C 
ATOM     20  C   UNL     1      -0.573  13.416  19.372  0.00  0.00    +0.000 C 
ENDBRANCH  16  20
BRANCH  16  21
ATOM     21  C   UNL     1      -1.414  11.081  19.362  0.00  0.00    +0.000 C 
BRANCH  21  22
ATOM     22  C   UNL     1      -2.443  11.205  18.249  0.00  0.00    +0.000 A 
ATOM     23  C   UNL     1      -2.155  10.831  16.930  0.00  0.00    +0.000 A 
ATOM     24  C   UNL     1      -3.148  10.851  15.948  0.00  0.00    +0.000 A 
ATOM     25  C   UNL     1      -4.439  11.256  16.271  0.00  0.00    +0.000 A 
ATOM     26  C   UNL     1      -4.754  11.652  17.571  0.00  0.00    +0.000 A 
ATOM     27  C   UNL     1      -3.761  11.612  18.558  0.00  0.00    +0.000 A 
BRANCH  26  28
ATOM     28  O   UNL     1      -6.055  12.037  17.734  0.00  0.00    +0.000 OA
ATOM     29  C   UNL     1      -6.502  13.169  17.003  0.00  0.00    +0.000 C 
ENDBRANCH  26  28
ENDBRANCH  21  22
ENDBRANCH  16  21
ENDBRANCH   1  17
TORSDOF 6
ENDMDL
