MODEL 1
REMARK VINA RESULT:      -6.9      0.000      0.000
REMARK  Name = 
REMARK  5 active torsions:
REMARK  status: ('A' for Active; 'I' for Inactive)
REMARK    1  A    between atoms: C_1  and  C_2
REMARK    2  A    between atoms: C_2  and  N_3
REMARK    3  A    between atoms: N_3  and  C_4
REMARK    4  A    between atoms: N_3  and  S_17
REMARK    5  A    between atoms: S_17  and  C_18
REMARK                            x       y       z     vdW  Elec       q    Type
REMARK                         _______ _______ _______ _____ _____    ______ ____
ROOT
ATOM      1  C   UNL     1       3.106   4.574  18.531  0.00  0.00    +0.000 C 
ATOM      2  C   UNL     1       3.029   3.684  17.293  0.00  0.00    +0.000 C 
ATOM      3  C   UNL     1       4.383   3.369  16.684  0.00  0.00    +0.000 C 
ATOM      4  N   UNL     1       5.116   4.620  16.463  0.00  0.00    +0.000 N 
ATOM      5  C   UNL     1       5.934   4.633  15.342  0.00  0.00    +0.000 A 
ATOM      6  C   UNL     1       7.100   5.401  15.222  0.00  0.00    +0.000 A 
ATOM      7  N   UNL     1       7.877   5.453  14.103  0.00  0.00    +0.000 NA
ATOM      8  C   UNL     1       7.441   4.702  13.074  0.00  0.00    +0.000 A 
ATOM      9  C   UNL     1       6.292   3.939  13.165  0.00  0.00    +0.000 A 
ATOM     10 CL   UNL     1       5.716   2.994  11.862  0.00  0.00    +0.000 Cl
ATOM     11  N   UNL     1       5.537   3.892  14.283  0.00  0.00    +0.000 NA
ATOM     12  C   UNL     1       5.409   5.395  17.663  0.00  0.00    +0.000 C 
ATOM     13  C   UNL     1       4.108   5.729  18.390  0.00  0.00    +0.000 C 
ENDROOT
BRANCH   1  14
ATOM     14  N   UNL     1       3.198   3.832  19.859  0.00  0.00    +0.000 NA
BRANCH  14  15
ATOM     15  S   UNL     1       1.894   4.070  20.969  0.00  0.00    +0.000 S 
ATOM     16  C   UNL     1       0.500   3.211  20.263  0.00  0.00    +0.000 C 
ATOM     17  O   UNL     1       2.254   3.397  22.200  0.00  0.00    +0.000 OA
ATOM     18  O   UNL     1       1.572   5.480  20.965  0.00  0.00    +0.000 OA
ENDBRANCH  14  15
BRANCH  14  20
ATOM     19  C   UNL     1       4.845   1.956  20.452  0.00  0.00    +0.000 C 
ATOM     20  C   UNL     1       3.585   2.383  19.719  0.00  0.00    +0.000 C 
ENDBRANCH  14  20
ENDBRANCH   1  14
TORSDOF 3
ENDMDL
MODEL 2
REMARK VINA RESULT:      -6.9      0.836      1.014
REMARK  Name = 
REMARK  5 active torsions:
REMARK  status: ('A' for Active; 'I' for Inactive)
REMARK    1  A    between atoms: C_1  and  C_2
REMARK    2  A    between atoms: C_2  and  N_3
REMARK    3  A    between atoms: N_3  and  C_4
REMARK    4  A    between atoms: N_3  and  S_17
REMARK    5  A    between atoms: S_17  and  C_18
REMARK                            x       y       z     vdW  Elec       q    Type
REMARK                         _______ _______ _______ _____ _____    ______ ____
ROOT
ATOM      1  C   UNL     1       2.998   4.514  18.453  0.00  0.00    +0.000 C 
ATOM      2  C   UNL     1       2.963   3.623  17.214  0.00  0.00    +0.000 C 
ATOM      3  C   UNL     1       4.337   3.330  16.636  0.00  0.00    +0.000 C 
ATOM      4  N   UNL     1       5.054   4.592  16.432  0.00  0.00    +0.000 N 
ATOM      5  C   UNL     1       5.897   4.619  15.331  0.00  0.00    +0.000 A 
ATOM      6  C   UNL     1       7.054   5.406  15.237  0.00  0.00    +0.000 A 
ATOM      7  N   UNL     1       7.855   5.470  14.137  0.00  0.00    +0.000 NA
ATOM      8  C   UNL     1       7.456   4.713  13.098  0.00  0.00    +0.000 A 
ATOM      9  C   UNL     1       6.318   3.931  13.162  0.00  0.00    +0.000 A 
ATOM     10 CL   UNL     1       5.787   2.977  11.847  0.00  0.00    +0.000 Cl
ATOM     11  N   UNL     1       5.537   3.872  14.263  0.00  0.00    +0.000 NA
ATOM     12  C   UNL     1       5.307   5.372  17.639  0.00  0.00    +0.000 C 
ATOM     13  C   UNL     1       3.984   5.686  18.335  0.00  0.00    +0.000 C 
ENDROOT
BRANCH   1  14
ATOM     14  N   UNL     1       3.071   3.774  19.783  0.00  0.00    +0.000 NA
BRANCH  14  15
ATOM     15  S   UNL     1       1.744   4.000  20.867  0.00  0.00    +0.000 S 
ATOM     16  C   UNL     1       1.517   5.765  20.986  0.00  0.00    +0.000 C 
ATOM     17  O   UNL     1       0.570   3.444  20.228  0.00  0.00    +0.000 OA
ATOM     18  O   UNL     1       2.164   3.538  22.171  0.00  0.00    +0.000 OA
ENDBRANCH  14  15
BRANCH  14  20
ATOM     19  C   UNL     1       4.754   1.926  20.363  0.00  0.00    +0.000 C 
ATOM     20  C   UNL     1       3.474   2.328  19.651  0.00  0.00    +0.000 C 
ENDBRANCH  14  20
ENDBRANCH   1  14
TORSDOF 3
ENDMDL
MODEL 3
REMARK VINA RESULT:      -6.7      1.016      1.151
REMARK  Name = 
REMARK  5 active torsions:
REMARK  status: ('A' for Active; 'I' for Inactive)
REMARK    1  A    between atoms: C_1  and  C_2
REMARK    2  A    between atoms: C_2  and  N_3
REMARK    3  A    between atoms: N_3  and  C_4
REMARK    4  A    between atoms: N_3  and  S_17
REMARK    5  A    between atoms: S_17  and  C_18
REMARK                            x       y       z     vdW  Elec       q    Type
REMARK                         _______ _______ _______ _____ _____    ______ ____
ROOT
ATOM      1  C   UNL     1       2.647   4.399  18.271  0.00  0.00    +0.000 C 
ATOM      2  C   UNL     1       2.722   3.566  16.994  0.00  0.00    +0.000 C 
ATOM      3  C   UNL     1       4.141   3.291  16.528  0.00  0.00    +0.000 C 
ATOM      4  N   UNL     1       4.876   4.558  16.447  0.00  0.00    +0.000 N 
ATOM      5  C   UNL     1       5.814   4.629  15.428  0.00  0.00    +0.000 A 
ATOM      6  C   UNL     1       6.976   5.413  15.474  0.00  0.00    +0.000 A 
ATOM      7  N   UNL     1       7.872   5.523  14.453  0.00  0.00    +0.000 NA
ATOM      8  C   UNL     1       7.566   4.816  13.350  0.00  0.00    +0.000 A 
ATOM      9  C   UNL     1       6.425   4.039  13.276  0.00  0.00    +0.000 A 
ATOM     10 CL   UNL     1       6.013   3.149  11.876  0.00  0.00    +0.000 Cl
ATOM     11  N   UNL     1       5.550   3.934  14.299  0.00  0.00    +0.000 NA
ATOM     12  C   UNL     1       5.021   5.280  17.706  0.00  0.00    +0.000 C 
ATOM     13  C   UNL     1       3.642   5.569  18.296  0.00  0.00    +0.000 C 
ENDROOT
BRANCH   1  14
ATOM     14  N   UNL     1       2.600   3.598  19.566  0.00  0.00    +0.000 NA
BRANCH  14  15
ATOM     15  S   UNL     1       1.063   3.485  20.350  0.00  0.00    +0.000 S 
ATOM     16  C   UNL     1       1.369   2.633  21.886  0.00  0.00    +0.000 C 
ATOM     17  O   UNL     1       0.645   4.836  20.666  0.00  0.00    +0.000 OA
ATOM     18  O   UNL     1       0.227   2.623  19.545  0.00  0.00    +0.000 OA
ENDBRANCH  14  15
BRANCH  14  20
ATOM     19  C   UNL     1       4.660   2.197  20.182  0.00  0.00    +0.000 C 
ATOM     20  C   UNL     1       3.311   2.272  19.487  0.00  0.00    +0.000 C 
ENDBRANCH  14  20
ENDBRANCH   1  14
TORSDOF 3
ENDMDL
MODEL 4
REMARK VINA RESULT:      -6.1      5.292      7.394
REMARK  Name = 
REMARK  5 active torsions:
REMARK  status: ('A' for Active; 'I' for Inactive)
REMARK    1  A    between atoms: C_1  and  C_2
REMARK    2  A    between atoms: C_2  and  N_3
REMARK    3  A    between atoms: N_3  and  C_4
REMARK    4  A    between atoms: N_3  and  S_17
REMARK    5  A    between atoms: S_17  and  C_18
REMARK                            x       y       z     vdW  Elec       q    Type
REMARK                         _______ _______ _______ _____ _____    ______ ____
ROOT
ATOM      1  C   UNL     1       3.236   4.986  19.930  0.00  0.00    +0.000 C 
ATOM      2  C   UNL     1       2.284   5.340  21.069  0.00  0.00    +0.000 C 
ATOM      3  C   UNL     1       1.197   6.323  20.671  0.00  0.00    +0.000 C 
ATOM      4  N   UNL     1       1.813   7.492  20.035  0.00  0.00    +0.000 N 
ATOM      5  C   UNL     1       1.172   8.699  20.277  0.00  0.00    +0.000 A 
ATOM      6  C   UNL     1       1.183   9.792  19.398  0.00  0.00    +0.000 A 
ATOM      7  N   UNL     1       0.597  10.994  19.656  0.00  0.00    +0.000 NA
ATOM      8  C   UNL     1      -0.012  11.084  20.853  0.00  0.00    +0.000 A 
ATOM      9  C   UNL     1      -0.034  10.024  21.740  0.00  0.00    +0.000 A 
ATOM     10 CL   UNL     1      -0.787  10.127  23.271  0.00  0.00    +0.000 Cl
ATOM     11  N   UNL     1       0.546   8.835  21.467  0.00  0.00    +0.000 NA
ATOM     12  C   UNL     1       2.551   7.223  18.807  0.00  0.00    +0.000 C 
ATOM     13  C   UNL     1       3.650   6.198  19.081  0.00  0.00    +0.000 C 
ENDROOT
BRANCH   1  14
ATOM     14  N   UNL     1       2.843   3.762  19.112  0.00  0.00    +0.000 NA
BRANCH  14  15
ATOM     15  S   UNL     1       4.137   2.828  18.448  0.00  0.00    +0.000 S 
ATOM     16  C   UNL     1       4.508   3.573  16.871  0.00  0.00    +0.000 C 
ATOM     17  O   UNL     1       5.285   3.016  19.310  0.00  0.00    +0.000 OA
ATOM     18  O   UNL     1       3.623   1.502  18.181  0.00  0.00    +0.000 OA
ENDBRANCH  14  15
BRANCH  14  20
ATOM     19  C   UNL     1       0.530   2.663  18.945  0.00  0.00    +0.000 C 
ATOM     20  C   UNL     1       1.785   2.910  19.764  0.00  0.00    +0.000 C 
ENDBRANCH  14  20
ENDBRANCH   1  14
TORSDOF 3
ENDMDL
MODEL 5
REMARK VINA RESULT:      -6.1      1.669      2.116
REMARK  Name = 
REMARK  5 active torsions:
REMARK  status: ('A' for Active; 'I' for Inactive)
REMARK    1  A    between atoms: C_1  and  C_2
REMARK    2  A    between atoms: C_2  and  N_3
REMARK    3  A    between atoms: N_3  and  C_4
REMARK    4  A    between atoms: N_3  and  S_17
REMARK    5  A    between atoms: S_17  and  C_18
REMARK                            x       y       z     vdW  Elec       q    Type
REMARK                         _______ _______ _______ _____ _____    ______ ____
ROOT
ATOM      1  C   UNL     1       2.239   4.970  18.331  0.00  0.00    +0.000 C 
ATOM      2  C   UNL     1       2.333   4.023  17.137  0.00  0.00    +0.000 C 
ATOM      3  C   UNL     1       3.757   3.639  16.775  0.00  0.00    +0.000 C 
ATOM      4  N   UNL     1       4.561   4.856  16.624  0.00  0.00    +0.000 N 
ATOM      5  C   UNL     1       5.551   4.791  15.655  0.00  0.00    +0.000 A 
ATOM      6  C   UNL     1       6.749   5.519  15.695  0.00  0.00    +0.000 A 
ATOM      7  N   UNL     1       7.699   5.493  14.719  0.00  0.00    +0.000 NA
ATOM      8  C   UNL     1       7.412   4.706  13.666  0.00  0.00    +0.000 A 
ATOM      9  C   UNL     1       6.236   3.982  13.599  0.00  0.00    +0.000 A 
ATOM     10 CL   UNL     1       5.847   2.991  12.261  0.00  0.00    +0.000 Cl
ATOM     11  N   UNL     1       5.306   4.011  14.578  0.00  0.00    +0.000 NA
ATOM     12  C   UNL     1       4.682   5.681  17.821  0.00  0.00    +0.000 C 
ATOM     13  C   UNL     1       3.292   6.087  18.308  0.00  0.00    +0.000 C 
ENDROOT
BRANCH   1  14
ATOM     14  N   UNL     1       2.085   4.291  19.687  0.00  0.00    +0.000 NA
BRANCH  14  15
ATOM     15  S   UNL     1       2.959   2.818  19.918  0.00  0.00    +0.000 S 
ATOM     16  C   UNL     1       2.658   2.341  21.610  0.00  0.00    +0.000 C 
ATOM     17  O   UNL     1       2.350   1.821  19.061  0.00  0.00    +0.000 OA
ATOM     18  O   UNL     1       4.367   3.126  19.807  0.00  0.00    +0.000 OA
ENDBRANCH  14  15
BRANCH  14  20
ATOM     19  C   UNL     1       1.222   6.383  20.898  0.00  0.00    +0.000 C 
ATOM     20  C   UNL     1       2.215   5.234  20.855  0.00  0.00    +0.000 C 
ENDBRANCH  14  20
ENDBRANCH   1  14
TORSDOF 3
ENDMDL
MODEL 6
REMARK VINA RESULT:      -6.0      5.292      7.316
REMARK  Name = 
REMARK  5 active torsions:
REMARK  status: ('A' for Active; 'I' for Inactive)
REMARK    1  A    between atoms: C_1  and  C_2
REMARK    2  A    between atoms: C_2  and  N_3
REMARK    3  A    between atoms: N_3  and  C_4
REMARK    4  A    between atoms: N_3  and  S_17
REMARK    5  A    between atoms: S_17  and  C_18
REMARK                            x       y       z     vdW  Elec       q    Type
REMARK                         _______ _______ _______ _____ _____    ______ ____
ROOT
ATOM      1  C   UNL     1       4.580   5.813  18.237  0.00  0.00    +0.000 C 
ATOM      2  C   UNL     1       3.767   5.721  19.526  0.00  0.00    +0.000 C 
ATOM      3  C   UNL     1       2.381   6.332  19.418  0.00  0.00    +0.000 C 
ATOM      4  N   UNL     1       2.496   7.696  18.892  0.00  0.00    +0.000 N 
ATOM      5  C   UNL     1       1.566   8.598  19.389  0.00  0.00    +0.000 A 
ATOM      6  C   UNL     1       1.096   9.719  18.689  0.00  0.00    +0.000 A 
ATOM      7  N   UNL     1       0.221  10.632  19.195  0.00  0.00    +0.000 NA
ATOM      8  C   UNL     1      -0.179  10.397  20.458  0.00  0.00    +0.000 A 
ATOM      9  C   UNL     1       0.272   9.302  21.173  0.00  0.00    +0.000 A 
ATOM     10 CL   UNL     1      -0.212   8.998  22.783  0.00  0.00    +0.000 Cl
ATOM     11  N   UNL     1       1.134   8.401  20.655  0.00  0.00    +0.000 NA
ATOM     12  C   UNL     1       3.067   7.808  17.554  0.00  0.00    +0.000 C 
ATOM     13  C   UNL     1       4.456   7.173  17.534  0.00  0.00    +0.000 C 
ENDROOT
BRANCH   1  14
ATOM     14  N   UNL     1       4.450   4.618  17.300  0.00  0.00    +0.000 NA
BRANCH  14  15
ATOM     15  S   UNL     1       5.820   4.261  16.308  0.00  0.00    +0.000 S 
ATOM     16  C   UNL     1       5.692   5.354  14.903  0.00  0.00    +0.000 C 
ATOM     17  O   UNL     1       7.000   4.638  17.057  0.00  0.00    +0.000 OA
ATOM     18  O   UNL     1       5.659   2.913  15.813  0.00  0.00    +0.000 OA
ENDBRANCH  14  15
BRANCH  14  20
ATOM     19  C   UNL     1       2.512   2.943  17.456  0.00  0.00    +0.000 C 
ATOM     20  C   UNL     1       3.874   3.391  17.958  0.00  0.00    +0.000 C 
ENDBRANCH  14  20
ENDBRANCH   1  14
TORSDOF 3
ENDMDL
MODEL 7
REMARK VINA RESULT:      -6.0      5.524      7.611
REMARK  Name = 
REMARK  5 active torsions:
REMARK  status: ('A' for Active; 'I' for Inactive)
REMARK    1  A    between atoms: C_1  and  C_2
REMARK    2  A    between atoms: C_2  and  N_3
REMARK    3  A    between atoms: N_3  and  C_4
REMARK    4  A    between atoms: N_3  and  S_17
REMARK    5  A    between atoms: S_17  and  C_18
REMARK                            x       y       z     vdW  Elec       q    Type
REMARK                         _______ _______ _______ _____ _____    ______ ____
ROOT
ATOM      1  C   UNL     1       4.158   6.211  18.186  0.00  0.00    +0.000 C 
ATOM      2  C   UNL     1       3.575   6.126  19.594  0.00  0.00    +0.000 C 
ATOM      3  C   UNL     1       2.167   6.682  19.705  0.00  0.00    +0.000 C 
ATOM      4  N   UNL     1       2.136   8.034  19.138  0.00  0.00    +0.000 N 
ATOM      5  C   UNL     1       1.264   8.915  19.763  0.00  0.00    +0.000 A 
ATOM      6  C   UNL     1       0.639   9.996  19.126  0.00  0.00    +0.000 A 
ATOM      7  N   UNL     1      -0.177  10.891  19.751  0.00  0.00    +0.000 NA
ATOM      8  C   UNL     1      -0.352  10.677  21.068  0.00  0.00    +0.000 A 
ATOM      9  C   UNL     1       0.257   9.622  21.721  0.00  0.00    +0.000 A 
ATOM     10 CL   UNL     1       0.060   9.347  23.397  0.00  0.00    +0.000 Cl
ATOM     11  N   UNL     1       1.057   8.738  21.087  0.00  0.00    +0.000 NA
ATOM     12  C   UNL     1       2.471   8.128  17.721  0.00  0.00    +0.000 C 
ATOM     13  C   UNL     1       3.863   7.545  17.483  0.00  0.00    +0.000 C 
ENDROOT
BRANCH   1  14
ATOM     14  N   UNL     1       3.924   4.985  17.311  0.00  0.00    +0.000 NA
BRANCH  14  15
ATOM     15  S   UNL     1       5.245   4.483  16.315  0.00  0.00    +0.000 S 
ATOM     16  C   UNL     1       6.716   4.801  17.272  0.00  0.00    +0.000 C 
ATOM     17  O   UNL     1       5.129   3.050  16.142  0.00  0.00    +0.000 OA
ATOM     18  O   UNL     1       5.285   5.365  15.169  0.00  0.00    +0.000 OA
ENDBRANCH  14  15
BRANCH  14  20
ATOM     19  C   UNL     1       1.828   3.550  17.673  0.00  0.00    +0.000 C 
ATOM     20  C   UNL     1       3.274   3.837  18.038  0.00  0.00    +0.000 C 
ENDBRANCH  14  20
ENDBRANCH   1  14
TORSDOF 3
ENDMDL
MODEL 8
REMARK VINA RESULT:      -6.0      4.884      7.112
REMARK  Name = 
REMARK  5 active torsions:
REMARK  status: ('A' for Active; 'I' for Inactive)
REMARK    1  A    between atoms: C_1  and  C_2
REMARK    2  A    between atoms: C_2  and  N_3
REMARK    3  A    between atoms: N_3  and  C_4
REMARK    4  A    between atoms: N_3  and  S_17
REMARK    5  A    between atoms: S_17  and  C_18
REMARK                            x       y       z     vdW  Elec       q    Type
REMARK                         _______ _______ _______ _____ _____    ______ ____
ROOT
ATOM      1  C   UNL     1       2.317   4.939  19.165  0.00  0.00    +0.000 C 
ATOM      2  C   UNL     1       2.356   6.207  18.316  0.00  0.00    +0.000 C 
ATOM      3  C   UNL     1       2.598   7.472  19.119  0.00  0.00    +0.000 C 
ATOM      4  N   UNL     1       1.634   7.534  20.223  0.00  0.00    +0.000 N 
ATOM      5  C   UNL     1       1.211   8.811  20.563  0.00  0.00    +0.000 A 
ATOM      6  C   UNL     1       0.793   9.191  21.847  0.00  0.00    +0.000 A 
ATOM      7  N   UNL     1       0.329  10.431  22.170  0.00  0.00    +0.000 NA
ATOM      8  C   UNL     1       0.284  11.305  21.148  0.00  0.00    +0.000 A 
ATOM      9  C   UNL     1       0.686  10.955  19.872  0.00  0.00    +0.000 A 
ATOM     10 CL   UNL     1       0.618  12.047  18.559  0.00  0.00    +0.000 Cl
ATOM     11  N   UNL     1       1.150   9.724  19.568  0.00  0.00    +0.000 NA
ATOM     12  C   UNL     1       1.718   6.446  21.191  0.00  0.00    +0.000 C 
ATOM     13  C   UNL     1       1.537   5.107  20.477  0.00  0.00    +0.000 C 
ENDROOT
BRANCH   1  14
ATOM     14  N   UNL     1       3.654   4.225  19.327  0.00  0.00    +0.000 NA
BRANCH  14  15
ATOM     15  S   UNL     1       3.592   2.516  19.577  0.00  0.00    +0.000 S 
ATOM     16  C   UNL     1       3.511   1.795  17.948  0.00  0.00    +0.000 C 
ATOM     17  O   UNL     1       4.853   2.126  20.174  0.00  0.00    +0.000 OA
ATOM     18  O   UNL     1       2.340   2.218  20.236  0.00  0.00    +0.000 OA
ENDBRANCH  14  15
BRANCH  14  20
ATOM     19  C   UNL     1       5.935   5.296  18.843  0.00  0.00    +0.000 C 
ATOM     20  C   UNL     1       4.684   4.626  18.303  0.00  0.00    +0.000 C 
ENDBRANCH  14  20
ENDBRANCH   1  14
TORSDOF 3
ENDMDL
MODEL 9
REMARK VINA RESULT:      -6.0      5.424      7.450
REMARK  Name = 
REMARK  5 active torsions:
REMARK  status: ('A' for Active; 'I' for Inactive)
REMARK    1  A    between atoms: C_1  and  C_2
REMARK    2  A    between atoms: C_2  and  N_3
REMARK    3  A    between atoms: N_3  and  C_4
REMARK    4  A    between atoms: N_3  and  S_17
REMARK    5  A    between atoms: S_17  and  C_18
REMARK                            x       y       z     vdW  Elec       q    Type
REMARK                         _______ _______ _______ _____ _____    ______ ____
ROOT
ATOM      1  C   UNL     1       3.257   5.222  19.856  0.00  0.00    +0.000 C 
ATOM      2  C   UNL     1       2.333   5.569  21.020  0.00  0.00    +0.000 C 
ATOM      3  C   UNL     1       1.207   6.515  20.643  0.00  0.00    +0.000 C 
ATOM      4  N   UNL     1       1.769   7.690  19.968  0.00  0.00    +0.000 N 
ATOM      5  C   UNL     1       1.103   8.882  20.211  0.00  0.00    +0.000 A 
ATOM      6  C   UNL     1       1.055   9.960  19.315  0.00  0.00    +0.000 A 
ATOM      7  N   UNL     1       0.444  11.150  19.574  0.00  0.00    +0.000 NA
ATOM      8  C   UNL     1      -0.128  11.244  20.788  0.00  0.00    +0.000 A 
ATOM      9  C   UNL     1      -0.092  10.198  21.692  0.00  0.00    +0.000 A 
ATOM     10 CL   UNL     1      -0.797  10.306  23.245  0.00  0.00    +0.000 Cl
ATOM     11  N   UNL     1       0.512   9.022  21.419  0.00  0.00    +0.000 NA
ATOM     12  C   UNL     1       2.474   7.419  18.720  0.00  0.00    +0.000 C 
ATOM     13  C   UNL     1       3.609   6.430  18.975  0.00  0.00    +0.000 C 
ENDROOT
BRANCH   1  14
ATOM     14  N   UNL     1       2.872   3.974  19.071  0.00  0.00    +0.000 NA
BRANCH  14  15
ATOM     15  S   UNL     1       4.154   3.141  18.265  0.00  0.00    +0.000 S 
ATOM     16  C   UNL     1       3.734   1.410  18.356  0.00  0.00    +0.000 C 
ATOM     17  O   UNL     1       4.111   3.535  16.872  0.00  0.00    +0.000 OA
ATOM     18  O   UNL     1       5.355   3.328  19.049  0.00  0.00    +0.000 OA
ENDBRANCH  14  15
BRANCH  14  20
ATOM     19  C   UNL     1       0.578   2.832  19.216  0.00  0.00    +0.000 C 
ATOM     20  C   UNL     1       1.955   3.044  19.822  0.00  0.00    +0.000 C 
ENDBRANCH  14  20
ENDBRANCH   1  14
TORSDOF 3
ENDMDL
