MODEL 1
REMARK VINA RESULT:      -7.1      0.000      0.000
REMARK  Name = 
REMARK  9 active torsions:
REMARK  status: ('A' for Active; 'I' for Inactive)
REMARK    1  A    between atoms: C_1  and  C_2
REMARK    2  A    between atoms: C_2  and  C_3
REMARK    3  A    between atoms: C_2  and  C_4
REMARK    4  A    between atoms: C_7  and  C_8
REMARK    5  A    between atoms: C_8  and  C_9
REMARK    6  A    between atoms: C_9  and  O_11
REMARK    7  A    between atoms: C_12  and  O_13
REMARK    8  A    between atoms: C_12  and  C_14
REMARK    9  A    between atoms: C_14  and  O_16
REMARK                            x       y       z     vdW  Elec       q    Type
REMARK                         _______ _______ _______ _____ _____    ______ ____
ROOT
ATOM      1  C   UNL     1       6.741   5.688  16.967  0.00  0.00    +0.000 C 
ATOM      2  C   UNL     1       7.569   5.152  17.893  0.00  0.00    +0.000 C 
ENDROOT
BRANCH   1   6
ATOM      3  C   UNL     1       6.007   3.775  13.184  0.00  0.00    +0.000 A 
ATOM      4  C   UNL     1       7.150   4.564  13.382  0.00  0.00    +0.000 A 
ATOM      5  C   UNL     1       7.407   5.159  14.621  0.00  0.00    +0.000 A 
ATOM      6  C   UNL     1       6.527   4.971  15.692  0.00  0.00    +0.000 A 
ATOM      7  C   UNL     1       5.405   4.152  15.516  0.00  0.00    +0.000 A 
ATOM      8  C   UNL     1       5.148   3.564  14.272  0.00  0.00    +0.000 A 
BRANCH   3  10
ATOM      9  C   UNL     1       6.203   1.767  11.642  0.00  0.00    +0.000 C 
ATOM     10  C   UNL     1       5.713   3.207  11.803  0.00  0.00    +0.000 C 
ATOM     11  C   UNL     1       4.222   3.307  11.465  0.00  0.00    +0.000 C 
ENDBRANCH   3  10
ENDBRANCH   1   6
BRANCH   1  12
ATOM     12  C   UNL     1       6.143   7.047  17.152  0.00  0.00    +0.000 C 
ATOM     13  O   UNL     1       6.769   8.088  17.032  0.00  0.00    +0.000 OA
BRANCH  12  14
ATOM     14  O   UNL     1       4.806   7.025  17.343  0.00  0.00    +0.000 OA
ATOM     15  H   UNL     1       4.490   7.337  18.209  0.00  0.00    +0.000 HD
ENDBRANCH  12  14
ENDBRANCH   1  12
BRANCH   2  16
ATOM     16  O   UNL     1       8.284   3.964  17.690  0.00  0.00    +0.000 OA
ATOM     17  H   UNL     1       7.894   3.259  18.238  0.00  0.00    +0.000 HD
ENDBRANCH   2  16
BRANCH   2  18
ATOM     18  C   UNL     1       7.804   5.765  19.240  0.00  0.00    +0.000 C 
ATOM     19  O   UNL     1       7.519   5.270  20.311  0.00  0.00    +0.000 OA
BRANCH  18  20
ATOM     20  O   UNL     1       8.546   6.895  19.100  0.00  0.00    +0.000 OA
ATOM     21  H   UNL     1       8.047   7.551  18.574  0.00  0.00    +0.000 HD
ENDBRANCH  18  20
ENDBRANCH   2  18
TORSDOF 7
ENDMDL
MODEL 2
REMARK VINA RESULT:      -6.8      3.595      5.631
REMARK  Name = 
REMARK  9 active torsions:
REMARK  status: ('A' for Active; 'I' for Inactive)
REMARK    1  A    between atoms: C_1  and  C_2
REMARK    2  A    between atoms: C_2  and  C_3
REMARK    3  A    between atoms: C_2  and  C_4
REMARK    4  A    between atoms: C_7  and  C_8
REMARK    5  A    between atoms: C_8  and  C_9
REMARK    6  A    between atoms: C_9  and  O_11
REMARK    7  A    between atoms: C_12  and  O_13
REMARK    8  A    between atoms: C_12  and  C_14
REMARK    9  A    between atoms: C_14  and  O_16
REMARK                            x       y       z     vdW  Elec       q    Type
REMARK                         _______ _______ _______ _____ _____    ______ ____
ROOT
ATOM      1  C   UNL     1       6.029   4.714  16.035  0.00  0.00    +0.000 C 
ATOM      2  C   UNL     1       5.922   4.647  14.688  0.00  0.00    +0.000 C 
ENDROOT
BRANCH   1   6
ATOM      3  C   UNL     1       2.420   3.999  18.265  0.00  0.00    +0.000 A 
ATOM      4  C   UNL     1       3.230   2.933  17.845  0.00  0.00    +0.000 A 
ATOM      5  C   UNL     1       4.420   3.165  17.150  0.00  0.00    +0.000 A 
ATOM      6  C   UNL     1       4.829   4.472  16.865  0.00  0.00    +0.000 A 
ATOM      7  C   UNL     1       4.049   5.544  17.315  0.00  0.00    +0.000 A 
ATOM      8  C   UNL     1       2.855   5.307  18.005  0.00  0.00    +0.000 A 
BRANCH   3  10
ATOM      9  C   UNL     1       0.697   2.237  18.875  0.00  0.00    +0.000 C 
ATOM     10  C   UNL     1       1.091   3.713  18.949  0.00  0.00    +0.000 C 
ATOM     11  C   UNL     1       1.096   4.194  20.403  0.00  0.00    +0.000 C 
ENDBRANCH   3  10
ENDBRANCH   1   6
BRANCH   1  12
ATOM     12  C   UNL     1       7.299   5.153  16.693  0.00  0.00    +0.000 C 
ATOM     13  O   UNL     1       8.111   4.386  17.184  0.00  0.00    +0.000 OA
BRANCH  12  14
ATOM     14  O   UNL     1       7.530   6.479  16.584  0.00  0.00    +0.000 OA
ATOM     15  H   UNL     1       7.784   6.940  17.403  0.00  0.00    +0.000 HD
ENDBRANCH  12  14
ENDBRANCH   1  12
BRANCH   2  16
ATOM     16  O   UNL     1       4.711   4.408  14.023  0.00  0.00    +0.000 OA
ATOM     17  H   UNL     1       4.895   3.971  13.172  0.00  0.00    +0.000 HD
ENDBRANCH   2  16
BRANCH   2  18
ATOM     18  C   UNL     1       7.087   4.812  13.760  0.00  0.00    +0.000 C 
ATOM     19  O   UNL     1       8.044   5.538  13.934  0.00  0.00    +0.000 OA
BRANCH  18  20
ATOM     20  O   UNL     1       7.003   3.894  12.762  0.00  0.00    +0.000 OA
ATOM     21  H   UNL     1       7.554   3.117  12.983  0.00  0.00    +0.000 HD
ENDBRANCH  18  20
ENDBRANCH   2  18
TORSDOF 7
ENDMDL
MODEL 3
REMARK VINA RESULT:      -6.7      3.602      5.797
REMARK  Name = 
REMARK  9 active torsions:
REMARK  status: ('A' for Active; 'I' for Inactive)
REMARK    1  A    between atoms: C_1  and  C_2
REMARK    2  A    between atoms: C_2  and  C_3
REMARK    3  A    between atoms: C_2  and  C_4
REMARK    4  A    between atoms: C_7  and  C_8
REMARK    5  A    between atoms: C_8  and  C_9
REMARK    6  A    between atoms: C_9  and  O_11
REMARK    7  A    between atoms: C_12  and  O_13
REMARK    8  A    between atoms: C_12  and  C_14
REMARK    9  A    between atoms: C_14  and  O_16
REMARK                            x       y       z     vdW  Elec       q    Type
REMARK                         _______ _______ _______ _____ _____    ______ ____
ROOT
ATOM      1  C   UNL     1       5.961   4.690  16.020  0.00  0.00    +0.000 C 
ATOM      2  C   UNL     1       5.862   4.573  14.676  0.00  0.00    +0.000 C 
ENDROOT
BRANCH   1   6
ATOM      3  C   UNL     1       2.538   4.326  18.600  0.00  0.00    +0.000 A 
ATOM      4  C   UNL     1       3.005   5.586  18.198  0.00  0.00    +0.000 A 
ATOM      5  C   UNL     1       4.096   5.705  17.332  0.00  0.00    +0.000 A 
ATOM      6  C   UNL     1       4.741   4.562  16.845  0.00  0.00    +0.000 A 
ATOM      7  C   UNL     1       4.257   3.300  17.209  0.00  0.00    +0.000 A 
ATOM      8  C   UNL     1       3.168   3.185  18.081  0.00  0.00    +0.000 A 
BRANCH   3  10
ATOM      9  C   UNL     1       1.243   2.822  20.184  0.00  0.00    +0.000 C 
ATOM     10  C   UNL     1       1.399   4.229  19.606  0.00  0.00    +0.000 C 
ATOM     11  C   UNL     1       1.559   5.257  20.730  0.00  0.00    +0.000 C 
ENDBRANCH   3  10
ENDBRANCH   1   6
BRANCH   1  12
ATOM     12  C   UNL     1       7.251   5.074  16.674  0.00  0.00    +0.000 C 
ATOM     13  O   UNL     1       8.036   4.272  17.152  0.00  0.00    +0.000 OA
BRANCH  12  14
ATOM     14  O   UNL     1       7.531   6.392  16.576  0.00  0.00    +0.000 OA
ATOM     15  H   UNL     1       7.217   6.840  15.771  0.00  0.00    +0.000 HD
ENDBRANCH  12  14
ENDBRANCH   1  12
BRANCH   2  16
ATOM     16  O   UNL     1       4.644   4.384  14.008  0.00  0.00    +0.000 OA
ATOM     17  H   UNL     1       4.110   5.197  14.080  0.00  0.00    +0.000 HD
ENDBRANCH   2  16
BRANCH   2  18
ATOM     18  C   UNL     1       7.043   4.622  13.755  0.00  0.00    +0.000 C 
ATOM     19  O   UNL     1       7.950   5.428  13.797  0.00  0.00    +0.000 OA
BRANCH  18  20
ATOM     20  O   UNL     1       7.045   3.519  12.962  0.00  0.00    +0.000 OA
ATOM     21  H   UNL     1       6.395   3.633  12.241  0.00  0.00    +0.000 HD
ENDBRANCH  18  20
ENDBRANCH   2  18
TORSDOF 7
ENDMDL
MODEL 4
REMARK VINA RESULT:      -6.7      3.719      5.808
REMARK  Name = 
REMARK  9 active torsions:
REMARK  status: ('A' for Active; 'I' for Inactive)
REMARK    1  A    between atoms: C_1  and  C_2
REMARK    2  A    between atoms: C_2  and  C_3
REMARK    3  A    between atoms: C_2  and  C_4
REMARK    4  A    between atoms: C_7  and  C_8
REMARK    5  A    between atoms: C_8  and  C_9
REMARK    6  A    between atoms: C_9  and  O_11
REMARK    7  A    between atoms: C_12  and  O_13
REMARK    8  A    between atoms: C_12  and  C_14
REMARK    9  A    between atoms: C_14  and  O_16
REMARK                            x       y       z     vdW  Elec       q    Type
REMARK                         _______ _______ _______ _____ _____    ______ ____
ROOT
ATOM      1  C   UNL     1       5.955   5.611  18.286  0.00  0.00    +0.000 C 
ATOM      2  C   UNL     1       5.982   6.633  17.399  0.00  0.00    +0.000 C 
ENDROOT
BRANCH   1   6
ATOM      3  C   UNL     1       2.265   3.832  19.600  0.00  0.00    +0.000 A 
ATOM      4  C   UNL     1       2.693   5.065  20.115  0.00  0.00    +0.000 A 
ATOM      5  C   UNL     1       3.875   5.660  19.664  0.00  0.00    +0.000 A 
ATOM      6  C   UNL     1       4.651   5.036  18.682  0.00  0.00    +0.000 A 
ATOM      7  C   UNL     1       4.212   3.826  18.132  0.00  0.00    +0.000 A 
ATOM      8  C   UNL     1       3.031   3.230  18.591  0.00  0.00    +0.000 A 
BRANCH   3  10
ATOM      9  C   UNL     1       0.438   2.107  19.232  0.00  0.00    +0.000 C 
ATOM     10  C   UNL     1       1.017   3.170  20.167  0.00  0.00    +0.000 C 
ATOM     11  C   UNL     1       1.281   2.578  21.555  0.00  0.00    +0.000 C 
ENDBRANCH   3  10
ENDBRANCH   1   6
BRANCH   1  12
ATOM     12  C   UNL     1       7.200   5.140  18.968  0.00  0.00    +0.000 C 
ATOM     13  O   UNL     1       7.488   5.411  20.123  0.00  0.00    +0.000 OA
BRANCH  12  14
ATOM     14  O   UNL     1       7.927   4.276  18.226  0.00  0.00    +0.000 OA
ATOM     15  H   UNL     1       7.527   3.402  18.069  0.00  0.00    +0.000 HD
ENDBRANCH  12  14
ENDBRANCH   1  12
BRANCH   2  16
ATOM     16  O   UNL     1       4.826   7.218  16.865  0.00  0.00    +0.000 OA
ATOM     17  H   UNL     1       4.970   8.178  16.768  0.00  0.00    +0.000 HD
ENDBRANCH   2  16
BRANCH   2  18
ATOM     18  C   UNL     1       7.250   7.242  16.884  0.00  0.00    +0.000 C 
ATOM     19  O   UNL     1       7.770   8.262  17.289  0.00  0.00    +0.000 OA
BRANCH  18  20
ATOM     20  O   UNL     1       7.836   6.391  16.002  0.00  0.00    +0.000 OA
ATOM     21  H   UNL     1       8.722   6.726  15.761  0.00  0.00    +0.000 HD
ENDBRANCH  18  20
ENDBRANCH   2  18
TORSDOF 7
ENDMDL
MODEL 5
REMARK VINA RESULT:      -6.7      0.236      1.077
REMARK  Name = 
REMARK  9 active torsions:
REMARK  status: ('A' for Active; 'I' for Inactive)
REMARK    1  A    between atoms: C_1  and  C_2
REMARK    2  A    between atoms: C_2  and  C_3
REMARK    3  A    between atoms: C_2  and  C_4
REMARK    4  A    between atoms: C_7  and  C_8
REMARK    5  A    between atoms: C_8  and  C_9
REMARK    6  A    between atoms: C_9  and  O_11
REMARK    7  A    between atoms: C_12  and  O_13
REMARK    8  A    between atoms: C_12  and  C_14
REMARK    9  A    between atoms: C_14  and  O_16
REMARK                            x       y       z     vdW  Elec       q    Type
REMARK                         _______ _______ _______ _____ _____    ______ ____
ROOT
ATOM      1  C   UNL     1       6.669   5.654  16.825  0.00  0.00    +0.000 C 
ATOM      2  C   UNL     1       7.515   5.129  17.742  0.00  0.00    +0.000 C 
ENDROOT
BRANCH   1   6
ATOM      3  C   UNL     1       5.912   3.726  13.054  0.00  0.00    +0.000 A 
ATOM      4  C   UNL     1       7.065   4.502  13.248  0.00  0.00    +0.000 A 
ATOM      5  C   UNL     1       7.330   5.101  14.483  0.00  0.00    +0.000 A 
ATOM      6  C   UNL     1       6.446   4.931  15.555  0.00  0.00    +0.000 A 
ATOM      7  C   UNL     1       5.314   4.126  15.384  0.00  0.00    +0.000 A 
ATOM      8  C   UNL     1       5.050   3.533  14.143  0.00  0.00    +0.000 A 
BRANCH   3  10
ATOM      9  C   UNL     1       6.106   1.715  11.516  0.00  0.00    +0.000 C 
ATOM     10  C   UNL     1       5.611   3.153  11.677  0.00  0.00    +0.000 C 
ATOM     11  C   UNL     1       4.117   3.247  11.348  0.00  0.00    +0.000 C 
ENDBRANCH   3  10
ENDBRANCH   1   6
BRANCH   1  12
ATOM     12  C   UNL     1       6.060   7.007  17.015  0.00  0.00    +0.000 C 
ATOM     13  O   UNL     1       4.886   7.192  17.293  0.00  0.00    +0.000 OA
BRANCH  12  14
ATOM     14  O   UNL     1       6.961   8.013  16.974  0.00  0.00    +0.000 OA
ATOM     15  H   UNL     1       7.007   8.581  17.763  0.00  0.00    +0.000 HD
ENDBRANCH  12  14
ENDBRANCH   1  12
BRANCH   2  16
ATOM     16  O   UNL     1       8.240   3.948  17.532  0.00  0.00    +0.000 OA
ATOM     17  H   UNL     1       9.178   4.171  17.386  0.00  0.00    +0.000 HD
ENDBRANCH   2  16
BRANCH   2  18
ATOM     18  C   UNL     1       7.761   5.747  19.084  0.00  0.00    +0.000 C 
ATOM     19  O   UNL     1       8.470   6.706  19.312  0.00  0.00    +0.000 OA
BRANCH  18  20
ATOM     20  O   UNL     1       6.935   5.180  20.002  0.00  0.00    +0.000 OA
ATOM     21  H   UNL     1       7.002   4.207  19.946  0.00  0.00    +0.000 HD
ENDBRANCH  18  20
ENDBRANCH   2  18
TORSDOF 7
ENDMDL
MODEL 6
REMARK VINA RESULT:      -6.6      3.870      6.128
REMARK  Name = 
REMARK  9 active torsions:
REMARK  status: ('A' for Active; 'I' for Inactive)
REMARK    1  A    between atoms: C_1  and  C_2
REMARK    2  A    between atoms: C_2  and  C_3
REMARK    3  A    between atoms: C_2  and  C_4
REMARK    4  A    between atoms: C_7  and  C_8
REMARK    5  A    between atoms: C_8  and  C_9
REMARK    6  A    between atoms: C_9  and  O_11
REMARK    7  A    between atoms: C_12  and  O_13
REMARK    8  A    between atoms: C_12  and  C_14
REMARK    9  A    between atoms: C_14  and  O_16
REMARK                            x       y       z     vdW  Elec       q    Type
REMARK                         _______ _______ _______ _____ _____    ______ ____
ROOT
ATOM      1  C   UNL     1       6.147   4.578  17.114  0.00  0.00    +0.000 C 
ATOM      2  C   UNL     1       5.788   4.530  15.810  0.00  0.00    +0.000 C 
ENDROOT
BRANCH   1   6
ATOM      3  C   UNL     1       2.970   4.118  19.978  0.00  0.00    +0.000 A 
ATOM      4  C   UNL     1       3.610   2.998  19.427  0.00  0.00    +0.000 A 
ATOM      5  C   UNL     1       4.665   3.146  18.522  0.00  0.00    +0.000 A 
ATOM      6  C   UNL     1       5.107   4.421  18.153  0.00  0.00    +0.000 A 
ATOM      7  C   UNL     1       4.502   5.545  18.728  0.00  0.00    +0.000 A 
ATOM      8  C   UNL     1       3.442   5.392  19.630  0.00  0.00    +0.000 A 
BRANCH   3  10
ATOM      9  C   UNL     1       0.490   3.597  20.134  0.00  0.00    +0.000 C 
ATOM     10  C   UNL     1       1.773   3.927  20.898  0.00  0.00    +0.000 C 
ATOM     11  C   UNL     1       2.052   2.861  21.963  0.00  0.00    +0.000 C 
ENDBRANCH   3  10
ENDBRANCH   1   6
BRANCH   1  12
ATOM     12  C   UNL     1       7.546   4.916  17.523  0.00  0.00    +0.000 C 
ATOM     13  O   UNL     1       8.407   4.084  17.756  0.00  0.00    +0.000 OA
BRANCH  12  14
ATOM     14  O   UNL     1       7.810   6.241  17.490  0.00  0.00    +0.000 OA
ATOM     15  H   UNL     1       7.083   6.831  17.759  0.00  0.00    +0.000 HD
ENDBRANCH  12  14
ENDBRANCH   1  12
BRANCH   2  16
ATOM     16  O   UNL     1       4.461   4.386  15.383  0.00  0.00    +0.000 OA
ATOM     17  H   UNL     1       4.020   3.712  15.932  0.00  0.00    +0.000 HD
ENDBRANCH   2  16
BRANCH   2  18
ATOM     18  C   UNL     1       6.770   4.613  14.682  0.00  0.00    +0.000 C 
ATOM     19  O   UNL     1       7.682   5.409  14.584  0.00  0.00    +0.000 OA
BRANCH  18  20
ATOM     20  O   UNL     1       6.599   3.549  13.854  0.00  0.00    +0.000 OA
ATOM     21  H   UNL     1       7.156   3.661  13.058  0.00  0.00    +0.000 HD
ENDBRANCH  18  20
ENDBRANCH   2  18
TORSDOF 7
ENDMDL
MODEL 7
REMARK VINA RESULT:      -6.6      3.760      5.855
REMARK  Name = 
REMARK  9 active torsions:
REMARK  status: ('A' for Active; 'I' for Inactive)
REMARK    1  A    between atoms: C_1  and  C_2
REMARK    2  A    between atoms: C_2  and  C_3
REMARK    3  A    between atoms: C_2  and  C_4
REMARK    4  A    between atoms: C_7  and  C_8
REMARK    5  A    between atoms: C_8  and  C_9
REMARK    6  A    between atoms: C_9  and  O_11
REMARK    7  A    between atoms: C_12  and  O_13
REMARK    8  A    between atoms: C_12  and  C_14
REMARK    9  A    between atoms: C_14  and  O_16
REMARK                            x       y       z     vdW  Elec       q    Type
REMARK                         _______ _______ _______ _____ _____    ______ ____
ROOT
ATOM      1  C   UNL     1       6.103   5.500  18.403  0.00  0.00    +0.000 C 
ATOM      2  C   UNL     1       6.013   6.448  17.442  0.00  0.00    +0.000 C 
ENDROOT
BRANCH   1   6
ATOM      3  C   UNL     1       2.393   3.832  19.805  0.00  0.00    +0.000 A 
ATOM      4  C   UNL     1       3.330   3.036  19.129  0.00  0.00    +0.000 A 
ATOM      5  C   UNL     1       4.551   3.568  18.703  0.00  0.00    +0.000 A 
ATOM      6  C   UNL     1       4.862   4.910  18.950  0.00  0.00    +0.000 A 
ATOM      7  C   UNL     1       3.951   5.701  19.659  0.00  0.00    +0.000 A 
ATOM      8  C   UNL     1       2.727   5.166  20.078  0.00  0.00    +0.000 A 
BRANCH   3  10
ATOM      9  C   UNL     1       0.509   2.265  19.139  0.00  0.00    +0.000 C 
ATOM     10  C   UNL     1       1.041   3.246  20.185  0.00  0.00    +0.000 C 
ATOM     11  C   UNL     1       1.087   2.585  21.566  0.00  0.00    +0.000 C 
ENDBRANCH   3  10
ENDBRANCH   1   6
BRANCH   1  12
ATOM     12  C   UNL     1       7.419   5.133  19.013  0.00  0.00    +0.000 C 
ATOM     13  O   UNL     1       7.767   5.469  20.134  0.00  0.00    +0.000 OA
BRANCH  12  14
ATOM     14  O   UNL     1       8.145   4.283  18.254  0.00  0.00    +0.000 OA
ATOM     15  H   UNL     1       7.643   3.609  17.763  0.00  0.00    +0.000 HD
ENDBRANCH  12  14
ENDBRANCH   1  12
BRANCH   2  16
ATOM     16  O   UNL     1       4.793   6.945  16.964  0.00  0.00    +0.000 OA
ATOM     17  H   UNL     1       4.950   7.793  16.509  0.00  0.00    +0.000 HD
ENDBRANCH   2  16
BRANCH   2  18
ATOM     18  C   UNL     1       7.207   7.062  16.778  0.00  0.00    +0.000 C 
ATOM     19  O   UNL     1       7.757   8.094  17.105  0.00  0.00    +0.000 OA
BRANCH  18  20
ATOM     20  O   UNL     1       7.699   6.202  15.847  0.00  0.00    +0.000 OA
ATOM     21  H   UNL     1       8.325   6.674  15.263  0.00  0.00    +0.000 HD
ENDBRANCH  18  20
ENDBRANCH   2  18
TORSDOF 7
ENDMDL
MODEL 8
REMARK VINA RESULT:      -6.5      3.591      5.606
REMARK  Name = 
REMARK  9 active torsions:
REMARK  status: ('A' for Active; 'I' for Inactive)
REMARK    1  A    between atoms: C_1  and  C_2
REMARK    2  A    between atoms: C_2  and  C_3
REMARK    3  A    between atoms: C_2  and  C_4
REMARK    4  A    between atoms: C_7  and  C_8
REMARK    5  A    between atoms: C_8  and  C_9
REMARK    6  A    between atoms: C_9  and  O_11
REMARK    7  A    between atoms: C_12  and  O_13
REMARK    8  A    between atoms: C_12  and  C_14
REMARK    9  A    between atoms: C_14  and  O_16
REMARK                            x       y       z     vdW  Elec       q    Type
REMARK                         _______ _______ _______ _____ _____    ______ ____
ROOT
ATOM      1  C   UNL     1       6.035   4.654  15.915  0.00  0.00    +0.000 C 
ATOM      2  C   UNL     1       5.914   4.506  14.575  0.00  0.00    +0.000 C 
ENDROOT
BRANCH   1   6
ATOM      3  C   UNL     1       2.463   4.018  18.227  0.00  0.00    +0.000 A 
ATOM      4  C   UNL     1       3.258   2.936  17.817  0.00  0.00    +0.000 A 
ATOM      5  C   UNL     1       4.437   3.144  17.095  0.00  0.00    +0.000 A 
ATOM      6  C   UNL     1       4.849   4.441  16.772  0.00  0.00    +0.000 A 
ATOM      7  C   UNL     1       4.085   5.528  17.211  0.00  0.00    +0.000 A 
ATOM      8  C   UNL     1       2.901   5.316  17.929  0.00  0.00    +0.000 A 
BRANCH   3  10
ATOM      9  C   UNL     1       0.710   2.293  18.858  0.00  0.00    +0.000 C 
ATOM     10  C   UNL     1       1.145   3.757  18.942  0.00  0.00    +0.000 C 
ATOM     11  C   UNL     1       1.201   4.218  20.402  0.00  0.00    +0.000 C 
ENDBRANCH   3  10
ENDBRANCH   1   6
BRANCH   1  12
ATOM     12  C   UNL     1       7.303   5.154  16.531  0.00  0.00    +0.000 C 
ATOM     13  O   UNL     1       7.569   6.336  16.678  0.00  0.00    +0.000 OA
BRANCH  12  14
ATOM     14  O   UNL     1       8.083   4.170  17.029  0.00  0.00    +0.000 OA
ATOM     15  H   UNL     1       8.490   3.572  16.377  0.00  0.00    +0.000 HD
ENDBRANCH  12  14
ENDBRANCH   1  12
BRANCH   2  16
ATOM     16  O   UNL     1       4.701   4.206  13.941  0.00  0.00    +0.000 OA
ATOM     17  H   UNL     1       3.969   4.610  14.443  0.00  0.00    +0.000 HD
ENDBRANCH   2  16
BRANCH   2  18
ATOM     18  C   UNL     1       7.066   4.636  13.626  0.00  0.00    +0.000 C 
ATOM     19  O   UNL     1       7.171   4.085  12.549  0.00  0.00    +0.000 OA
BRANCH  18  20
ATOM     20  O   UNL     1       7.911   5.604  14.069  0.00  0.00    +0.000 OA
ATOM     21  H   UNL     1       8.740   5.576  13.553  0.00  0.00    +0.000 HD
ENDBRANCH  18  20
ENDBRANCH   2  18
TORSDOF 7
ENDMDL
MODEL 9
REMARK VINA RESULT:      -6.5      3.721      5.732
REMARK  Name = 
REMARK  9 active torsions:
REMARK  status: ('A' for Active; 'I' for Inactive)
REMARK    1  A    between atoms: C_1  and  C_2
REMARK    2  A    between atoms: C_2  and  C_3
REMARK    3  A    between atoms: C_2  and  C_4
REMARK    4  A    between atoms: C_7  and  C_8
REMARK    5  A    between atoms: C_8  and  C_9
REMARK    6  A    between atoms: C_9  and  O_11
REMARK    7  A    between atoms: C_12  and  O_13
REMARK    8  A    between atoms: C_12  and  C_14
REMARK    9  A    between atoms: C_14  and  O_16
REMARK                            x       y       z     vdW  Elec       q    Type
REMARK                         _______ _______ _______ _____ _____    ______ ____
ROOT
ATOM      1  C   UNL     1       5.486   5.016  16.152  0.00  0.00    +0.000 C 
ATOM      2  C   UNL     1       6.127   4.239  15.248  0.00  0.00    +0.000 C 
ENDROOT
BRANCH   1   6
ATOM      3  C   UNL     1       2.913   3.349  19.171  0.00  0.00    +0.000 A 
ATOM      4  C   UNL     1       2.461   3.520  17.853  0.00  0.00    +0.000 A 
ATOM      5  C   UNL     1       3.307   4.029  16.863  0.00  0.00    +0.000 A 
ATOM      6  C   UNL     1       4.627   4.375  17.171  0.00  0.00    +0.000 A 
ATOM      7  C   UNL     1       5.100   4.171  18.473  0.00  0.00    +0.000 A 
ATOM      8  C   UNL     1       4.248   3.666  19.462  0.00  0.00    +0.000 A 
BRANCH   3  10
ATOM      9  C   UNL     1       2.617   2.702  21.608  0.00  0.00    +0.000 C 
ATOM     10  C   UNL     1       1.946   2.868  20.243  0.00  0.00    +0.000 C 
ATOM     11  C   UNL     1       0.729   3.792  20.352  0.00  0.00    +0.000 C 
ENDBRANCH   3  10
ENDBRANCH   1   6
BRANCH   1  12
ATOM     12  C   UNL     1       5.525   6.509  16.061  0.00  0.00    +0.000 C 
ATOM     13  O   UNL     1       4.696   7.175  15.463  0.00  0.00    +0.000 OA
BRANCH  12  14
ATOM     14  O   UNL     1       6.498   7.068  16.812  0.00  0.00    +0.000 OA
ATOM     15  H   UNL     1       6.316   7.145  17.766  0.00  0.00    +0.000 HD
ENDBRANCH  12  14
ENDBRANCH   1  12
BRANCH   2  16
ATOM     16  O   UNL     1       5.982   2.847  15.191  0.00  0.00    +0.000 OA
ATOM     17  H   UNL     1       6.005   2.561  14.259  0.00  0.00    +0.000 HD
ENDBRANCH   2  16
BRANCH   2  18
ATOM     18  C   UNL     1       7.069   4.782  14.217  0.00  0.00    +0.000 C 
ATOM     19  O   UNL     1       7.996   5.539  14.422  0.00  0.00    +0.000 OA
BRANCH  18  20
ATOM     20  O   UNL     1       6.841   4.167  13.027  0.00  0.00    +0.000 OA
ATOM     21  H   UNL     1       7.051   4.780  12.295  0.00  0.00    +0.000 HD
ENDBRANCH  18  20
ENDBRANCH   2  18
TORSDOF 7
ENDMDL
