MODEL 1
REMARK VINA RESULT:      -6.0      0.000      0.000
REMARK  Name = 
REMARK  9 active torsions:
REMARK  status: ('A' for Active; 'I' for Inactive)
REMARK    1  A    between atoms: C_1  and  C_2
REMARK    2  A    between atoms: C_2  and  O_3
REMARK    3  A    between atoms: O_3  and  C_4
REMARK    4  A    between atoms: C_4  and  C_6
REMARK    5  A    between atoms: C_7  and  N_8
REMARK    6  A    between atoms: C_10  and  C_11
REMARK    7  A    between atoms: C_11  and  O_13
REMARK    8  A    between atoms: O_13  and  C_14
REMARK    9  A    between atoms: C_15  and  C_16
REMARK                            x       y       z     vdW  Elec       q    Type
REMARK                         _______ _______ _______ _____ _____    ______ ____
ROOT
ATOM      1  C   UNL     1       4.470   5.360  17.097  0.00  0.00    +0.000 A 
ATOM      2  C   UNL     1       4.820   4.027  16.936  0.00  0.00    +0.000 A 
ATOM      3  S   UNL     1       3.735   2.973  17.705  0.00  0.00    +0.000 S 
ATOM      4  C   UNL     1       2.778   4.248  18.318  0.00  0.00    +0.000 A 
ATOM      5  C   UNL     1       3.252   5.491  17.906  0.00  0.00    +0.000 A 
ATOM      6  C   UNL     1       2.608   6.820  18.186  0.00  0.00    +0.000 C 
ENDROOT
BRANCH   2   7
ATOM      7  N   UNL     1       5.859   3.502  16.252  0.00  0.00    +0.000 N 
ATOM      8  H   UNL     1       5.765   3.297  15.258  0.00  0.00    +0.000 HD
ATOM      9  H   UNL     1       6.547   2.934  16.738  0.00  0.00    +0.000 HD
ENDBRANCH   2   7
BRANCH   1  10
ATOM     10  C   UNL     1       5.188   6.485  16.475  0.00  0.00    +0.000 C 
ATOM     11  O   UNL     1       5.178   6.712  15.270  0.00  0.00    +0.000 OA
BRANCH  10  12
ATOM     12  O   UNL     1       5.953   7.192  17.363  0.00  0.00    +0.000 OA
BRANCH  12  14
ATOM     13  C   UNL     1       7.684   6.191  18.657  0.00  0.00    +0.000 C 
ATOM     14  C   UNL     1       7.356   6.901  17.356  0.00  0.00    +0.000 C 
ENDBRANCH  12  14
ENDBRANCH  10  12
ENDBRANCH   1  10
BRANCH   4  15
ATOM     15  C   UNL     1       1.636   3.864  19.132  0.00  0.00    +0.000 C 
ATOM     16  O   UNL     1       0.769   3.050  18.822  0.00  0.00    +0.000 OA
BRANCH  15  17
ATOM     17  O   UNL     1       1.674   4.497  20.339  0.00  0.00    +0.000 OA
ATOM     18  C   UNL     1       2.095   3.662  21.419  0.00  0.00    +0.000 C 
ENDBRANCH  15  17
ENDBRANCH   4  15
TORSDOF 6
ENDMDL
MODEL 2
REMARK VINA RESULT:      -5.9      0.933      1.301
REMARK  Name = 
REMARK  9 active torsions:
REMARK  status: ('A' for Active; 'I' for Inactive)
REMARK    1  A    between atoms: C_1  and  C_2
REMARK    2  A    between atoms: C_2  and  O_3
REMARK    3  A    between atoms: O_3  and  C_4
REMARK    4  A    between atoms: C_4  and  C_6
REMARK    5  A    between atoms: C_7  and  N_8
REMARK    6  A    between atoms: C_10  and  C_11
REMARK    7  A    between atoms: C_11  and  O_13
REMARK    8  A    between atoms: O_13  and  C_14
REMARK    9  A    between atoms: C_15  and  C_16
REMARK                            x       y       z     vdW  Elec       q    Type
REMARK                         _______ _______ _______ _____ _____    ______ ____
ROOT
ATOM      1  C   UNL     1       4.795   5.463  16.909  0.00  0.00    +0.000 A 
ATOM      2  C   UNL     1       4.928   4.082  16.977  0.00  0.00    +0.000 A 
ATOM      3  S   UNL     1       3.810   3.376  18.041  0.00  0.00    +0.000 S 
ATOM      4  C   UNL     1       3.131   4.879  18.484  0.00  0.00    +0.000 A 
ATOM      5  C   UNL     1       3.723   5.934  17.792  0.00  0.00    +0.000 A 
ATOM      6  C   UNL     1       3.317   7.379  17.869  0.00  0.00    +0.000 C 
ENDROOT
BRANCH   2   7
ATOM      7  N   UNL     1       5.785   3.280  16.310  0.00  0.00    +0.000 N 
ATOM      8  H   UNL     1       6.508   2.772  16.817  0.00  0.00    +0.000 HD
ATOM      9  H   UNL     1       6.007   3.477  15.339  0.00  0.00    +0.000 HD
ENDBRANCH   2   7
BRANCH   1  10
ATOM     10  C   UNL     1       5.583   6.325  16.011  0.00  0.00    +0.000 C 
ATOM     11  O   UNL     1       5.094   6.964  15.085  0.00  0.00    +0.000 OA
BRANCH  10  12
ATOM     12  O   UNL     1       6.929   6.261  16.248  0.00  0.00    +0.000 OA
BRANCH  12  14
ATOM     13  C   UNL     1       7.703   8.092  17.560  0.00  0.00    +0.000 C 
ATOM     14  C   UNL     1       7.351   6.615  17.570  0.00  0.00    +0.000 C 
ENDBRANCH  12  14
ENDBRANCH  10  12
ENDBRANCH   1  10
BRANCH   4  15
ATOM     15  C   UNL     1       2.060   4.840  19.466  0.00  0.00    +0.000 C 
ATOM     16  O   UNL     1       1.852   5.675  20.342  0.00  0.00    +0.000 OA
BRANCH  15  17
ATOM     17  O   UNL     1       1.257   3.758  19.254  0.00  0.00    +0.000 OA
ATOM     18  C   UNL     1       0.975   3.005  20.435  0.00  0.00    +0.000 C 
ENDBRANCH  15  17
ENDBRANCH   4  15
TORSDOF 6
ENDMDL
MODEL 3
REMARK VINA RESULT:      -5.8      2.358      5.497
REMARK  Name = 
REMARK  9 active torsions:
REMARK  status: ('A' for Active; 'I' for Inactive)
REMARK    1  A    between atoms: C_1  and  C_2
REMARK    2  A    between atoms: C_2  and  O_3
REMARK    3  A    between atoms: O_3  and  C_4
REMARK    4  A    between atoms: C_4  and  C_6
REMARK    5  A    between atoms: C_7  and  N_8
REMARK    6  A    between atoms: C_10  and  C_11
REMARK    7  A    between atoms: C_11  and  O_13
REMARK    8  A    between atoms: O_13  and  C_14
REMARK    9  A    between atoms: C_15  and  C_16
REMARK                            x       y       z     vdW  Elec       q    Type
REMARK                         _______ _______ _______ _____ _____    ______ ____
ROOT
ATOM      1  C   UNL     1       3.150   4.953  17.953  0.00  0.00    +0.000 A 
ATOM      2  C   UNL     1       3.483   6.295  17.833  0.00  0.00    +0.000 A 
ATOM      3  S   UNL     1       5.036   6.522  17.186  0.00  0.00    +0.000 S 
ATOM      4  C   UNL     1       5.344   4.846  17.078  0.00  0.00    +0.000 A 
ATOM      5  C   UNL     1       4.247   4.094  17.494  0.00  0.00    +0.000 A 
ATOM      6  C   UNL     1       4.135   2.596  17.452  0.00  0.00    +0.000 C 
ENDROOT
BRANCH   2   7
ATOM      7  N   UNL     1       2.741   7.383  18.134  0.00  0.00    +0.000 N 
ATOM      8  H   UNL     1       2.652   7.687  19.102  0.00  0.00    +0.000 HD
ATOM      9  H   UNL     1       1.965   7.645  17.534  0.00  0.00    +0.000 HD
ENDBRANCH   2   7
BRANCH   1  10
ATOM     10  C   UNL     1       1.838   4.466  18.413  0.00  0.00    +0.000 C 
ATOM     11  O   UNL     1       1.022   3.921  17.678  0.00  0.00    +0.000 OA
BRANCH  10  12
ATOM     12  O   UNL     1       1.578   4.775  19.721  0.00  0.00    +0.000 OA
BRANCH  12  14
ATOM     13  C   UNL     1       2.129   3.144  21.367  0.00  0.00    +0.000 C 
ATOM     14  C   UNL     1       1.015   3.723  20.514  0.00  0.00    +0.000 C 
ENDBRANCH  12  14
ENDBRANCH  10  12
ENDBRANCH   1  10
BRANCH   4  15
ATOM     15  C   UNL     1       6.648   4.460  16.564  0.00  0.00    +0.000 C 
ATOM     16  O   UNL     1       7.718   4.570  17.157  0.00  0.00    +0.000 OA
BRANCH  15  17
ATOM     17  O   UNL     1       6.528   3.896  15.329  0.00  0.00    +0.000 OA
ATOM     18  C   UNL     1       6.856   4.778  14.254  0.00  0.00    +0.000 C 
ENDBRANCH  15  17
ENDBRANCH   4  15
TORSDOF 6
ENDMDL
MODEL 4
REMARK VINA RESULT:      -5.8      1.098      5.035
REMARK  Name = 
REMARK  9 active torsions:
REMARK  status: ('A' for Active; 'I' for Inactive)
REMARK    1  A    between atoms: C_1  and  C_2
REMARK    2  A    between atoms: C_2  and  O_3
REMARK    3  A    between atoms: O_3  and  C_4
REMARK    4  A    between atoms: C_4  and  C_6
REMARK    5  A    between atoms: C_7  and  N_8
REMARK    6  A    between atoms: C_10  and  C_11
REMARK    7  A    between atoms: C_11  and  O_13
REMARK    8  A    between atoms: O_13  and  C_14
REMARK    9  A    between atoms: C_15  and  C_16
REMARK                            x       y       z     vdW  Elec       q    Type
REMARK                         _______ _______ _______ _____ _____    ______ ____
ROOT
ATOM      1  C   UNL     1       2.883   4.007  18.010  0.00  0.00    +0.000 A 
ATOM      2  C   UNL     1       3.856   3.102  17.610  0.00  0.00    +0.000 A 
ATOM      3  S   UNL     1       5.173   3.858  16.853  0.00  0.00    +0.000 S 
ATOM      4  C   UNL     1       4.485   5.415  16.989  0.00  0.00    +0.000 A 
ATOM      5  C   UNL     1       3.261   5.379  17.653  0.00  0.00    +0.000 A 
ATOM      6  C   UNL     1       2.422   6.570  18.023  0.00  0.00    +0.000 C 
ENDROOT
BRANCH   2   7
ATOM      7  N   UNL     1       3.881   1.761  17.768  0.00  0.00    +0.000 N 
ATOM      8  H   UNL     1       3.039   1.266  18.058  0.00  0.00    +0.000 HD
ATOM      9  H   UNL     1       4.751   1.299  18.017  0.00  0.00    +0.000 HD
ENDBRANCH   2   7
BRANCH   1  10
ATOM     10  C   UNL     1       1.668   3.639  18.757  0.00  0.00    +0.000 C 
ATOM     11  O   UNL     1       0.740   3.002  18.270  0.00  0.00    +0.000 OA
BRANCH  10  12
ATOM     12  O   UNL     1       1.633   4.166  20.020  0.00  0.00    +0.000 OA
BRANCH  12  14
ATOM     13  C   UNL     1       2.477   2.614  21.617  0.00  0.00    +0.000 C 
ATOM     14  C   UNL     1       1.226   3.271  21.062  0.00  0.00    +0.000 C 
ENDBRANCH  12  14
ENDBRANCH  10  12
ENDBRANCH   1  10
BRANCH   4  15
ATOM     15  C   UNL     1       5.259   6.514  16.434  0.00  0.00    +0.000 C 
ATOM     16  O   UNL     1       5.306   6.838  15.250  0.00  0.00    +0.000 OA
BRANCH  15  17
ATOM     17  O   UNL     1       5.903   7.193  17.425  0.00  0.00    +0.000 OA
ATOM     18  C   UNL     1       7.317   6.988  17.446  0.00  0.00    +0.000 C 
ENDBRANCH  15  17
ENDBRANCH   4  15
TORSDOF 6
ENDMDL
MODEL 5
REMARK VINA RESULT:      -5.7      1.099      1.152
REMARK  Name = 
REMARK  9 active torsions:
REMARK  status: ('A' for Active; 'I' for Inactive)
REMARK    1  A    between atoms: C_1  and  C_2
REMARK    2  A    between atoms: C_2  and  O_3
REMARK    3  A    between atoms: O_3  and  C_4
REMARK    4  A    between atoms: C_4  and  C_6
REMARK    5  A    between atoms: C_7  and  N_8
REMARK    6  A    between atoms: C_10  and  C_11
REMARK    7  A    between atoms: C_11  and  O_13
REMARK    8  A    between atoms: O_13  and  C_14
REMARK    9  A    between atoms: C_15  and  C_16
REMARK                            x       y       z     vdW  Elec       q    Type
REMARK                         _______ _______ _______ _____ _____    ______ ____
ROOT
ATOM      1  C   UNL     1       4.024   4.920  17.894  0.00  0.00    +0.000 A 
ATOM      2  C   UNL     1       4.327   3.657  17.404  0.00  0.00    +0.000 A 
ATOM      3  S   UNL     1       3.176   2.493  17.853  0.00  0.00    +0.000 S 
ATOM      4  C   UNL     1       2.250   3.613  18.751  0.00  0.00    +0.000 A 
ATOM      5  C   UNL     1       2.787   4.897  18.681  0.00  0.00    +0.000 A 
ATOM      6  C   UNL     1       2.186   6.139  19.278  0.00  0.00    +0.000 C 
ENDROOT
BRANCH   2   7
ATOM      7  N   UNL     1       5.368   3.275  16.632  0.00  0.00    +0.000 N 
ATOM      8  H   UNL     1       6.316   3.303  17.003  0.00  0.00    +0.000 HD
ATOM      9  H   UNL     1       5.305   3.365  15.622  0.00  0.00    +0.000 HD
ENDBRANCH   2   7
BRANCH   1  10
ATOM     10  C   UNL     1       4.807   6.131  17.596  0.00  0.00    +0.000 C 
ATOM     11  O   UNL     1       4.398   7.046  16.889  0.00  0.00    +0.000 OA
BRANCH  10  12
ATOM     12  O   UNL     1       6.077   6.089  18.105  0.00  0.00    +0.000 OA
BRANCH  12  14
ATOM     13  C   UNL     1       7.743   7.734  17.666  0.00  0.00    +0.000 C 
ATOM     14  C   UNL     1       7.130   6.428  17.194  0.00  0.00    +0.000 C 
ENDBRANCH  12  14
ENDBRANCH  10  12
ENDBRANCH   1  10
BRANCH   4  15
ATOM     15  C   UNL     1       1.067   3.088  19.413  0.00  0.00    +0.000 C 
ATOM     16  O   UNL     1       0.210   2.371  18.901  0.00  0.00    +0.000 OA
BRANCH  15  17
ATOM     17  O   UNL     1       1.052   3.455  20.726  0.00  0.00    +0.000 OA
ATOM     18  C   UNL     1       1.926   2.686  21.554  0.00  0.00    +0.000 C 
ENDBRANCH  15  17
ENDBRANCH   4  15
TORSDOF 6
ENDMDL
MODEL 6
REMARK VINA RESULT:      -5.7      2.377      5.415
REMARK  Name = 
REMARK  9 active torsions:
REMARK  status: ('A' for Active; 'I' for Inactive)
REMARK    1  A    between atoms: C_1  and  C_2
REMARK    2  A    between atoms: C_2  and  O_3
REMARK    3  A    between atoms: O_3  and  C_4
REMARK    4  A    between atoms: C_4  and  C_6
REMARK    5  A    between atoms: C_7  and  N_8
REMARK    6  A    between atoms: C_10  and  C_11
REMARK    7  A    between atoms: C_11  and  O_13
REMARK    8  A    between atoms: O_13  and  C_14
REMARK    9  A    between atoms: C_15  and  C_16
REMARK                            x       y       z     vdW  Elec       q    Type
REMARK                         _______ _______ _______ _____ _____    ______ ____
ROOT
ATOM      1  C   UNL     1       3.692   4.490  17.942  0.00  0.00    +0.000 A 
ATOM      2  C   UNL     1       4.038   4.923  19.214  0.00  0.00    +0.000 A 
ATOM      3  S   UNL     1       5.682   5.325  19.338  0.00  0.00    +0.000 S 
ATOM      4  C   UNL     1       6.009   4.901  17.716  0.00  0.00    +0.000 A 
ATOM      5  C   UNL     1       4.857   4.488  17.050  0.00  0.00    +0.000 A 
ATOM      6  C   UNL     1       4.760   4.125  15.595  0.00  0.00    +0.000 C 
ENDROOT
BRANCH   2   7
ATOM      7  N   UNL     1       3.250   5.075  20.300  0.00  0.00    +0.000 N 
ATOM      8  H   UNL     1       3.668   5.234  21.216  0.00  0.00    +0.000 HD
ATOM      9  H   UNL     1       2.334   4.637  20.323  0.00  0.00    +0.000 HD
ENDBRANCH   2   7
BRANCH   1  10
ATOM     10  C   UNL     1       2.320   4.148  17.530  0.00  0.00    +0.000 C 
ATOM     11  O   UNL     1       1.383   4.938  17.574  0.00  0.00    +0.000 OA
BRANCH  10  12
ATOM     12  O   UNL     1       2.172   2.830  17.190  0.00  0.00    +0.000 OA
BRANCH  12  14
ATOM     13  C   UNL     1       1.355   2.022  19.276  0.00  0.00    +0.000 C 
ATOM     14  C   UNL     1       2.443   1.880  18.227  0.00  0.00    +0.000 C 
ENDBRANCH  12  14
ENDBRANCH  10  12
ENDBRANCH   1  10
BRANCH   4  15
ATOM     15  C   UNL     1       7.387   5.048  17.275  0.00  0.00    +0.000 C 
ATOM     16  O   UNL     1       8.290   4.232  17.443  0.00  0.00    +0.000 OA
BRANCH  15  17
ATOM     17  O   UNL     1       7.546   6.214  16.585  0.00  0.00    +0.000 OA
ATOM     18  C   UNL     1       7.635   7.372  17.416  0.00  0.00    +0.000 C 
ENDBRANCH  15  17
ENDBRANCH   4  15
TORSDOF 6
ENDMDL
MODEL 7
REMARK VINA RESULT:      -5.7      2.252      5.236
REMARK  Name = 
REMARK  9 active torsions:
REMARK  status: ('A' for Active; 'I' for Inactive)
REMARK    1  A    between atoms: C_1  and  C_2
REMARK    2  A    between atoms: C_2  and  O_3
REMARK    3  A    between atoms: O_3  and  C_4
REMARK    4  A    between atoms: C_4  and  C_6
REMARK    5  A    between atoms: C_7  and  N_8
REMARK    6  A    between atoms: C_10  and  C_11
REMARK    7  A    between atoms: C_11  and  O_13
REMARK    8  A    between atoms: O_13  and  C_14
REMARK    9  A    between atoms: C_15  and  C_16
REMARK                            x       y       z     vdW  Elec       q    Type
REMARK                         _______ _______ _______ _____ _____    ______ ____
ROOT
ATOM      1  C   UNL     1       3.118   4.998  18.146  0.00  0.00    +0.000 A 
ATOM      2  C   UNL     1       3.339   6.350  17.917  0.00  0.00    +0.000 A 
ATOM      3  S   UNL     1       4.934   6.674  17.436  0.00  0.00    +0.000 S 
ATOM      4  C   UNL     1       5.407   5.036  17.552  0.00  0.00    +0.000 A 
ATOM      5  C   UNL     1       4.340   4.219  17.918  0.00  0.00    +0.000 A 
ATOM      6  C   UNL     1       4.374   2.720  18.030  0.00  0.00    +0.000 C 
ENDROOT
BRANCH   2   7
ATOM      7  N   UNL     1       2.467   7.377  18.006  0.00  0.00    +0.000 N 
ATOM      8  H   UNL     1       2.811   8.334  18.072  0.00  0.00    +0.000 HD
ATOM      9  H   UNL     1       1.551   7.226  18.419  0.00  0.00    +0.000 HD
ENDBRANCH   2   7
BRANCH   1  10
ATOM     10  C   UNL     1       1.809   4.424  18.500  0.00  0.00    +0.000 C 
ATOM     11  O   UNL     1       1.135   3.749  17.729  0.00  0.00    +0.000 OA
BRANCH  10  12
ATOM     12  O   UNL     1       1.373   4.803  19.741  0.00  0.00    +0.000 OA
BRANCH  12  14
ATOM     13  C   UNL     1       1.418   2.923  21.204  0.00  0.00    +0.000 C 
ATOM     14  C   UNL     1       2.082   4.243  20.853  0.00  0.00    +0.000 C 
ENDBRANCH  12  14
ENDBRANCH  10  12
ENDBRANCH   1  10
BRANCH   4  15
ATOM     15  C   UNL     1       6.796   4.742  17.242  0.00  0.00    +0.000 C 
ATOM     16  O   UNL     1       7.309   4.774  16.126  0.00  0.00    +0.000 OA
BRANCH  15  17
ATOM     17  O   UNL     1       7.493   4.470  18.382  0.00  0.00    +0.000 OA
ATOM     18  C   UNL     1       7.898   5.633  19.105  0.00  0.00    +0.000 C 
ENDBRANCH  15  17
ENDBRANCH   4  15
TORSDOF 6
ENDMDL
MODEL 8
REMARK VINA RESULT:      -5.7      1.649      2.341
REMARK  Name = 
REMARK  9 active torsions:
REMARK  status: ('A' for Active; 'I' for Inactive)
REMARK    1  A    between atoms: C_1  and  C_2
REMARK    2  A    between atoms: C_2  and  O_3
REMARK    3  A    between atoms: O_3  and  C_4
REMARK    4  A    between atoms: C_4  and  C_6
REMARK    5  A    between atoms: C_7  and  N_8
REMARK    6  A    between atoms: C_10  and  C_11
REMARK    7  A    between atoms: C_11  and  O_13
REMARK    8  A    between atoms: O_13  and  C_14
REMARK    9  A    between atoms: C_15  and  C_16
REMARK                            x       y       z     vdW  Elec       q    Type
REMARK                         _______ _______ _______ _____ _____    ______ ____
ROOT
ATOM      1  C   UNL     1       5.325   5.935  17.765  0.00  0.00    +0.000 A 
ATOM      2  C   UNL     1       5.743   4.762  18.379  0.00  0.00    +0.000 A 
ATOM      3  S   UNL     1       4.560   4.109  19.405  0.00  0.00    +0.000 S 
ATOM      4  C   UNL     1       3.458   5.379  19.106  0.00  0.00    +0.000 A 
ATOM      5  C   UNL     1       3.966   6.294  18.186  0.00  0.00    +0.000 A 
ATOM      6  C   UNL     1       3.236   7.484  17.629  0.00  0.00    +0.000 C 
ENDROOT
BRANCH   2   7
ATOM      7  N   UNL     1       6.916   4.106  18.241  0.00  0.00    +0.000 N 
ATOM      8  H   UNL     1       7.583   4.086  19.010  0.00  0.00    +0.000 HD
ATOM      9  H   UNL     1       7.329   4.001  17.318  0.00  0.00    +0.000 HD
ENDBRANCH   2   7
BRANCH   1  10
ATOM     10  C   UNL     1       6.118   6.674  16.769  0.00  0.00    +0.000 C 
ATOM     11  O   UNL     1       6.909   7.565  17.058  0.00  0.00    +0.000 OA
BRANCH  10  12
ATOM     12  O   UNL     1       5.808   6.339  15.478  0.00  0.00    +0.000 OA
BRANCH  12  14
ATOM     13  C   UNL     1       5.578   4.225  14.404  0.00  0.00    +0.000 C 
ATOM     14  C   UNL     1       6.565   5.262  14.911  0.00  0.00    +0.000 C 
ENDBRANCH  12  14
ENDBRANCH  10  12
ENDBRANCH   1  10
BRANCH   4  15
ATOM     15  C   UNL     1       2.188   5.312  19.812  0.00  0.00    +0.000 C 
ATOM     16  O   UNL     1       1.774   6.128  20.630  0.00  0.00    +0.000 OA
BRANCH  15  17
ATOM     17  O   UNL     1       1.470   4.228  19.401  0.00  0.00    +0.000 OA
ATOM     18  C   UNL     1       0.994   3.409  20.470  0.00  0.00    +0.000 C 
ENDBRANCH  15  17
ENDBRANCH   4  15
TORSDOF 6
ENDMDL
MODEL 9
REMARK VINA RESULT:      -5.7      1.626      5.284
REMARK  Name = 
REMARK  9 active torsions:
REMARK  status: ('A' for Active; 'I' for Inactive)
REMARK    1  A    between atoms: C_1  and  C_2
REMARK    2  A    between atoms: C_2  and  O_3
REMARK    3  A    between atoms: O_3  and  C_4
REMARK    4  A    between atoms: C_4  and  C_6
REMARK    5  A    between atoms: C_7  and  N_8
REMARK    6  A    between atoms: C_10  and  C_11
REMARK    7  A    between atoms: C_11  and  O_13
REMARK    8  A    between atoms: O_13  and  C_14
REMARK    9  A    between atoms: C_15  and  C_16
REMARK                            x       y       z     vdW  Elec       q    Type
REMARK                         _______ _______ _______ _____ _____    ______ ____
ROOT
ATOM      1  C   UNL     1       3.701   4.787  19.044  0.00  0.00    +0.000 A 
ATOM      2  C   UNL     1       4.723   3.849  18.990  0.00  0.00    +0.000 A 
ATOM      3  S   UNL     1       5.931   4.269  17.874  0.00  0.00    +0.000 S 
ATOM      4  C   UNL     1       5.124   5.694  17.388  0.00  0.00    +0.000 A 
ATOM      5  C   UNL     1       3.944   5.886  18.103  0.00  0.00    +0.000 A 
ATOM      6  C   UNL     1       3.030   7.074  17.996  0.00  0.00    +0.000 C 
ENDROOT
BRANCH   2   7
ATOM      7  N   UNL     1       4.869   2.713  19.706  0.00  0.00    +0.000 N 
ATOM      8  H   UNL     1       5.727   2.545  20.228  0.00  0.00    +0.000 HD
ATOM      9  H   UNL     1       4.374   1.872  19.423  0.00  0.00    +0.000 HD
ENDBRANCH   2   7
BRANCH   1  10
ATOM     10  C   UNL     1       2.563   4.716  19.977  0.00  0.00    +0.000 C 
ATOM     11  O   UNL     1       2.673   4.847  21.191  0.00  0.00    +0.000 OA
BRANCH  10  12
ATOM     12  O   UNL     1       1.385   4.387  19.363  0.00  0.00    +0.000 OA
BRANCH  12  14
ATOM     13  C   UNL     1       1.203   2.105  18.704  0.00  0.00    +0.000 C 
ATOM     14  C   UNL     1       0.806   3.134  19.748  0.00  0.00    +0.000 C 
ENDBRANCH  12  14
ENDBRANCH  10  12
ENDBRANCH   1  10
BRANCH   4  15
ATOM     15  C   UNL     1       5.772   6.481  16.352  0.00  0.00    +0.000 C 
ATOM     16  O   UNL     1       5.223   6.978  15.372  0.00  0.00    +0.000 OA
BRANCH  15  17
ATOM     17  O   UNL     1       7.095   6.652  16.638  0.00  0.00    +0.000 OA
ATOM     18  C   UNL     1       7.367   7.780  17.471  0.00  0.00    +0.000 C 
ENDBRANCH  15  17
ENDBRANCH   4  15
TORSDOF 6
ENDMDL
