MODEL 1
REMARK VINA RESULT:      -6.4      0.000      0.000
REMARK  Name = 
REMARK  9 active torsions:
REMARK  status: ('A' for Active; 'I' for Inactive)
REMARK    1  A    between atoms: C_1  and  C_2
REMARK    2  A    between atoms: C_2  and  C_3
REMARK    3  A    between atoms: C_3  and  N_4
REMARK    4  A    between atoms: N_4  and  C_5
REMARK    5  A    between atoms: C_5  and  C_6
REMARK    6  A    between atoms: C_11  and  C_12
REMARK    7  A    between atoms: C_18  and  O_19
REMARK    8  A    between atoms: O_19  and  C_20
REMARK    9  A    between atoms: N_21  and  C_22
REMARK                            x       y       z     vdW  Elec       q    Type
REMARK                         _______ _______ _______ _____ _____    ______ ____
ROOT
ATOM      1  N   UNL     1       5.772   3.894  13.386  0.00  0.00    +0.000 N 
ATOM      2  C   UNL     1       5.850   4.095  14.725  0.00  0.00    +0.000 A 
ATOM      3  N   UNL     1       4.729   4.022  15.516  0.00  0.00    +0.000 NA
ATOM      4  C   UNL     1       5.163   4.159  16.761  0.00  0.00    +0.000 A 
ATOM      5  N   UNL     1       6.517   4.417  16.677  0.00  0.00    +0.000 N 
ATOM      6  C   UNL     1       7.484   4.731  17.696  0.00  0.00    +0.000 C 
ATOM      7  N   UNL     1       6.963   4.326  15.418  0.00  0.00    +0.000 NA
ENDROOT
BRANCH   4   8
ATOM      8  C   UNL     1       4.369   3.999  18.001  0.00  0.00    +0.000 A 
ATOM      9  C   UNL     1       4.182   2.700  18.526  0.00  0.00    +0.000 A 
ATOM     10  C   UNL     1       3.480   2.472  19.709  0.00  0.00    +0.000 A 
ATOM     11  C   UNL     1       2.889   3.538  20.365  0.00  0.00    +0.000 A 
ATOM     12 CL   UNL     1       1.995   3.264  21.808  0.00  0.00    +0.000 Cl
ATOM     13  C   UNL     1       3.003   4.828  19.851  0.00  0.00    +0.000 A 
ATOM     14  C   UNL     1       3.749   5.077  18.684  0.00  0.00    +0.000 A 
BRANCH  14  15
ATOM     15  O   UNL     1       3.879   6.337  18.154  0.00  0.00    +0.000 OA
ATOM     16  C   UNL     1       2.794   7.245  18.332  0.00  0.00    +0.000 C 
ENDBRANCH  14  15
ENDBRANCH   4   8
BRANCH   1  17
ATOM     17  C   UNL     1       7.002   3.686  12.625  0.00  0.00    +0.000 C 
BRANCH  17  19
ATOM     18  C   UNL     1       8.426   5.816  12.655  0.00  0.00    +0.000 C 
ATOM     19  C   UNL     1       7.503   4.912  11.857  0.00  0.00    +0.000 C 
ENDBRANCH  17  19
ENDBRANCH   1  17
BRANCH   1  20
ATOM     20  C   UNL     1       4.451   3.906  12.750  0.00  0.00    +0.000 C 
BRANCH  20  21
ATOM     21  C   UNL     1       4.440   3.326  11.361  0.00  0.00    +0.000 C 
ATOM     22  C   UNL     1       3.216   2.606  10.856  0.00  0.00    +0.000 C 
ATOM     23  C   UNL     1       3.607   3.921  10.248  0.00  0.00    +0.000 C 
ENDBRANCH  20  21
ENDBRANCH   1  20
TORSDOF 6
ENDMDL
MODEL 2
REMARK VINA RESULT:      -6.4      4.612      8.380
REMARK  Name = 
REMARK  9 active torsions:
REMARK  status: ('A' for Active; 'I' for Inactive)
REMARK    1  A    between atoms: C_1  and  C_2
REMARK    2  A    between atoms: C_2  and  C_3
REMARK    3  A    between atoms: C_3  and  N_4
REMARK    4  A    between atoms: N_4  and  C_5
REMARK    5  A    between atoms: C_5  and  C_6
REMARK    6  A    between atoms: C_11  and  C_12
REMARK    7  A    between atoms: C_18  and  O_19
REMARK    8  A    between atoms: O_19  and  C_20
REMARK    9  A    between atoms: N_21  and  C_22
REMARK                            x       y       z     vdW  Elec       q    Type
REMARK                         _______ _______ _______ _____ _____    ______ ____
ROOT
ATOM      1  N   UNL     1       0.873   9.197  20.564  0.00  0.00    +0.000 N 
ATOM      2  C   UNL     1       1.391   7.967  20.328  0.00  0.00    +0.000 A 
ATOM      3  N   UNL     1       1.958   7.661  19.114  0.00  0.00    +0.000 NA
ATOM      4  C   UNL     1       2.452   6.438  19.250  0.00  0.00    +0.000 A 
ATOM      5  N   UNL     1       2.075   6.002  20.505  0.00  0.00    +0.000 N 
ATOM      6  C   UNL     1       2.255   4.731  21.157  0.00  0.00    +0.000 C 
ATOM      7  N   UNL     1       1.460   6.965  21.202  0.00  0.00    +0.000 NA
ENDROOT
BRANCH   4   8
ATOM      8  C   UNL     1       3.300   5.709  18.279  0.00  0.00    +0.000 A 
ATOM      9  C   UNL     1       4.573   6.232  17.961  0.00  0.00    +0.000 A 
ATOM     10  C   UNL     1       5.444   5.584  17.085  0.00  0.00    +0.000 A 
ATOM     11  C   UNL     1       5.032   4.423  16.453  0.00  0.00    +0.000 A 
ATOM     12 CL   UNL     1       6.087   3.632  15.348  0.00  0.00    +0.000 Cl
ATOM     13  C   UNL     1       3.763   3.904  16.696  0.00  0.00    +0.000 A 
ATOM     14  C   UNL     1       2.894   4.524  17.614  0.00  0.00    +0.000 A 
BRANCH  14  15
ATOM     15  O   UNL     1       1.636   4.035  17.875  0.00  0.00    +0.000 OA
ATOM     16  C   UNL     1       1.533   2.691  18.341  0.00  0.00    +0.000 C 
ENDBRANCH  14  15
ENDBRANCH   4   8
BRANCH   1  17
ATOM     17  C   UNL     1       0.550   9.582  21.936  0.00  0.00    +0.000 C 
BRANCH  17  19
ATOM     18  C   UNL     1      -1.234  11.027  23.074  0.00  0.00    +0.000 C 
ATOM     19  C   UNL     1      -0.080  10.969  22.089  0.00  0.00    +0.000 C 
ENDBRANCH  17  19
ENDBRANCH   1  17
BRANCH   1  20
ATOM     20  C   UNL     1       0.644  10.093  19.426  0.00  0.00    +0.000 C 
BRANCH  20  21
ATOM     21  C   UNL     1      -0.789  10.136  18.964  0.00  0.00    +0.000 C 
ATOM     22  C   UNL     1      -1.296  11.331  18.199  0.00  0.00    +0.000 C 
ATOM     23  C   UNL     1      -1.167  10.006  17.506  0.00  0.00    +0.000 C 
ENDBRANCH  20  21
ENDBRANCH   1  20
TORSDOF 6
ENDMDL
MODEL 3
REMARK VINA RESULT:      -6.3      4.647      8.067
REMARK  Name = 
REMARK  9 active torsions:
REMARK  status: ('A' for Active; 'I' for Inactive)
REMARK    1  A    between atoms: C_1  and  C_2
REMARK    2  A    between atoms: C_2  and  C_3
REMARK    3  A    between atoms: C_3  and  N_4
REMARK    4  A    between atoms: N_4  and  C_5
REMARK    5  A    between atoms: C_5  and  C_6
REMARK    6  A    between atoms: C_11  and  C_12
REMARK    7  A    between atoms: C_18  and  O_19
REMARK    8  A    between atoms: O_19  and  C_20
REMARK    9  A    between atoms: N_21  and  C_22
REMARK                            x       y       z     vdW  Elec       q    Type
REMARK                         _______ _______ _______ _____ _____    ______ ____
ROOT
ATOM      1  N   UNL     1       0.831   9.401  19.540  0.00  0.00    +0.000 N 
ATOM      2  C   UNL     1       1.746   8.539  19.031  0.00  0.00    +0.000 A 
ATOM      3  N   UNL     1       1.813   7.239  19.473  0.00  0.00    +0.000 NA
ATOM      4  C   UNL     1       2.725   6.651  18.710  0.00  0.00    +0.000 A 
ATOM      5  N   UNL     1       3.256   7.639  17.904  0.00  0.00    +0.000 N 
ATOM      6  C   UNL     1       4.330   7.601  16.947  0.00  0.00    +0.000 C 
ATOM      7  N   UNL     1       2.617   8.805  18.060  0.00  0.00    +0.000 NA
ENDROOT
BRANCH   4   8
ATOM      8  C   UNL     1       3.059   5.209  18.677  0.00  0.00    +0.000 A 
ATOM      9  C   UNL     1       2.107   4.302  18.161  0.00  0.00    +0.000 A 
ATOM     10  C   UNL     1       2.363   2.934  18.062  0.00  0.00    +0.000 A 
ATOM     11  C   UNL     1       3.560   2.431  18.541  0.00  0.00    +0.000 A 
ATOM     12 CL   UNL     1       3.873   0.742  18.452  0.00  0.00    +0.000 Cl
ATOM     13  C   UNL     1       4.504   3.284  19.108  0.00  0.00    +0.000 A 
ATOM     14  C   UNL     1       4.276   4.672  19.170  0.00  0.00    +0.000 A 
BRANCH  14  15
ATOM     15  O   UNL     1       5.188   5.539  19.723  0.00  0.00    +0.000 OA
ATOM     16  C   UNL     1       6.514   5.526  19.199  0.00  0.00    +0.000 C 
ENDBRANCH  14  15
ENDBRANCH   4   8
BRANCH   1  17
ATOM     17  C   UNL     1       0.589  10.669  18.854  0.00  0.00    +0.000 C 
BRANCH  17  19
ATOM     18  C   UNL     1      -1.595  10.153  17.619  0.00  0.00    +0.000 C 
ATOM     19  C   UNL     1      -0.886  11.019  18.644  0.00  0.00    +0.000 C 
ENDBRANCH  17  19
ENDBRANCH   1  17
BRANCH   1  20
ATOM     20  C   UNL     1       0.127   9.031  20.771  0.00  0.00    +0.000 C 
BRANCH  20  21
ATOM     21  C   UNL     1       0.462   9.906  21.950  0.00  0.00    +0.000 C 
ATOM     22  C   UNL     1      -0.621  10.713  22.619  0.00  0.00    +0.000 C 
ATOM     23  C   UNL     1       0.014   9.569  23.354  0.00  0.00    +0.000 C 
ENDBRANCH  20  21
ENDBRANCH   1  20
TORSDOF 6
ENDMDL
MODEL 4
REMARK VINA RESULT:      -6.2      2.470      5.030
REMARK  Name = 
REMARK  9 active torsions:
REMARK  status: ('A' for Active; 'I' for Inactive)
REMARK    1  A    between atoms: C_1  and  C_2
REMARK    2  A    between atoms: C_2  and  C_3
REMARK    3  A    between atoms: C_3  and  N_4
REMARK    4  A    between atoms: N_4  and  C_5
REMARK    5  A    between atoms: C_5  and  C_6
REMARK    6  A    between atoms: C_11  and  C_12
REMARK    7  A    between atoms: C_18  and  O_19
REMARK    8  A    between atoms: O_19  and  C_20
REMARK    9  A    between atoms: N_21  and  C_22
REMARK                            x       y       z     vdW  Elec       q    Type
REMARK                         _______ _______ _______ _____ _____    ______ ____
ROOT
ATOM      1  N   UNL     1       6.195   4.568  16.160  0.00  0.00    +0.000 N 
ATOM      2  C   UNL     1       4.997   4.742  16.770  0.00  0.00    +0.000 A 
ATOM      3  N   UNL     1       4.782   5.809  17.611  0.00  0.00    +0.000 NA
ATOM      4  C   UNL     1       3.502   5.742  17.948  0.00  0.00    +0.000 A 
ATOM      5  N   UNL     1       3.009   4.580  17.388  0.00  0.00    +0.000 N 
ATOM      6  C   UNL     1       1.716   3.956  17.490  0.00  0.00    +0.000 C 
ATOM      7  N   UNL     1       3.919   3.979  16.611  0.00  0.00    +0.000 NA
ENDROOT
BRANCH   4   8
ATOM      8  C   UNL     1       2.732   6.749  18.715  0.00  0.00    +0.000 A 
ATOM      9  C   UNL     1       2.429   7.985  18.100  0.00  0.00    +0.000 A 
ATOM     10  C   UNL     1       1.676   8.968  18.743  0.00  0.00    +0.000 A 
ATOM     11  C   UNL     1       1.262   8.762  20.047  0.00  0.00    +0.000 A 
ATOM     12 CL   UNL     1       0.359   9.980  20.860  0.00  0.00    +0.000 Cl
ATOM     13  C   UNL     1       1.587   7.579  20.709  0.00  0.00    +0.000 A 
ATOM     14  C   UNL     1       2.305   6.561  20.054  0.00  0.00    +0.000 A 
BRANCH  14  15
ATOM     15  O   UNL     1       2.639   5.384  20.679  0.00  0.00    +0.000 OA
ATOM     16  C   UNL     1       1.589   4.462  20.957  0.00  0.00    +0.000 C 
ENDBRANCH  14  15
ENDBRANCH   4   8
BRANCH   1  17
ATOM     17  C   UNL     1       6.301   3.612  15.060  0.00  0.00    +0.000 C 
BRANCH  17  19
ATOM     18  C   UNL     1       5.944   3.381  12.533  0.00  0.00    +0.000 C 
ATOM     19  C   UNL     1       6.467   4.237  13.672  0.00  0.00    +0.000 C 
ENDBRANCH  17  19
ENDBRANCH   1  17
BRANCH   1  20
ATOM     20  C   UNL     1       7.346   5.341  16.637  0.00  0.00    +0.000 C 
BRANCH  20  21
ATOM     21  C   UNL     1       6.975   6.488  17.540  0.00  0.00    +0.000 C 
ATOM     22  C   UNL     1       7.937   6.946  18.606  0.00  0.00    +0.000 C 
ATOM     23  C   UNL     1       7.644   7.840  17.437  0.00  0.00    +0.000 C 
ENDBRANCH  20  21
ENDBRANCH   1  20
TORSDOF 6
ENDMDL
MODEL 5
REMARK VINA RESULT:      -6.2      1.001      1.171
REMARK  Name = 
REMARK  9 active torsions:
REMARK  status: ('A' for Active; 'I' for Inactive)
REMARK    1  A    between atoms: C_1  and  C_2
REMARK    2  A    between atoms: C_2  and  C_3
REMARK    3  A    between atoms: C_3  and  N_4
REMARK    4  A    between atoms: N_4  and  C_5
REMARK    5  A    between atoms: C_5  and  C_6
REMARK    6  A    between atoms: C_11  and  C_12
REMARK    7  A    between atoms: C_18  and  O_19
REMARK    8  A    between atoms: O_19  and  C_20
REMARK    9  A    between atoms: N_21  and  C_22
REMARK                            x       y       z     vdW  Elec       q    Type
REMARK                         _______ _______ _______ _____ _____    ______ ____
ROOT
ATOM      1  N   UNL     1       6.162   4.201  14.274  0.00  0.00    +0.000 N 
ATOM      2  C   UNL     1       5.965   4.418  15.598  0.00  0.00    +0.000 A 
ATOM      3  N   UNL     1       4.780   4.068  16.201  0.00  0.00    +0.000 NA
ATOM      4  C   UNL     1       4.954   4.311  17.493  0.00  0.00    +0.000 A 
ATOM      5  N   UNL     1       6.197   4.899  17.617  0.00  0.00    +0.000 N 
ATOM      6  C   UNL     1       6.873   5.447  18.763  0.00  0.00    +0.000 C 
ATOM      7  N   UNL     1       6.854   4.921  16.450  0.00  0.00    +0.000 NA
ENDROOT
BRANCH   4   8
ATOM      8  C   UNL     1       4.029   3.959  18.595  0.00  0.00    +0.000 A 
ATOM      9  C   UNL     1       4.329   2.839  19.402  0.00  0.00    +0.000 A 
ATOM     10  C   UNL     1       3.527   2.467  20.482  0.00  0.00    +0.000 A 
ATOM     11  C   UNL     1       2.365   3.174  20.740  0.00  0.00    +0.000 A 
ATOM     12 CL   UNL     1       1.354   2.705  22.051  0.00  0.00    +0.000 Cl
ATOM     13  C   UNL     1       2.004   4.251  19.934  0.00  0.00    +0.000 A 
ATOM     14  C   UNL     1       2.829   4.664  18.871  0.00  0.00    +0.000 A 
BRANCH  14  15
ATOM     15  O   UNL     1       2.500   5.723  18.060  0.00  0.00    +0.000 OA
ATOM     16  C   UNL     1       2.711   7.037  18.570  0.00  0.00    +0.000 C 
ENDBRANCH  14  15
ENDBRANCH   4   8
BRANCH   1  17
ATOM     17  C   UNL     1       7.514   4.306  13.730  0.00  0.00    +0.000 C 
BRANCH  17  19
ATOM     18  C   UNL     1       7.953   5.948  11.812  0.00  0.00    +0.000 C 
ATOM     19  C   UNL     1       7.936   5.717  13.312  0.00  0.00    +0.000 C 
ENDBRANCH  17  19
ENDBRANCH   1  17
BRANCH   1  20
ATOM     20  C   UNL     1       5.004   3.881  13.434  0.00  0.00    +0.000 C 
BRANCH  20  21
ATOM     21  C   UNL     1       5.360   3.546  12.010  0.00  0.00    +0.000 C 
ATOM     22  C   UNL     1       5.476   2.105  11.583  0.00  0.00    +0.000 C 
ATOM     23  C   UNL     1       4.356   2.949  11.050  0.00  0.00    +0.000 C 
ENDBRANCH  20  21
ENDBRANCH   1  20
TORSDOF 6
ENDMDL
MODEL 6
REMARK VINA RESULT:      -6.2      4.626      8.491
REMARK  Name = 
REMARK  9 active torsions:
REMARK  status: ('A' for Active; 'I' for Inactive)
REMARK    1  A    between atoms: C_1  and  C_2
REMARK    2  A    between atoms: C_2  and  C_3
REMARK    3  A    between atoms: C_3  and  N_4
REMARK    4  A    between atoms: N_4  and  C_5
REMARK    5  A    between atoms: C_5  and  C_6
REMARK    6  A    between atoms: C_11  and  C_12
REMARK    7  A    between atoms: C_18  and  O_19
REMARK    8  A    between atoms: O_19  and  C_20
REMARK    9  A    between atoms: N_21  and  C_22
REMARK                            x       y       z     vdW  Elec       q    Type
REMARK                         _______ _______ _______ _____ _____    ______ ____
ROOT
ATOM      1  N   UNL     1       1.111   9.644  20.181  0.00  0.00    +0.000 N 
ATOM      2  C   UNL     1       1.562   8.380  19.989  0.00  0.00    +0.000 A 
ATOM      3  N   UNL     1       2.148   8.013  18.800  0.00  0.00    +0.000 NA
ATOM      4  C   UNL     1       2.564   6.767  18.979  0.00  0.00    +0.000 A 
ATOM      5  N   UNL     1       2.124   6.383  20.230  0.00  0.00    +0.000 N 
ATOM      6  C   UNL     1       2.208   5.120  20.914  0.00  0.00    +0.000 C 
ATOM      7  N   UNL     1       1.545   7.397  20.885  0.00  0.00    +0.000 NA
ENDROOT
BRANCH   4   8
ATOM      8  C   UNL     1       3.397   5.968  18.051  0.00  0.00    +0.000 A 
ATOM      9  C   UNL     1       4.596   6.530  17.558  0.00  0.00    +0.000 A 
ATOM     10  C   UNL     1       5.452   5.825  16.711  0.00  0.00    +0.000 A 
ATOM     11  C   UNL     1       5.093   4.558  16.284  0.00  0.00    +0.000 A 
ATOM     12 CL   UNL     1       6.127   3.693  15.215  0.00  0.00    +0.000 Cl
ATOM     13  C   UNL     1       3.892   3.989  16.703  0.00  0.00    +0.000 A 
ATOM     14  C   UNL     1       3.044   4.672  17.594  0.00  0.00    +0.000 A 
BRANCH  14  15
ATOM     15  O   UNL     1       1.854   4.137  18.025  0.00  0.00    +0.000 OA
ATOM     16  C   UNL     1       1.758   2.717  18.106  0.00  0.00    +0.000 C 
ENDBRANCH  14  15
ENDBRANCH   4   8
BRANCH   1  17
ATOM     17  C   UNL     1       0.770  10.079  21.534  0.00  0.00    +0.000 C 
BRANCH  17  19
ATOM     18  C   UNL     1      -1.009  11.505  22.703  0.00  0.00    +0.000 C 
ATOM     19  C   UNL     1      -0.720  10.340  21.774  0.00  0.00    +0.000 C 
ENDBRANCH  17  19
ENDBRANCH   1  17
BRANCH   1  20
ATOM     20  C   UNL     1       0.970  10.525  19.018  0.00  0.00    +0.000 C 
BRANCH  20  21
ATOM     21  C   UNL     1       1.552  11.899  19.222  0.00  0.00    +0.000 C 
ATOM     22  C   UNL     1       2.391  12.528  18.139  0.00  0.00    +0.000 C 
ATOM     23  C   UNL     1       1.046  13.106  18.467  0.00  0.00    +0.000 C 
ENDBRANCH  20  21
ENDBRANCH   1  20
TORSDOF 6
ENDMDL
MODEL 7
REMARK VINA RESULT:      -6.2      2.778      5.236
REMARK  Name = 
REMARK  9 active torsions:
REMARK  status: ('A' for Active; 'I' for Inactive)
REMARK    1  A    between atoms: C_1  and  C_2
REMARK    2  A    between atoms: C_2  and  C_3
REMARK    3  A    between atoms: C_3  and  N_4
REMARK    4  A    between atoms: N_4  and  C_5
REMARK    5  A    between atoms: C_5  and  C_6
REMARK    6  A    between atoms: C_11  and  C_12
REMARK    7  A    between atoms: C_18  and  O_19
REMARK    8  A    between atoms: O_19  and  C_20
REMARK    9  A    between atoms: N_21  and  C_22
REMARK                            x       y       z     vdW  Elec       q    Type
REMARK                         _______ _______ _______ _____ _____    ______ ____
ROOT
ATOM      1  N   UNL     1       6.057   4.841  17.300  0.00  0.00    +0.000 N 
ATOM      2  C   UNL     1       4.778   5.005  17.718  0.00  0.00    +0.000 A 
ATOM      3  N   UNL     1       4.460   5.947  18.668  0.00  0.00    +0.000 NA
ATOM      4  C   UNL     1       3.139   5.919  18.767  0.00  0.00    +0.000 A 
ATOM      5  N   UNL     1       2.706   4.890  17.955  0.00  0.00    +0.000 N 
ATOM      6  C   UNL     1       1.391   4.349  17.736  0.00  0.00    +0.000 C 
ATOM      7  N   UNL     1       3.714   4.350  17.258  0.00  0.00    +0.000 NA
ENDROOT
BRANCH   4   8
ATOM      8  C   UNL     1       2.287   6.852  19.542  0.00  0.00    +0.000 A 
ATOM      9  C   UNL     1       1.694   6.395  20.740  0.00  0.00    +0.000 A 
ATOM     10  C   UNL     1       0.911   7.224  21.543  0.00  0.00    +0.000 A 
ATOM     11  C   UNL     1       0.650   8.520  21.130  0.00  0.00    +0.000 A 
ATOM     12 CL   UNL     1      -0.340   9.542  22.098  0.00  0.00    +0.000 Cl
ATOM     13  C   UNL     1       1.171   8.992  19.927  0.00  0.00    +0.000 A 
ATOM     14  C   UNL     1       2.000   8.179  19.132  0.00  0.00    +0.000 A 
BRANCH  14  15
ATOM     15  O   UNL     1       2.529   8.617  17.942  0.00  0.00    +0.000 OA
ATOM     16  C   UNL     1       2.354   9.992  17.608  0.00  0.00    +0.000 C 
ENDBRANCH  14  15
ENDBRANCH   4   8
BRANCH   1  17
ATOM     17  C   UNL     1       6.317   4.054  16.096  0.00  0.00    +0.000 C 
BRANCH  17  19
ATOM     18  C   UNL     1       6.181   3.926  13.541  0.00  0.00    +0.000 C 
ATOM     19  C   UNL     1       6.121   4.805  14.777  0.00  0.00    +0.000 C 
ENDBRANCH  17  19
ENDBRANCH   1  17
BRANCH   1  20
ATOM     20  C   UNL     1       7.135   5.453  18.082  0.00  0.00    +0.000 C 
BRANCH  20  21
ATOM     21  C   UNL     1       7.748   6.664  17.429  0.00  0.00    +0.000 C 
ATOM     22  C   UNL     1       6.965   7.949  17.345  0.00  0.00    +0.000 C 
ATOM     23  C   UNL     1       8.178   7.875  18.226  0.00  0.00    +0.000 C 
ENDBRANCH  20  21
ENDBRANCH   1  20
TORSDOF 6
ENDMDL
MODEL 8
REMARK VINA RESULT:      -6.1      1.052      1.493
REMARK  Name = 
REMARK  9 active torsions:
REMARK  status: ('A' for Active; 'I' for Inactive)
REMARK    1  A    between atoms: C_1  and  C_2
REMARK    2  A    between atoms: C_2  and  C_3
REMARK    3  A    between atoms: C_3  and  N_4
REMARK    4  A    between atoms: N_4  and  C_5
REMARK    5  A    between atoms: C_5  and  C_6
REMARK    6  A    between atoms: C_11  and  C_12
REMARK    7  A    between atoms: C_18  and  O_19
REMARK    8  A    between atoms: O_19  and  C_20
REMARK    9  A    between atoms: N_21  and  C_22
REMARK                            x       y       z     vdW  Elec       q    Type
REMARK                         _______ _______ _______ _____ _____    ______ ____
ROOT
ATOM      1  N   UNL     1       5.543   3.705  12.651  0.00  0.00    +0.000 N 
ATOM      2  C   UNL     1       5.720   3.962  13.970  0.00  0.00    +0.000 A 
ATOM      3  N   UNL     1       4.670   3.877  14.853  0.00  0.00    +0.000 NA
ATOM      4  C   UNL     1       5.197   4.080  16.053  0.00  0.00    +0.000 A 
ATOM      5  N   UNL     1       6.528   4.387  15.849  0.00  0.00    +0.000 N 
ATOM      6  C   UNL     1       7.560   4.779  16.772  0.00  0.00    +0.000 C 
ATOM      7  N   UNL     1       6.874   4.264  14.561  0.00  0.00    +0.000 NA
ENDROOT
BRANCH   4   8
ATOM      8  C   UNL     1       4.513   3.938  17.359  0.00  0.00    +0.000 A 
ATOM      9  C   UNL     1       4.026   2.667  17.736  0.00  0.00    +0.000 A 
ATOM     10  C   UNL     1       3.405   2.445  18.966  0.00  0.00    +0.000 A 
ATOM     11  C   UNL     1       3.198   3.512  19.824  0.00  0.00    +0.000 A 
ATOM     12 CL   UNL     1       2.406   3.256  21.329  0.00  0.00    +0.000 Cl
ATOM     13  C   UNL     1       3.614   4.792  19.466  0.00  0.00    +0.000 A 
ATOM     14  C   UNL     1       4.284   5.019  18.248  0.00  0.00    +0.000 A 
BRANCH  14  15
ATOM     15  O   UNL     1       4.706   6.270  17.868  0.00  0.00    +0.000 OA
ATOM     16  C   UNL     1       3.708   7.233  17.541  0.00  0.00    +0.000 C 
ENDBRANCH  14  15
ENDBRANCH   4   8
BRANCH   1  17
ATOM     17  C   UNL     1       6.715   3.515  11.799  0.00  0.00    +0.000 C 
BRANCH  17  19
ATOM     18  C   UNL     1       6.351   1.111  10.991  0.00  0.00    +0.000 C 
ATOM     19  C   UNL     1       7.247   2.080  11.741  0.00  0.00    +0.000 C 
ENDBRANCH  17  19
ENDBRANCH   1  17
BRANCH   1  20
ATOM     20  C   UNL     1       4.176   3.640  12.125  0.00  0.00    +0.000 C 
BRANCH  20  21
ATOM     21  C   UNL     1       4.102   3.627  10.621  0.00  0.00    +0.000 C 
ATOM     22  C   UNL     1       2.988   2.883   9.930  0.00  0.00    +0.000 C 
ATOM     23  C   UNL     1       3.035   4.382   9.862  0.00  0.00    +0.000 C 
ENDBRANCH  20  21
ENDBRANCH   1  20
TORSDOF 6
ENDMDL
MODEL 9
REMARK VINA RESULT:      -6.0      4.649      7.956
REMARK  Name = 
REMARK  9 active torsions:
REMARK  status: ('A' for Active; 'I' for Inactive)
REMARK    1  A    between atoms: C_1  and  C_2
REMARK    2  A    between atoms: C_2  and  C_3
REMARK    3  A    between atoms: C_3  and  N_4
REMARK    4  A    between atoms: N_4  and  C_5
REMARK    5  A    between atoms: C_5  and  C_6
REMARK    6  A    between atoms: C_11  and  C_12
REMARK    7  A    between atoms: C_18  and  O_19
REMARK    8  A    between atoms: O_19  and  C_20
REMARK    9  A    between atoms: N_21  and  C_22
REMARK                            x       y       z     vdW  Elec       q    Type
REMARK                         _______ _______ _______ _____ _____    ______ ____
ROOT
ATOM      1  N   UNL     1       0.824   9.466  19.499  0.00  0.00    +0.000 N 
ATOM      2  C   UNL     1       1.734   8.596  18.997  0.00  0.00    +0.000 A 
ATOM      3  N   UNL     1       1.790   7.296  19.441  0.00  0.00    +0.000 NA
ATOM      4  C   UNL     1       2.700   6.700  18.684  0.00  0.00    +0.000 A 
ATOM      5  N   UNL     1       3.242   7.681  17.878  0.00  0.00    +0.000 N 
ATOM      6  C   UNL     1       4.320   7.633  16.926  0.00  0.00    +0.000 C 
ATOM      7  N   UNL     1       2.611   8.852  18.029  0.00  0.00    +0.000 NA
ENDROOT
BRANCH   4   8
ATOM      8  C   UNL     1       3.023   5.255  18.657  0.00  0.00    +0.000 A 
ATOM      9  C   UNL     1       2.065   4.353  18.142  0.00  0.00    +0.000 A 
ATOM     10  C   UNL     1       2.311   2.983  18.048  0.00  0.00    +0.000 A 
ATOM     11  C   UNL     1       3.504   2.473  18.530  0.00  0.00    +0.000 A 
ATOM     12 CL   UNL     1       3.804   0.781  18.446  0.00  0.00    +0.000 Cl
ATOM     13  C   UNL     1       4.453   3.321  19.096  0.00  0.00    +0.000 A 
ATOM     14  C   UNL     1       4.235   4.710  19.153  0.00  0.00    +0.000 A 
BRANCH  14  15
ATOM     15  O   UNL     1       5.153   5.572  19.705  0.00  0.00    +0.000 OA
ATOM     16  C   UNL     1       6.488   5.524  19.206  0.00  0.00    +0.000 C 
ENDBRANCH  14  15
ENDBRANCH   4   8
BRANCH   1  17
ATOM     17  C   UNL     1       0.594  10.733  18.809  0.00  0.00    +0.000 C 
BRANCH  17  19
ATOM     18  C   UNL     1       2.351  12.513  18.249  0.00  0.00    +0.000 C 
ATOM     19  C   UNL     1       1.447  11.904  19.306  0.00  0.00    +0.000 C 
ENDBRANCH  17  19
ENDBRANCH   1  17
BRANCH   1  20
ATOM     20  C   UNL     1       0.111   9.104  20.728  0.00  0.00    +0.000 C 
BRANCH  20  21
ATOM     21  C   UNL     1       0.459   9.969  21.910  0.00  0.00    +0.000 C 
ATOM     22  C   UNL     1      -0.567  10.916  22.477  0.00  0.00    +0.000 C 
ATOM     23  C   UNL     1      -0.127   9.729  23.283  0.00  0.00    +0.000 C 
ENDBRANCH  20  21
ENDBRANCH   1  20
TORSDOF 6
ENDMDL
