MODEL 1
REMARK VINA RESULT:      -7.0      0.000      0.000
REMARK  Name = 
REMARK  4 active torsions:
REMARK  status: ('A' for Active; 'I' for Inactive)
REMARK    1  A    between atoms: C_1  and  C_2
REMARK    2  A    between atoms: C_6  and  C_7
REMARK    3  A    between atoms: C_13  and  C_14
REMARK    4  A    between atoms: C_17  and  N_18
REMARK                            x       y       z     vdW  Elec       q    Type
REMARK                         _______ _______ _______ _____ _____    ______ ____
ROOT
ATOM      1  C   UNL     1      -1.312  11.752  20.011  0.00  0.00    +0.000 A 
ATOM      2  C   UNL     1      -0.097  11.043  19.719  0.00  0.00    +0.000 A 
ATOM      3  C   UNL     1      -0.029  10.257  18.553  0.00  0.00    +0.000 A 
ATOM      4  N   UNL     1      -1.048  10.112  17.683  0.00  0.00    +0.000 NA
ATOM      5  C   UNL     1      -2.170  10.798  17.972  0.00  0.00    +0.000 A 
ATOM      6  S   UNL     1      -3.528  10.616  16.953  0.00  0.00    +0.000 S 
ATOM      7  C   UNL     1      -4.474  11.695  17.882  0.00  0.00    +0.000 A 
ATOM      8  C   UNL     1      -3.716  12.231  18.910  0.00  0.00    +0.000 A 
ATOM      9  C   UNL     1      -2.386  11.653  19.050  0.00  0.00    +0.000 A 
ATOM     10  C   UNL     1       1.215   9.474  18.176  0.00  0.00    +0.000 C 
ATOM     11  C   UNL     1       1.404   8.121  18.873  0.00  0.00    +0.000 C 
ATOM     12  C   UNL     1       1.803   8.110  20.357  0.00  0.00    +0.000 C 
ATOM     13  C   UNL     1       0.703   8.557  21.323  0.00  0.00    +0.000 C 
ATOM     14  C   UNL     1       0.863  10.000  21.806  0.00  0.00    +0.000 C 
ATOM     15  C   UNL     1       1.077  11.001  20.679  0.00  0.00    +0.000 C 
ENDROOT
BRANCH   1  21
ATOM     16  C   UNL     1      -3.914  12.315  24.236  0.00  0.00    +0.000 C 
ATOM     17  C   UNL     1      -2.709  12.721  23.432  0.00  0.00    +0.000 A 
ATOM     18  C   UNL     1      -2.063  13.931  23.679  0.00  0.00    +0.000 A 
ATOM     19  C   UNL     1      -1.171  14.434  22.745  0.00  0.00    +0.000 A 
ATOM     20  C   UNL     1      -0.990  13.772  21.526  0.00  0.00    +0.000 A 
ATOM     21  C   UNL     1      -1.532  12.499  21.286  0.00  0.00    +0.000 A 
ATOM     22  C   UNL     1      -2.335  11.964  22.310  0.00  0.00    +0.000 A 
ENDBRANCH   1  21
BRANCH   7  23
ATOM     23  C   UNL     1      -5.864  11.979  17.579  0.00  0.00    +0.000 C 
ATOM     24  N   UNL     1      -6.801  11.038  17.923  0.00  0.00    +0.000 N 
ATOM     25  O   UNL     1      -6.266  13.003  17.021  0.00  0.00    +0.000 OA
ATOM     26  H   UNL     1      -6.551  10.158  18.350  0.00  0.00    +0.000 HD
ATOM     27  H   UNL     1      -7.768  11.229  17.694  0.00  0.00    +0.000 HD
ENDBRANCH   7  23
BRANCH   8  28
ATOM     28  N   UNL     1      -4.246  13.195  19.694  0.00  0.00    +0.000 N 
ATOM     29  H   UNL     1      -4.477  13.023  20.678  0.00  0.00    +0.000 HD
ATOM     30  H   UNL     1      -4.550  14.103  19.351  0.00  0.00    +0.000 HD
ENDBRANCH   8  28
TORSDOF 3
ENDMDL
MODEL 2
REMARK VINA RESULT:      -6.8      1.200      1.368
REMARK  Name = 
REMARK  4 active torsions:
REMARK  status: ('A' for Active; 'I' for Inactive)
REMARK    1  A    between atoms: C_1  and  C_2
REMARK    2  A    between atoms: C_6  and  C_7
REMARK    3  A    between atoms: C_13  and  C_14
REMARK    4  A    between atoms: C_17  and  N_18
REMARK                            x       y       z     vdW  Elec       q    Type
REMARK                         _______ _______ _______ _____ _____    ______ ____
ROOT
ATOM      1  C   UNL     1      -2.249  12.354  20.655  0.00  0.00    +0.000 A 
ATOM      2  C   UNL     1      -0.971  11.761  20.375  0.00  0.00    +0.000 A 
ATOM      3  C   UNL     1      -0.795  11.057  19.169  0.00  0.00    +0.000 A 
ATOM      4  N   UNL     1      -1.764  10.887  18.249  0.00  0.00    +0.000 NA
ATOM      5  C   UNL     1      -2.948  11.465  18.528  0.00  0.00    +0.000 A 
ATOM      6  S   UNL     1      -4.245  11.242  17.440  0.00  0.00    +0.000 S 
ATOM      7  C   UNL     1      -5.310  12.185  18.389  0.00  0.00    +0.000 A 
ATOM      8  C   UNL     1      -4.639  12.713  19.479  0.00  0.00    +0.000 A 
ATOM      9  C   UNL     1      -3.274  12.232  19.644  0.00  0.00    +0.000 A 
ATOM     10  C   UNL     1       0.522  10.397  18.802  0.00  0.00    +0.000 C 
ATOM     11  C   UNL     1       0.791   9.022  19.425  0.00  0.00    +0.000 C 
ATOM     12  C   UNL     1       1.131   8.950  20.922  0.00  0.00    +0.000 C 
ATOM     13  C   UNL     1      -0.039   9.249  21.864  0.00  0.00    +0.000 C 
ATOM     14  C   UNL     1      -0.013  10.667  22.438  0.00  0.00    +0.000 C 
ATOM     15  C   UNL     1       0.164  11.750  21.382  0.00  0.00    +0.000 C 
ENDROOT
BRANCH   1  21
ATOM     16  C   UNL     1      -4.851  12.290  24.917  0.00  0.00    +0.000 C 
ATOM     17  C   UNL     1      -3.746  12.931  24.122  0.00  0.00    +0.000 A 
ATOM     18  C   UNL     1      -3.317  14.225  24.414  0.00  0.00    +0.000 A 
ATOM     19  C   UNL     1      -2.540  14.911  23.495  0.00  0.00    +0.000 A 
ATOM     20  C   UNL     1      -2.263  14.338  22.249  0.00  0.00    +0.000 A 
ATOM     21  C   UNL     1      -2.578  13.001  21.961  0.00  0.00    +0.000 A 
ATOM     22  C   UNL     1      -3.262  12.294  22.968  0.00  0.00    +0.000 A 
ENDBRANCH   1  21
BRANCH   7  23
ATOM     23  C   UNL     1      -6.706  12.379  18.042  0.00  0.00    +0.000 C 
ATOM     24  N   UNL     1      -7.004  12.731  16.750  0.00  0.00    +0.000 N 
ATOM     25  O   UNL     1      -7.648  12.261  18.830  0.00  0.00    +0.000 OA
ATOM     26  H   UNL     1      -6.289  12.882  16.054  0.00  0.00    +0.000 HD
ATOM     27  H   UNL     1      -7.975  12.884  16.515  0.00  0.00    +0.000 HD
ENDBRANCH   7  23
BRANCH   8  28
ATOM     28  N   UNL     1      -5.275  13.583  20.295  0.00  0.00    +0.000 N 
ATOM     29  H   UNL     1      -5.103  13.598  21.305  0.00  0.00    +0.000 HD
ATOM     30  H   UNL     1      -6.029  14.195  19.995  0.00  0.00    +0.000 HD
ENDBRANCH   8  28
TORSDOF 3
ENDMDL
MODEL 3
REMARK VINA RESULT:      -6.8      0.397      1.399
REMARK  Name = 
REMARK  4 active torsions:
REMARK  status: ('A' for Active; 'I' for Inactive)
REMARK    1  A    between atoms: C_1  and  C_2
REMARK    2  A    between atoms: C_6  and  C_7
REMARK    3  A    between atoms: C_13  and  C_14
REMARK    4  A    between atoms: C_17  and  N_18
REMARK                            x       y       z     vdW  Elec       q    Type
REMARK                         _______ _______ _______ _____ _____    ______ ____
ROOT
ATOM      1  C   UNL     1      -1.250  11.677  19.909  0.00  0.00    +0.000 A 
ATOM      2  C   UNL     1      -0.039  10.972  19.598  0.00  0.00    +0.000 A 
ATOM      3  C   UNL     1       0.013  10.186  18.431  0.00  0.00    +0.000 A 
ATOM      4  N   UNL     1      -1.019  10.039  17.577  0.00  0.00    +0.000 NA
ATOM      5  C   UNL     1      -2.138  10.722  17.883  0.00  0.00    +0.000 A 
ATOM      6  S   UNL     1      -3.511  10.537  16.885  0.00  0.00    +0.000 S 
ATOM      7  C   UNL     1      -4.445  11.614  17.830  0.00  0.00    +0.000 A 
ATOM      8  C   UNL     1      -3.672  12.151  18.846  0.00  0.00    +0.000 A 
ATOM      9  C   UNL     1      -2.339  11.576  18.965  0.00  0.00    +0.000 A 
ATOM     10  C   UNL     1       1.254   9.407  18.034  0.00  0.00    +0.000 C 
ATOM     11  C   UNL     1       1.456   8.053  18.727  0.00  0.00    +0.000 C 
ATOM     12  C   UNL     1       1.879   8.043  20.204  0.00  0.00    +0.000 C 
ATOM     13  C   UNL     1       0.792   8.486  21.188  0.00  0.00    +0.000 C 
ATOM     14  C   UNL     1       0.957   9.929  21.669  0.00  0.00    +0.000 C 
ATOM     15  C   UNL     1       1.151  10.932  20.539  0.00  0.00    +0.000 C 
ENDROOT
BRANCH   1  21
ATOM     16  C   UNL     1      -0.065  15.553  22.827  0.00  0.00    +0.000 C 
ATOM     17  C   UNL     1      -0.987  14.388  22.588  0.00  0.00    +0.000 A 
ATOM     18  C   UNL     1      -1.723  13.836  23.635  0.00  0.00    +0.000 A 
ATOM     19  C   UNL     1      -2.310  12.591  23.477  0.00  0.00    +0.000 A 
ATOM     20  C   UNL     1      -2.090  11.860  22.305  0.00  0.00    +0.000 A 
ATOM     21  C   UNL     1      -1.452  12.423  21.187  0.00  0.00    +0.000 A 
ATOM     22  C   UNL     1      -0.975  13.738  21.344  0.00  0.00    +0.000 A 
ENDBRANCH   1  21
BRANCH   7  23
ATOM     23  C   UNL     1      -5.840  11.894  17.549  0.00  0.00    +0.000 C 
ATOM     24  N   UNL     1      -6.775  10.980  17.964  0.00  0.00    +0.000 N 
ATOM     25  O   UNL     1      -6.249  12.893  16.950  0.00  0.00    +0.000 OA
ATOM     26  H   UNL     1      -6.521  10.121  18.428  0.00  0.00    +0.000 HD
ATOM     27  H   UNL     1      -7.746  11.168  17.750  0.00  0.00    +0.000 HD
ENDBRANCH   7  23
BRANCH   8  28
ATOM     28  N   UNL     1      -4.193  13.114  19.639  0.00  0.00    +0.000 N 
ATOM     29  H   UNL     1      -5.159  13.068  19.977  0.00  0.00    +0.000 HD
ATOM     30  H   UNL     1      -3.717  13.983  19.863  0.00  0.00    +0.000 HD
ENDBRANCH   8  28
TORSDOF 3
ENDMDL
MODEL 4
REMARK VINA RESULT:      -6.6      1.396      2.069
REMARK  Name = 
REMARK  4 active torsions:
REMARK  status: ('A' for Active; 'I' for Inactive)
REMARK    1  A    between atoms: C_1  and  C_2
REMARK    2  A    between atoms: C_6  and  C_7
REMARK    3  A    between atoms: C_13  and  C_14
REMARK    4  A    between atoms: C_17  and  N_18
REMARK                            x       y       z     vdW  Elec       q    Type
REMARK                         _______ _______ _______ _____ _____    ______ ____
ROOT
ATOM      1  C   UNL     1      -2.485  12.429  20.965  0.00  0.00    +0.000 A 
ATOM      2  C   UNL     1      -1.188  11.853  20.745  0.00  0.00    +0.000 A 
ATOM      3  C   UNL     1      -0.932  11.195  19.527  0.00  0.00    +0.000 A 
ATOM      4  N   UNL     1      -1.841  11.056  18.541  0.00  0.00    +0.000 NA
ATOM      5  C   UNL     1      -3.043  11.618  18.767  0.00  0.00    +0.000 A 
ATOM      6  S   UNL     1      -4.269  11.430  17.593  0.00  0.00    +0.000 S 
ATOM      7  C   UNL     1      -5.398  12.332  18.508  0.00  0.00    +0.000 A 
ATOM      8  C   UNL     1      -4.799  12.821  19.656  0.00  0.00    +0.000 A 
ATOM      9  C   UNL     1      -3.444  12.341  19.888  0.00  0.00    +0.000 A 
ATOM     10  C   UNL     1       0.410  10.556  19.219  0.00  0.00    +0.000 C 
ATOM     11  C   UNL     1       0.648   9.160  19.806  0.00  0.00    +0.000 C 
ATOM     12  C   UNL     1       0.895   9.033  21.318  0.00  0.00    +0.000 C 
ATOM     13  C   UNL     1      -0.333   9.291  22.194  0.00  0.00    +0.000 C 
ATOM     14  C   UNL     1      -0.353  10.687  22.821  0.00  0.00    +0.000 C 
ATOM     15  C   UNL     1      -0.118  11.810  21.819  0.00  0.00    +0.000 C 
ENDROOT
BRANCH   1  21
ATOM     16  C   UNL     1      -2.053  16.114  24.308  0.00  0.00    +0.000 C 
ATOM     17  C   UNL     1      -2.806  14.886  23.873  0.00  0.00    +0.000 A 
ATOM     18  C   UNL     1      -3.576  14.164  24.782  0.00  0.00    +0.000 A 
ATOM     19  C   UNL     1      -3.998  12.885  24.457  0.00  0.00    +0.000 A 
ATOM     20  C   UNL     1      -3.579  12.295  23.260  0.00  0.00    +0.000 A 
ATOM     21  C   UNL     1      -2.900  13.025  22.271  0.00  0.00    +0.000 A 
ATOM     22  C   UNL     1      -2.595  14.362  22.588  0.00  0.00    +0.000 A 
ENDBRANCH   1  21
BRANCH   7  23
ATOM     23  C   UNL     1      -6.770  12.532  18.082  0.00  0.00    +0.000 C 
ATOM     24  N   UNL     1      -7.006  12.724  16.744  0.00  0.00    +0.000 N 
ATOM     25  O   UNL     1      -7.744  12.554  18.839  0.00  0.00    +0.000 OA
ATOM     26  H   UNL     1      -6.260  12.755  16.063  0.00  0.00    +0.000 HD
ATOM     27  H   UNL     1      -7.961  12.882  16.450  0.00  0.00    +0.000 HD
ENDBRANCH   7  23
BRANCH   8  28
ATOM     28  N   UNL     1      -5.491  13.657  20.462  0.00  0.00    +0.000 N 
ATOM     29  H   UNL     1      -5.848  14.557  20.125  0.00  0.00    +0.000 HD
ATOM     30  H   UNL     1      -5.612  13.512  21.461  0.00  0.00    +0.000 HD
ENDBRANCH   8  28
TORSDOF 3
ENDMDL
MODEL 5
REMARK VINA RESULT:      -6.6      8.711     10.299
REMARK  Name = 
REMARK  4 active torsions:
REMARK  status: ('A' for Active; 'I' for Inactive)
REMARK    1  A    between atoms: C_1  and  C_2
REMARK    2  A    between atoms: C_6  and  C_7
REMARK    3  A    between atoms: C_13  and  C_14
REMARK    4  A    between atoms: C_17  and  N_18
REMARK                            x       y       z     vdW  Elec       q    Type
REMARK                         _______ _______ _______ _____ _____    ______ ____
ROOT
ATOM      1  C   UNL     1       8.381  14.319  20.759  0.00  0.00    +0.000 A 
ATOM      2  C   UNL     1       9.522  14.130  19.907  0.00  0.00    +0.000 A 
ATOM      3  C   UNL     1       9.365  14.269  18.515  0.00  0.00    +0.000 A 
ATOM      4  N   UNL     1       8.194  14.561  17.916  0.00  0.00    +0.000 NA
ATOM      5  C   UNL     1       7.144  14.748  18.737  0.00  0.00    +0.000 A 
ATOM      6  S   UNL     1       5.612  15.058  18.050  0.00  0.00    +0.000 S 
ATOM      7  C   UNL     1       4.856  15.170  19.580  0.00  0.00    +0.000 A 
ATOM      8  C   UNL     1       5.798  15.041  20.587  0.00  0.00    +0.000 A 
ATOM      9  C   UNL     1       7.137  14.696  20.129  0.00  0.00    +0.000 A 
ATOM     10  C   UNL     1      10.519  14.080  17.548  0.00  0.00    +0.000 C 
ATOM     11  C   UNL     1      10.863  12.632  17.175  0.00  0.00    +0.000 C 
ATOM     12  C   UNL     1      11.553  11.749  18.226  0.00  0.00    +0.000 C 
ATOM     13  C   UNL     1      10.663  11.330  19.400  0.00  0.00    +0.000 C 
ATOM     14  C   UNL     1      10.897  12.155  20.667  0.00  0.00    +0.000 C 
ATOM     15  C   UNL     1      10.866  13.659  20.432  0.00  0.00    +0.000 C 
ENDROOT
BRANCH   1  21
ATOM     16  C   UNL     1       6.977  11.490  24.627  0.00  0.00    +0.000 C 
ATOM     17  C   UNL     1       7.845  12.617  24.136  0.00  0.00    +0.000 A 
ATOM     18  C   UNL     1       8.351  13.564  25.025  0.00  0.00    +0.000 A 
ATOM     19  C   UNL     1       8.871  14.752  24.535  0.00  0.00    +0.000 A 
ATOM     20  C   UNL     1       8.807  15.029  23.166  0.00  0.00    +0.000 A 
ATOM     21  C   UNL     1       8.411  14.061  22.230  0.00  0.00    +0.000 A 
ATOM     22  C   UNL     1       8.004  12.820  22.757  0.00  0.00    +0.000 A 
ENDBRANCH   1  21
BRANCH   7  23
ATOM     23  C   UNL     1       3.430  15.383  19.736  0.00  0.00    +0.000 C 
ATOM     24  N   UNL     1       2.838  16.354  18.969  0.00  0.00    +0.000 N 
ATOM     25  O   UNL     1       2.709  14.761  20.521  0.00  0.00    +0.000 OA
ATOM     26  H   UNL     1       3.363  16.931  18.329  0.00  0.00    +0.000 HD
ATOM     27  H   UNL     1       1.847  16.514  19.092  0.00  0.00    +0.000 HD
ENDBRANCH   7  23
BRANCH   8  28
ATOM     28  N   UNL     1       5.422  15.213  21.874  0.00  0.00    +0.000 N 
ATOM     29  H   UNL     1       4.525  15.644  22.120  0.00  0.00    +0.000 HD
ATOM     30  H   UNL     1       6.028  15.036  22.671  0.00  0.00    +0.000 HD
ENDBRANCH   8  28
TORSDOF 3
ENDMDL
MODEL 6
REMARK VINA RESULT:      -6.5      8.768     10.424
REMARK  Name = 
REMARK  4 active torsions:
REMARK  status: ('A' for Active; 'I' for Inactive)
REMARK    1  A    between atoms: C_1  and  C_2
REMARK    2  A    between atoms: C_6  and  C_7
REMARK    3  A    between atoms: C_13  and  C_14
REMARK    4  A    between atoms: C_17  and  N_18
REMARK                            x       y       z     vdW  Elec       q    Type
REMARK                         _______ _______ _______ _____ _____    ______ ____
ROOT
ATOM      1  C   UNL     1       8.306  14.107  20.759  0.00  0.00    +0.000 A 
ATOM      2  C   UNL     1       9.495  14.050  19.956  0.00  0.00    +0.000 A 
ATOM      3  C   UNL     1       9.413  14.383  18.591  0.00  0.00    +0.000 A 
ATOM      4  N   UNL     1       8.273  14.746  17.972  0.00  0.00    +0.000 NA
ATOM      5  C   UNL     1       7.175  14.806  18.750  0.00  0.00    +0.000 A 
ATOM      6  S   UNL     1       5.679  15.198  18.027  0.00  0.00    +0.000 S 
ATOM      7  C   UNL     1       4.838  15.085  19.512  0.00  0.00    +0.000 A 
ATOM      8  C   UNL     1       5.724  14.823  20.543  0.00  0.00    +0.000 A 
ATOM      9  C   UNL     1       7.092  14.558  20.118  0.00  0.00    +0.000 A 
ATOM     10  C   UNL     1      10.622  14.342  17.674  0.00  0.00    +0.000 C 
ATOM     11  C   UNL     1      11.010  12.966  17.121  0.00  0.00    +0.000 C 
ATOM     12  C   UNL     1      11.655  11.948  18.075  0.00  0.00    +0.000 C 
ATOM     13  C   UNL     1      10.709  11.360  19.125  0.00  0.00    +0.000 C 
ATOM     14  C   UNL     1      10.859  11.999  20.507  0.00  0.00    +0.000 C 
ATOM     15  C   UNL     1      10.816  13.521  20.485  0.00  0.00    +0.000 C 
ENDROOT
BRANCH   1  21
ATOM     16  C   UNL     1       9.226  15.014  25.583  0.00  0.00    +0.000 C 
ATOM     17  C   UNL     1       8.579  14.110  24.569  0.00  0.00    +0.000 A 
ATOM     18  C   UNL     1       8.281  12.785  24.885  0.00  0.00    +0.000 A 
ATOM     19  C   UNL     1       7.987  11.890  23.869  0.00  0.00    +0.000 A 
ATOM     20  C   UNL     1       8.073  12.297  22.533  0.00  0.00    +0.000 A 
ATOM     21  C   UNL     1       8.258  13.643  22.178  0.00  0.00    +0.000 A 
ATOM     22  C   UNL     1       8.432  14.546  23.243  0.00  0.00    +0.000 A 
ENDBRANCH   1  21
BRANCH   7  23
ATOM     23  C   UNL     1       3.402  15.261  19.615  0.00  0.00    +0.000 C 
ATOM     24  N   UNL     1       2.833  16.310  18.938  0.00  0.00    +0.000 N 
ATOM     25  O   UNL     1       2.652  14.541  20.279  0.00  0.00    +0.000 OA
ATOM     26  H   UNL     1       3.382  16.966  18.400  0.00  0.00    +0.000 HD
ATOM     27  H   UNL     1       1.835  16.443  19.025  0.00  0.00    +0.000 HD
ENDBRANCH   7  23
BRANCH   8  28
ATOM     28  N   UNL     1       5.275  14.808  21.818  0.00  0.00    +0.000 N 
ATOM     29  H   UNL     1       4.420  14.308  22.082  0.00  0.00    +0.000 HD
ATOM     30  H   UNL     1       5.677  15.364  22.568  0.00  0.00    +0.000 HD
ENDBRANCH   8  28
TORSDOF 3
ENDMDL
MODEL 7
REMARK VINA RESULT:      -6.4      2.590      5.852
REMARK  Name = 
REMARK  4 active torsions:
REMARK  status: ('A' for Active; 'I' for Inactive)
REMARK    1  A    between atoms: C_1  and  C_2
REMARK    2  A    between atoms: C_6  and  C_7
REMARK    3  A    between atoms: C_13  and  C_14
REMARK    4  A    between atoms: C_17  and  N_18
REMARK                            x       y       z     vdW  Elec       q    Type
REMARK                         _______ _______ _______ _____ _____    ______ ____
ROOT
ATOM      1  C   UNL     1      -4.066  12.656  20.164  0.00  0.00    +0.000 A 
ATOM      2  C   UNL     1      -5.354  12.763  19.539  0.00  0.00    +0.000 A 
ATOM      3  C   UNL     1      -5.517  12.287  18.224  0.00  0.00    +0.000 A 
ATOM      4  N   UNL     1      -4.526  11.739  17.495  0.00  0.00    +0.000 NA
ATOM      5  C   UNL     1      -3.332  11.636  18.108  0.00  0.00    +0.000 A 
ATOM      6  S   UNL     1      -2.009  11.010  17.229  0.00  0.00    +0.000 S 
ATOM      7  C   UNL     1      -0.942  11.178  18.554  0.00  0.00    +0.000 A 
ATOM      8  C   UNL     1      -1.629  11.640  19.664  0.00  0.00    +0.000 A 
ATOM      9  C   UNL     1      -3.015  12.010  19.412  0.00  0.00    +0.000 A 
ATOM     10  C   UNL     1      -6.844  12.369  17.492  0.00  0.00    +0.000 C 
ATOM     11  C   UNL     1      -7.181  13.717  16.844  0.00  0.00    +0.000 C 
ATOM     12  C   UNL     1      -7.571  14.891  17.756  0.00  0.00    +0.000 C 
ATOM     13  C   UNL     1      -6.422  15.473  18.583  0.00  0.00    +0.000 C 
ATOM     14  C   UNL     1      -6.416  14.998  20.037  0.00  0.00    +0.000 C 
ATOM     15  C   UNL     1      -6.521  13.486  20.187  0.00  0.00    +0.000 C 
ENDROOT
BRANCH   1  21
ATOM     16  C   UNL     1      -4.581  12.518  25.129  0.00  0.00    +0.000 C 
ATOM     17  C   UNL     1      -3.883  13.137  23.949  0.00  0.00    +0.000 A 
ATOM     18  C   UNL     1      -3.279  14.389  24.055  0.00  0.00    +0.000 A 
ATOM     19  C   UNL     1      -2.926  15.078  22.906  0.00  0.00    +0.000 A 
ATOM     20  C   UNL     1      -3.252  14.555  21.651  0.00  0.00    +0.000 A 
ATOM     21  C   UNL     1      -3.756  13.253  21.497  0.00  0.00    +0.000 A 
ATOM     22  C   UNL     1      -3.988  12.534  22.685  0.00  0.00    +0.000 A 
ENDBRANCH   1  21
BRANCH   7  23
ATOM     23  C   UNL     1       0.470  10.855  18.469  0.00  0.00    +0.000 C 
ATOM     24  N   UNL     1       0.830   9.731  17.769  0.00  0.00    +0.000 N 
ATOM     25  O   UNL     1       1.373  11.511  18.993  0.00  0.00    +0.000 OA
ATOM     26  H   UNL     1       0.150   9.120  17.341  0.00  0.00    +0.000 HD
ATOM     27  H   UNL     1       1.813   9.497  17.727  0.00  0.00    +0.000 HD
ENDBRANCH   7  23
BRANCH   8  28
ATOM     28  N   UNL     1      -0.988  11.733  20.851  0.00  0.00    +0.000 N 
ATOM     29  H   UNL     1      -1.438  12.145  21.675  0.00  0.00    +0.000 HD
ATOM     30  H   UNL     1      -0.006  11.509  20.985  0.00  0.00    +0.000 HD
ENDBRANCH   8  28
TORSDOF 3
ENDMDL
MODEL 8
REMARK VINA RESULT:      -6.2      8.354     10.024
REMARK  Name = 
REMARK  4 active torsions:
REMARK  status: ('A' for Active; 'I' for Inactive)
REMARK    1  A    between atoms: C_1  and  C_2
REMARK    2  A    between atoms: C_6  and  C_7
REMARK    3  A    between atoms: C_13  and  C_14
REMARK    4  A    between atoms: C_17  and  N_18
REMARK                            x       y       z     vdW  Elec       q    Type
REMARK                         _______ _______ _______ _____ _____    ______ ____
ROOT
ATOM      1  C   UNL     1       7.788  13.961  21.421  0.00  0.00    +0.000 A 
ATOM      2  C   UNL     1       8.925  13.803  20.559  0.00  0.00    +0.000 A 
ATOM      3  C   UNL     1       8.849  14.275  19.235  0.00  0.00    +0.000 A 
ATOM      4  N   UNL     1       7.757  14.864  18.708  0.00  0.00    +0.000 NA
ATOM      5  C   UNL     1       6.710  15.013  19.541  0.00  0.00    +0.000 A 
ATOM      6  S   UNL     1       5.267  15.692  18.931  0.00  0.00    +0.000 S 
ATOM      7  C   UNL     1       4.471  15.564  20.439  0.00  0.00    +0.000 A 
ATOM      8  C   UNL     1       5.342  15.073  21.398  0.00  0.00    +0.000 A 
ATOM      9  C   UNL     1       6.637  14.649  20.884  0.00  0.00    +0.000 A 
ATOM     10  C   UNL     1      10.005  14.143  18.260  0.00  0.00    +0.000 C 
ATOM     11  C   UNL     1      10.157  12.783  17.567  0.00  0.00    +0.000 C 
ATOM     12  C   UNL     1      10.670  11.593  18.393  0.00  0.00    +0.000 C 
ATOM     13  C   UNL     1       9.681  11.055  19.431  0.00  0.00    +0.000 C 
ATOM     14  C   UNL     1       9.975  11.528  20.856  0.00  0.00    +0.000 C 
ATOM     15  C   UNL     1      10.166  13.034  20.973  0.00  0.00    +0.000 C 
ENDROOT
BRANCH   1  21
ATOM     16  C   UNL     1       9.153  14.150  26.221  0.00  0.00    +0.000 C 
ATOM     17  C   UNL     1       8.267  13.514  25.185  0.00  0.00    +0.000 A 
ATOM     18  C   UNL     1       7.703  12.259  25.404  0.00  0.00    +0.000 A 
ATOM     19  C   UNL     1       7.162  11.556  24.339  0.00  0.00    +0.000 A 
ATOM     20  C   UNL     1       7.262  12.070  23.042  0.00  0.00    +0.000 A 
ATOM     21  C   UNL     1       7.719  13.374  22.793  0.00  0.00    +0.000 A 
ATOM     22  C   UNL     1       8.147  14.106  23.917  0.00  0.00    +0.000 A 
ENDBRANCH   1  21
BRANCH   7  23
ATOM     23  C   UNL     1       3.084  15.943  20.627  0.00  0.00    +0.000 C 
ATOM     24  N   UNL     1       2.176  15.551  19.676  0.00  0.00    +0.000 N 
ATOM     25  O   UNL     1       2.660  16.606  21.578  0.00  0.00    +0.000 OA
ATOM     26  H   UNL     1       2.447  15.037  18.850  0.00  0.00    +0.000 HD
ATOM     27  H   UNL     1       1.212  15.832  19.799  0.00  0.00    +0.000 HD
ENDBRANCH   7  23
BRANCH   8  28
ATOM     28  N   UNL     1       4.940  15.004  22.687  0.00  0.00    +0.000 N 
ATOM     29  H   UNL     1       3.961  15.147  22.954  0.00  0.00    +0.000 HD
ATOM     30  H   UNL     1       5.575  14.915  23.475  0.00  0.00    +0.000 HD
ENDBRANCH   8  28
TORSDOF 3
ENDMDL
MODEL 9
REMARK VINA RESULT:      -6.2      2.524      5.455
REMARK  Name = 
REMARK  4 active torsions:
REMARK  status: ('A' for Active; 'I' for Inactive)
REMARK    1  A    between atoms: C_1  and  C_2
REMARK    2  A    between atoms: C_6  and  C_7
REMARK    3  A    between atoms: C_13  and  C_14
REMARK    4  A    between atoms: C_17  and  N_18
REMARK                            x       y       z     vdW  Elec       q    Type
REMARK                         _______ _______ _______ _____ _____    ______ ____
ROOT
ATOM      1  C   UNL     1      -2.631  12.278  19.948  0.00  0.00    +0.000 A 
ATOM      2  C   UNL     1      -3.533  12.779  20.947  0.00  0.00    +0.000 A 
ATOM      3  C   UNL     1      -4.914  12.786  20.678  0.00  0.00    +0.000 A 
ATOM      4  N   UNL     1      -5.457  12.357  19.521  0.00  0.00    +0.000 NA
ATOM      5  C   UNL     1      -4.592  11.878  18.608  0.00  0.00    +0.000 A 
ATOM      6  S   UNL     1      -5.196  11.375  17.092  0.00  0.00    +0.000 S 
ATOM      7  C   UNL     1      -3.643  10.938  16.525  0.00  0.00    +0.000 A 
ATOM      8  C   UNL     1      -2.703  11.115  17.527  0.00  0.00    +0.000 A 
ATOM      9  C   UNL     1      -3.210  11.756  18.732  0.00  0.00    +0.000 A 
ATOM     10  C   UNL     1      -5.932  13.304  21.678  0.00  0.00    +0.000 C 
ATOM     11  C   UNL     1      -6.125  14.825  21.725  0.00  0.00    +0.000 C 
ATOM     12  C   UNL     1      -5.017  15.685  22.352  0.00  0.00    +0.000 C 
ATOM     13  C   UNL     1      -3.732  15.783  21.526  0.00  0.00    +0.000 C 
ATOM     14  C   UNL     1      -2.614  14.867  22.026  0.00  0.00    +0.000 C 
ATOM     15  C   UNL     1      -3.053  13.424  22.234  0.00  0.00    +0.000 C 
ENDROOT
BRANCH   1  21
ATOM     16  C   UNL     1       1.674  14.402  18.574  0.00  0.00    +0.000 C 
ATOM     17  C   UNL     1       0.974  13.466  19.522  0.00  0.00    +0.000 A 
ATOM     18  C   UNL     1       1.688  12.490  20.215  0.00  0.00    +0.000 A 
ATOM     19  C   UNL     1       1.006  11.450  20.827  0.00  0.00    +0.000 A 
ATOM     20  C   UNL     1      -0.379  11.338  20.672  0.00  0.00    +0.000 A 
ATOM     21  C   UNL     1      -1.145  12.355  20.080  0.00  0.00    +0.000 A 
ATOM     22  C   UNL     1      -0.428  13.457  19.578  0.00  0.00    +0.000 A 
ENDBRANCH   1  21
BRANCH   7  23
ATOM     23  C   UNL     1      -3.409  10.445  15.181  0.00  0.00    +0.000 C 
ATOM     24  N   UNL     1      -4.491  10.006  14.461  0.00  0.00    +0.000 N 
ATOM     25  O   UNL     1      -2.302  10.381  14.640  0.00  0.00    +0.000 OA
ATOM     26  H   UNL     1      -5.425   9.992  14.844  0.00  0.00    +0.000 HD
ATOM     27  H   UNL     1      -4.324   9.646  13.531  0.00  0.00    +0.000 HD
ENDBRANCH   7  23
BRANCH   8  28
ATOM     28  N   UNL     1      -1.427  10.719  17.318  0.00  0.00    +0.000 N 
ATOM     29  H   UNL     1      -0.869  11.087  16.541  0.00  0.00    +0.000 HD
ATOM     30  H   UNL     1      -0.975   9.968  17.833  0.00  0.00    +0.000 HD
ENDBRANCH   8  28
TORSDOF 3
ENDMDL
