MODEL 1
REMARK VINA RESULT:      -7.5      0.000      0.000
REMARK  Name = 
REMARK  5 active torsions:
REMARK  status: ('A' for Active; 'I' for Inactive)
REMARK    1  A    between atoms: C_1  and  N_2
REMARK    2  A    between atoms: C_8  and  N_9
REMARK    3  A    between atoms: C_10  and  O_12
REMARK    4  A    between atoms: O_12  and  C_13
REMARK    5  A    between atoms: C_13  and  C_14
REMARK                            x       y       z     vdW  Elec       q    Type
REMARK                         _______ _______ _______ _____ _____    ______ ____
ROOT
ATOM      1  N   UNL     1       5.828   4.602  17.996  0.00  0.00    +0.000 N 
ATOM      2  C   UNL     1       7.180   4.687  17.882  0.00  0.00    +0.000 C 
ATOM      3  O   UNL     1       7.937   4.965  18.800  0.00  0.00    +0.000 OA
ATOM      4  H   UNL     1       5.365   4.251  17.168  0.00  0.00    +0.000 HD
ENDROOT
BRANCH   1  12
ATOM      5  C   UNL     1       3.563   1.611  17.759  0.00  0.00    +0.000 C 
ATOM      6  N   UNL     1       3.611   3.011  18.136  0.00  0.00    +0.000 N 
ATOM      7  C   UNL     1       2.529   3.802  17.752  0.00  0.00    +0.000 C 
ATOM      8  O   UNL     1       1.516   3.338  17.222  0.00  0.00    +0.000 OA
ATOM      9  C   UNL     1       2.659   5.314  17.970  0.00  0.00    +0.000 C 
ATOM     10  O   UNL     1       2.938   5.703  19.297  0.00  0.00    +0.000 OA
ATOM     11  C   UNL     1       4.326   5.802  19.605  0.00  0.00    +0.000 C 
ATOM     12  C   UNL     1       5.150   4.551  19.295  0.00  0.00    +0.000 C 
ATOM     13  C   UNL     1       4.305   3.279  19.319  0.00  0.00    +0.000 C 
ATOM     14  O   UNL     1       4.242   2.563  20.316  0.00  0.00    +0.000 OA
ENDBRANCH   1  12
BRANCH   2  15
ATOM     15  O   UNL     1       7.528   4.409  16.607  0.00  0.00    +0.000 OA
BRANCH  15  16
ATOM     16  C   UNL     1       7.197   5.405  15.632  0.00  0.00    +0.000 C 
BRANCH  16  17
ATOM     17  C   UNL     1       6.830   4.788  14.307  0.00  0.00    +0.000 A 
ATOM     18  C   UNL     1       7.643   4.976  13.179  0.00  0.00    +0.000 A 
ATOM     19  C   UNL     1       7.331   4.354  11.967  0.00  0.00    +0.000 A 
ATOM     20  C   UNL     1       6.201   3.547  11.867  0.00  0.00    +0.000 A 
ATOM     21  C   UNL     1       5.376   3.366  12.977  0.00  0.00    +0.000 A 
ATOM     22  C   UNL     1       5.687   3.987  14.188  0.00  0.00    +0.000 A 
ENDBRANCH  16  17
ENDBRANCH  15  16
ENDBRANCH   2  15
TORSDOF 4
ENDMDL
MODEL 2
REMARK VINA RESULT:      -7.3      0.407      1.096
REMARK  Name = 
REMARK  5 active torsions:
REMARK  status: ('A' for Active; 'I' for Inactive)
REMARK    1  A    between atoms: C_1  and  N_2
REMARK    2  A    between atoms: C_8  and  N_9
REMARK    3  A    between atoms: C_10  and  O_12
REMARK    4  A    between atoms: O_12  and  C_13
REMARK    5  A    between atoms: C_13  and  C_14
REMARK                            x       y       z     vdW  Elec       q    Type
REMARK                         _______ _______ _______ _____ _____    ______ ____
ROOT
ATOM      1  N   UNL     1       5.695   4.817  17.995  0.00  0.00    +0.000 N 
ATOM      2  C   UNL     1       7.035   4.680  17.818  0.00  0.00    +0.000 C 
ATOM      3  O   UNL     1       7.857   4.675  18.723  0.00  0.00    +0.000 OA
ATOM      4  H   UNL     1       5.152   4.687  17.151  0.00  0.00    +0.000 HD
ENDROOT
BRANCH   1  12
ATOM      5  C   UNL     1       3.534   1.756  17.689  0.00  0.00    +0.000 C 
ATOM      6  N   UNL     1       3.542   3.140  18.125  0.00  0.00    +0.000 N 
ATOM      7  C   UNL     1       2.421   3.905  17.806  0.00  0.00    +0.000 C 
ATOM      8  O   UNL     1       1.411   3.427  17.283  0.00  0.00    +0.000 OA
ATOM      9  C   UNL     1       2.502   5.410  18.086  0.00  0.00    +0.000 C 
ATOM     10  O   UNL     1       2.805   5.753  19.421  0.00  0.00    +0.000 OA
ATOM     11  C   UNL     1       4.197   5.890  19.696  0.00  0.00    +0.000 C 
ATOM     12  C   UNL     1       5.056   4.685  19.308  0.00  0.00    +0.000 C 
ATOM     13  C   UNL     1       4.259   3.383  19.300  0.00  0.00    +0.000 C 
ATOM     14  O   UNL     1       4.251   2.622  20.266  0.00  0.00    +0.000 OA
ENDBRANCH   1  12
BRANCH   2  15
ATOM     15  O   UNL     1       7.290   4.547  16.499  0.00  0.00    +0.000 OA
BRANCH  15  16
ATOM     16  C   UNL     1       6.296   5.068  15.609  0.00  0.00    +0.000 C 
BRANCH  16  17
ATOM     17  C   UNL     1       6.514   4.598  14.194  0.00  0.00    +0.000 A 
ATOM     18  C   UNL     1       5.664   3.642  13.617  0.00  0.00    +0.000 A 
ATOM     19  C   UNL     1       5.834   3.252  12.286  0.00  0.00    +0.000 A 
ATOM     20  C   UNL     1       6.859   3.804  11.522  0.00  0.00    +0.000 A 
ATOM     21  C   UNL     1       7.720   4.743  12.089  0.00  0.00    +0.000 A 
ATOM     22  C   UNL     1       7.551   5.134  13.419  0.00  0.00    +0.000 A 
ENDBRANCH  16  17
ENDBRANCH  15  16
ENDBRANCH   2  15
TORSDOF 4
ENDMDL
MODEL 3
REMARK VINA RESULT:      -7.1      2.167      6.162
REMARK  Name = 
REMARK  5 active torsions:
REMARK  status: ('A' for Active; 'I' for Inactive)
REMARK    1  A    between atoms: C_1  and  N_2
REMARK    2  A    between atoms: C_8  and  N_9
REMARK    3  A    between atoms: C_10  and  O_12
REMARK    4  A    between atoms: O_12  and  C_13
REMARK    5  A    between atoms: C_13  and  C_14
REMARK                            x       y       z     vdW  Elec       q    Type
REMARK                         _______ _______ _______ _____ _____    ______ ____
ROOT
ATOM      1  N   UNL     1       4.883   4.139  17.921  0.00  0.00    +0.000 N 
ATOM      2  C   UNL     1       4.040   3.155  18.330  0.00  0.00    +0.000 C 
ATOM      3  O   UNL     1       3.830   2.121  17.713  0.00  0.00    +0.000 OA
ATOM      4  H   UNL     1       5.024   4.872  18.603  0.00  0.00    +0.000 HD
ENDROOT
BRANCH   1  12
ATOM      5  C   UNL     1       7.887   6.137  18.978  0.00  0.00    +0.000 C 
ATOM      6  N   UNL     1       6.993   5.875  17.866  0.00  0.00    +0.000 N 
ATOM      7  C   UNL     1       6.582   6.977  17.118  0.00  0.00    +0.000 C 
ATOM      8  O   UNL     1       7.031   8.112  17.296  0.00  0.00    +0.000 OA
ATOM      9  C   UNL     1       5.488   6.739  16.070  0.00  0.00    +0.000 C 
ATOM     10  O   UNL     1       5.784   5.744  15.115  0.00  0.00    +0.000 OA
ATOM     11  C   UNL     1       5.360   4.432  15.476  0.00  0.00    +0.000 C 
ATOM     12  C   UNL     1       5.854   3.943  16.839  0.00  0.00    +0.000 C 
ATOM     13  C   UNL     1       7.153   4.624  17.264  0.00  0.00    +0.000 C 
ATOM     14  O   UNL     1       8.250   4.103  17.072  0.00  0.00    +0.000 OA
ENDBRANCH   1  12
BRANCH   2  15
ATOM     15  O   UNL     1       3.494   3.513  19.511  0.00  0.00    +0.000 OA
BRANCH  15  16
ATOM     16  C   UNL     1       2.132   3.957  19.469  0.00  0.00    +0.000 C 
BRANCH  16  17
ATOM     17  C   UNL     1       2.038   5.460  19.423  0.00  0.00    +0.000 A 
ATOM     18  C   UNL     1       1.724   6.193  20.578  0.00  0.00    +0.000 A 
ATOM     19  C   UNL     1       1.694   7.590  20.546  0.00  0.00    +0.000 A 
ATOM     20  C   UNL     1       1.968   8.268  19.360  0.00  0.00    +0.000 A 
ATOM     21  C   UNL     1       2.265   7.549  18.202  0.00  0.00    +0.000 A 
ATOM     22  C   UNL     1       2.295   6.153  18.233  0.00  0.00    +0.000 A 
ENDBRANCH  16  17
ENDBRANCH  15  16
ENDBRANCH   2  15
TORSDOF 4
ENDMDL
MODEL 4
REMARK VINA RESULT:      -7.1      2.302      6.177
REMARK  Name = 
REMARK  5 active torsions:
REMARK  status: ('A' for Active; 'I' for Inactive)
REMARK    1  A    between atoms: C_1  and  N_2
REMARK    2  A    between atoms: C_8  and  N_9
REMARK    3  A    between atoms: C_10  and  O_12
REMARK    4  A    between atoms: O_12  and  C_13
REMARK    5  A    between atoms: C_13  and  C_14
REMARK                            x       y       z     vdW  Elec       q    Type
REMARK                         _______ _______ _______ _____ _____    ______ ____
ROOT
ATOM      1  N   UNL     1       4.802   4.535  18.040  0.00  0.00    +0.000 N 
ATOM      2  C   UNL     1       4.643   3.892  19.227  0.00  0.00    +0.000 C 
ATOM      3  O   UNL     1       5.121   2.798  19.492  0.00  0.00    +0.000 OA
ATOM      4  H   UNL     1       4.436   5.477  18.029  0.00  0.00    +0.000 HD
ENDROOT
BRANCH   1  12
ATOM      5  C   UNL     1       7.950   6.303  19.085  0.00  0.00    +0.000 C 
ATOM      6  N   UNL     1       7.093   6.020  17.950  0.00  0.00    +0.000 N 
ATOM      7  C   UNL     1       6.850   7.074  17.069  0.00  0.00    +0.000 C 
ATOM      8  O   UNL     1       7.414   8.167  17.161  0.00  0.00    +0.000 OA
ATOM      9  C   UNL     1       5.794   6.843  15.981  0.00  0.00    +0.000 C 
ATOM     10  O   UNL     1       6.027   5.726  15.152  0.00  0.00    +0.000 OA
ATOM     11  C   UNL     1       5.439   4.512  15.615  0.00  0.00    +0.000 C 
ATOM     12  C   UNL     1       5.801   4.122  17.050  0.00  0.00    +0.000 C 
ATOM     13  C   UNL     1       7.144   4.703  17.487  0.00  0.00    +0.000 C 
ATOM     14  O   UNL     1       8.184   4.050  17.420  0.00  0.00    +0.000 OA
ENDBRANCH   1  12
BRANCH   2  15
ATOM     15  O   UNL     1       3.888   4.660  20.041  0.00  0.00    +0.000 OA
BRANCH  15  16
ATOM     16  C   UNL     1       2.535   4.881  19.624  0.00  0.00    +0.000 C 
BRANCH  16  17
ATOM     17  C   UNL     1       2.232   6.349  19.473  0.00  0.00    +0.000 A 
ATOM     18  C   UNL     1       2.402   6.993  18.238  0.00  0.00    +0.000 A 
ATOM     19  C   UNL     1       2.065   8.341  18.087  0.00  0.00    +0.000 A 
ATOM     20  C   UNL     1       1.565   9.061  19.169  0.00  0.00    +0.000 A 
ATOM     21  C   UNL     1       1.407   8.436  20.406  0.00  0.00    +0.000 A 
ATOM     22  C   UNL     1       1.743   7.089  20.558  0.00  0.00    +0.000 A 
ENDBRANCH  16  17
ENDBRANCH  15  16
ENDBRANCH   2  15
TORSDOF 4
ENDMDL
MODEL 5
REMARK VINA RESULT:      -7.0      3.212      6.343
REMARK  Name = 
REMARK  5 active torsions:
REMARK  status: ('A' for Active; 'I' for Inactive)
REMARK    1  A    between atoms: C_1  and  N_2
REMARK    2  A    between atoms: C_8  and  N_9
REMARK    3  A    between atoms: C_10  and  O_12
REMARK    4  A    between atoms: O_12  and  C_13
REMARK    5  A    between atoms: C_13  and  C_14
REMARK                            x       y       z     vdW  Elec       q    Type
REMARK                         _______ _______ _______ _____ _____    ______ ____
ROOT
ATOM      1  N   UNL     1       2.083   3.935  19.934  0.00  0.00    +0.000 N 
ATOM      2  C   UNL     1       2.049   4.549  21.145  0.00  0.00    +0.000 C 
ATOM      3  O   UNL     1       2.266   3.993  22.211  0.00  0.00    +0.000 OA
ATOM      4  H   UNL     1       1.991   4.565  19.148  0.00  0.00    +0.000 HD
ENDROOT
BRANCH   1  12
ATOM      5  C   UNL     1       5.685   4.595  19.083  0.00  0.00    +0.000 C 
ATOM      6  N   UNL     1       4.509   3.849  18.678  0.00  0.00    +0.000 N 
ATOM      7  C   UNL     1       4.247   3.783  17.310  0.00  0.00    +0.000 C 
ATOM      8  O   UNL     1       5.021   4.227  16.459  0.00  0.00    +0.000 OA
ATOM      9  C   UNL     1       2.908   3.169  16.886  0.00  0.00    +0.000 C 
ATOM     10  O   UNL     1       2.674   1.862  17.362  0.00  0.00    +0.000 OA
ATOM     11  C   UNL     1       2.008   1.800  18.620  0.00  0.00    +0.000 C 
ATOM     12  C   UNL     1       2.667   2.602  19.743  0.00  0.00    +0.000 C 
ATOM     13  C   UNL     1       4.166   2.788  19.521  0.00  0.00    +0.000 C 
ATOM     14  O   UNL     1       4.995   2.044  20.042  0.00  0.00    +0.000 OA
ENDBRANCH   1  12
BRANCH   2  15
ATOM     15  O   UNL     1       1.747   5.852  20.964  0.00  0.00    +0.000 OA
BRANCH  15  16
ATOM     16  C   UNL     1       2.525   6.551  19.985  0.00  0.00    +0.000 C 
BRANCH  16  17
ATOM     17  C   UNL     1       1.907   7.877  19.625  0.00  0.00    +0.000 A 
ATOM     18  C   UNL     1       2.031   8.397  18.328  0.00  0.00    +0.000 A 
ATOM     19  C   UNL     1       1.408   9.600  17.982  0.00  0.00    +0.000 A 
ATOM     20  C   UNL     1       0.664  10.299  18.929  0.00  0.00    +0.000 A 
ATOM     21  C   UNL     1       0.548   9.800  20.227  0.00  0.00    +0.000 A 
ATOM     22  C   UNL     1       1.170   8.599  20.573  0.00  0.00    +0.000 A 
ENDBRANCH  16  17
ENDBRANCH  15  16
ENDBRANCH   2  15
TORSDOF 4
ENDMDL
MODEL 6
REMARK VINA RESULT:      -6.9      2.919      4.123
REMARK  Name = 
REMARK  5 active torsions:
REMARK  status: ('A' for Active; 'I' for Inactive)
REMARK    1  A    between atoms: C_1  and  N_2
REMARK    2  A    between atoms: C_8  and  N_9
REMARK    3  A    between atoms: C_10  and  O_12
REMARK    4  A    between atoms: O_12  and  C_13
REMARK    5  A    between atoms: C_13  and  C_14
REMARK                            x       y       z     vdW  Elec       q    Type
REMARK                         _______ _______ _______ _____ _____    ______ ____
ROOT
ATOM      1  N   UNL     1       2.356   5.029  19.565  0.00  0.00    +0.000 N 
ATOM      2  C   UNL     1       2.392   6.352  19.874  0.00  0.00    +0.000 C 
ATOM      3  O   UNL     1       1.670   6.891  20.700  0.00  0.00    +0.000 OA
ATOM      4  H   UNL     1       3.096   4.730  18.945  0.00  0.00    +0.000 HD
ENDROOT
BRANCH   1  12
ATOM      5  C   UNL     1       4.926   2.387  20.304  0.00  0.00    +0.000 C 
ATOM      6  N   UNL     1       3.565   2.595  19.849  0.00  0.00    +0.000 N 
ATOM      7  C   UNL     1       3.133   1.810  18.781  0.00  0.00    +0.000 C 
ATOM      8  O   UNL     1       3.812   0.897  18.305  0.00  0.00    +0.000 OA
ATOM      9  C   UNL     1       1.772   2.156  18.167  0.00  0.00    +0.000 C 
ATOM     10  O   UNL     1       0.691   2.157  19.073  0.00  0.00    +0.000 OA
ATOM     11  C   UNL     1       0.440   3.416  19.693  0.00  0.00    +0.000 C 
ATOM     12  C   UNL     1       1.647   4.047  20.391  0.00  0.00    +0.000 C 
ATOM     13  C   UNL     1       2.668   3.005  20.840  0.00  0.00    +0.000 C 
ATOM     14  O   UNL     1       2.680   2.561  21.987  0.00  0.00    +0.000 OA
ENDBRANCH   1  12
BRANCH   2  15
ATOM     15  O   UNL     1       3.349   6.947  19.130  0.00  0.00    +0.000 OA
BRANCH  15  16
ATOM     16  C   UNL     1       3.321   6.666  17.726  0.00  0.00    +0.000 C 
BRANCH  16  17
ATOM     17  C   UNL     1       4.610   6.040  17.258  0.00  0.00    +0.000 A 
ATOM     18  C   UNL     1       5.824   6.735  17.363  0.00  0.00    +0.000 A 
ATOM     19  C   UNL     1       7.024   6.129  16.982  0.00  0.00    +0.000 A 
ATOM     20  C   UNL     1       7.023   4.828  16.484  0.00  0.00    +0.000 A 
ATOM     21  C   UNL     1       5.820   4.133  16.360  0.00  0.00    +0.000 A 
ATOM     22  C   UNL     1       4.620   4.738  16.740  0.00  0.00    +0.000 A 
ENDBRANCH  16  17
ENDBRANCH  15  16
ENDBRANCH   2  15
TORSDOF 4
ENDMDL
MODEL 7
REMARK VINA RESULT:      -6.9      4.191      7.916
REMARK  Name = 
REMARK  5 active torsions:
REMARK  status: ('A' for Active; 'I' for Inactive)
REMARK    1  A    between atoms: C_1  and  N_2
REMARK    2  A    between atoms: C_8  and  N_9
REMARK    3  A    between atoms: C_10  and  O_12
REMARK    4  A    between atoms: O_12  and  C_13
REMARK    5  A    between atoms: C_13  and  C_14
REMARK                            x       y       z     vdW  Elec       q    Type
REMARK                         _______ _______ _______ _____ _____    ______ ____
ROOT
ATOM      1  N   UNL     1       2.438   6.227  18.878  0.00  0.00    +0.000 N 
ATOM      2  C   UNL     1       2.250   7.540  18.585  0.00  0.00    +0.000 C 
ATOM      3  O   UNL     1       2.378   8.028  17.472  0.00  0.00    +0.000 OA
ATOM      4  H   UNL     1       2.182   5.974  19.823  0.00  0.00    +0.000 HD
ENDROOT
BRANCH   1  12
ATOM      5  C   UNL     1       1.011   3.141  20.483  0.00  0.00    +0.000 C 
ATOM      6  N   UNL     1       2.135   3.644  19.715  0.00  0.00    +0.000 N 
ATOM      7  C   UNL     1       3.401   3.196  20.090  0.00  0.00    +0.000 C 
ATOM      8  O   UNL     1       3.577   2.328  20.948  0.00  0.00    +0.000 OA
ATOM      9  C   UNL     1       4.605   3.868  19.419  0.00  0.00    +0.000 C 
ATOM     10  O   UNL     1       4.606   3.817  18.009  0.00  0.00    +0.000 OA
ATOM     11  C   UNL     1       3.966   4.923  17.377  0.00  0.00    +0.000 C 
ATOM     12  C   UNL     1       2.534   5.195  17.840  0.00  0.00    +0.000 C 
ATOM     13  C   UNL     1       1.851   3.940  18.380  0.00  0.00    +0.000 C 
ATOM     14  O   UNL     1       1.118   3.249  17.675  0.00  0.00    +0.000 OA
ENDBRANCH   1  12
BRANCH   2  15
ATOM     15  O   UNL     1       1.899   8.193  19.714  0.00  0.00    +0.000 OA
BRANCH  15  16
ATOM     16  C   UNL     1       1.155   9.404  19.537  0.00  0.00    +0.000 C 
BRANCH  16  17
ATOM     17  C   UNL     1       0.409   9.787  20.789  0.00  0.00    +0.000 A 
ATOM     18  C   UNL     1       0.565   9.046  21.971  0.00  0.00    +0.000 A 
ATOM     19  C   UNL     1      -0.084   9.438  23.145  0.00  0.00    +0.000 A 
ATOM     20  C   UNL     1      -0.901  10.566  23.149  0.00  0.00    +0.000 A 
ATOM     21  C   UNL     1      -1.077  11.301  21.976  0.00  0.00    +0.000 A 
ATOM     22  C   UNL     1      -0.429  10.910  20.802  0.00  0.00    +0.000 A 
ENDBRANCH  16  17
ENDBRANCH  15  16
ENDBRANCH   2  15
TORSDOF 4
ENDMDL
MODEL 8
REMARK VINA RESULT:      -6.9      3.610      5.368
REMARK  Name = 
REMARK  5 active torsions:
REMARK  status: ('A' for Active; 'I' for Inactive)
REMARK    1  A    between atoms: C_1  and  N_2
REMARK    2  A    between atoms: C_8  and  N_9
REMARK    3  A    between atoms: C_10  and  O_12
REMARK    4  A    between atoms: O_12  and  C_13
REMARK    5  A    between atoms: C_13  and  C_14
REMARK                            x       y       z     vdW  Elec       q    Type
REMARK                         _______ _______ _______ _____ _____    ______ ____
ROOT
ATOM      1  N   UNL     1       3.913   4.310  19.889  0.00  0.00    +0.000 N 
ATOM      2  C   UNL     1       4.957   4.838  19.197  0.00  0.00    +0.000 C 
ATOM      3  O   UNL     1       6.042   4.294  19.056  0.00  0.00    +0.000 OA
ATOM      4  H   UNL     1       3.056   4.840  19.811  0.00  0.00    +0.000 HD
ENDROOT
BRANCH   1  12
ATOM      5  C   UNL     1       2.481   2.501  16.921  0.00  0.00    +0.000 C 
ATOM      6  N   UNL     1       2.373   2.651  18.360  0.00  0.00    +0.000 N 
ATOM      7  C   UNL     1       1.084   2.704  18.889  0.00  0.00    +0.000 C 
ATOM      8  O   UNL     1       0.073   2.518  18.208  0.00  0.00    +0.000 OA
ATOM      9  C   UNL     1       0.956   3.058  20.376  0.00  0.00    +0.000 C 
ATOM     10  O   UNL     1       1.673   2.217  21.253  0.00  0.00    +0.000 OA
ATOM     11  C   UNL     1       3.002   2.649  21.532  0.00  0.00    +0.000 C 
ATOM     12  C   UNL     1       3.873   2.903  20.300  0.00  0.00    +0.000 C 
ATOM     13  C   UNL     1       3.421   2.087  19.091  0.00  0.00    +0.000 C 
ATOM     14  O   UNL     1       3.943   1.011  18.804  0.00  0.00    +0.000 OA
ENDBRANCH   1  12
BRANCH   2  15
ATOM     15  O   UNL     1       4.588   6.038  18.701  0.00  0.00    +0.000 OA
BRANCH  15  16
ATOM     16  C   UNL     1       3.275   6.109  18.131  0.00  0.00    +0.000 C 
BRANCH  16  17
ATOM     17  C   UNL     1       2.532   7.336  18.593  0.00  0.00    +0.000 A 
ATOM     18  C   UNL     1       2.266   8.389  17.705  0.00  0.00    +0.000 A 
ATOM     19  C   UNL     1       1.527   9.499  18.122  0.00  0.00    +0.000 A 
ATOM     20  C   UNL     1       1.055   9.574  19.430  0.00  0.00    +0.000 A 
ATOM     21  C   UNL     1       1.328   8.540  20.327  0.00  0.00    +0.000 A 
ATOM     22  C   UNL     1       2.066   7.430  19.911  0.00  0.00    +0.000 A 
ENDBRANCH  16  17
ENDBRANCH  15  16
ENDBRANCH   2  15
TORSDOF 4
ENDMDL
MODEL 9
REMARK VINA RESULT:      -6.9      4.195      7.886
REMARK  Name = 
REMARK  5 active torsions:
REMARK  status: ('A' for Active; 'I' for Inactive)
REMARK    1  A    between atoms: C_1  and  N_2
REMARK    2  A    between atoms: C_8  and  N_9
REMARK    3  A    between atoms: C_10  and  O_12
REMARK    4  A    between atoms: O_12  and  C_13
REMARK    5  A    between atoms: C_13  and  C_14
REMARK                            x       y       z     vdW  Elec       q    Type
REMARK                         _______ _______ _______ _____ _____    ______ ____
ROOT
ATOM      1  N   UNL     1       2.505   6.292  18.849  0.00  0.00    +0.000 N 
ATOM      2  C   UNL     1       2.385   7.630  18.639  0.00  0.00    +0.000 C 
ATOM      3  O   UNL     1       2.676   8.197  17.596  0.00  0.00    +0.000 OA
ATOM      4  H   UNL     1       2.115   5.976  19.727  0.00  0.00    +0.000 HD
ENDROOT
BRANCH   1  12
ATOM      5  C   UNL     1       1.199   3.024  20.169  0.00  0.00    +0.000 C 
ATOM      6  N   UNL     1       2.327   3.645  19.501  0.00  0.00    +0.000 N 
ATOM      7  C   UNL     1       3.598   3.252  19.918  0.00  0.00    +0.000 C 
ATOM      8  O   UNL     1       3.784   2.340  20.728  0.00  0.00    +0.000 OA
ATOM      9  C   UNL     1       4.789   4.040  19.361  0.00  0.00    +0.000 C 
ATOM     10  O   UNL     1       4.868   4.085  17.953  0.00  0.00    +0.000 OA
ATOM     11  C   UNL     1       4.192   5.189  17.358  0.00  0.00    +0.000 C 
ATOM     12  C   UNL     1       2.722   5.341  17.755  0.00  0.00    +0.000 C 
ATOM     13  C   UNL     1       2.095   4.013  18.173  0.00  0.00    +0.000 C 
ATOM     14  O   UNL     1       1.447   3.326  17.385  0.00  0.00    +0.000 OA
ENDBRANCH   1  12
BRANCH   2  15
ATOM     15  O   UNL     1       1.895   8.204  19.758  0.00  0.00    +0.000 OA
BRANCH  15  16
ATOM     16  C   UNL     1       1.193   9.440  19.577  0.00  0.00    +0.000 C 
BRANCH  16  17
ATOM     17  C   UNL     1       0.477   9.863  20.834  0.00  0.00    +0.000 A 
ATOM     18  C   UNL     1      -0.351  10.996  20.841  0.00  0.00    +0.000 A 
ATOM     19  C   UNL     1      -1.058  11.352  21.992  0.00  0.00    +0.000 A 
ATOM     20  C   UNL     1      -0.938  10.588  23.150  0.00  0.00    +0.000 A 
ATOM     21  C   UNL     1      -0.105   9.469  23.161  0.00  0.00    +0.000 A 
ATOM     22  C   UNL     1       0.602   9.112  22.011  0.00  0.00    +0.000 A 
ENDBRANCH  16  17
ENDBRANCH  15  16
ENDBRANCH   2  15
TORSDOF 4
ENDMDL
