MODEL 1
REMARK VINA RESULT:      -6.7      0.000      0.000
REMARK  Name = 
REMARK  8 active torsions:
REMARK  status: ('A' for Active; 'I' for Inactive)
REMARK    1  A    between atoms: C_1  and  C_2
REMARK    2  A    between atoms: C_2  and  N_3
REMARK    3  A    between atoms: C_4  and  C_5
REMARK    4  A    between atoms: C_6  and  N_7
REMARK    5  A    between atoms: N_7  and  C_8
REMARK    6  A    between atoms: N_7  and  C_9
REMARK    7  A    between atoms: C_19  and  O_20
REMARK    8  A    between atoms: O_20  and  C_21
REMARK                            x       y       z     vdW  Elec       q    Type
REMARK                         _______ _______ _______ _____ _____    ______ ____
ROOT
ATOM      1  N   UNL     1       1.031   9.502  19.540  0.00  0.00    +0.000 N 
ATOM      2  C   UNL     1       1.615   8.311  19.744  0.00  0.00    +0.000 A 
ATOM      3  S   UNL     1       1.215   7.731  21.325  0.00  0.00    +0.000 S 
ATOM      4  C   UNL     1       0.327   9.134  21.715  0.00  0.00    +0.000 A 
ATOM      5  C   UNL     1      -0.330   9.427  22.918  0.00  0.00    +0.000 A 
ATOM      6  C   UNL     1      -1.035  10.629  23.020  0.00  0.00    +0.000 A 
ATOM      7  C   UNL     1      -1.089  11.515  21.946  0.00  0.00    +0.000 A 
ATOM      8  C   UNL     1      -0.416  11.210  20.748  0.00  0.00    +0.000 A 
ATOM      9  C   UNL     1       0.314  10.003  20.632  0.00  0.00    +0.000 A 
ENDROOT
BRANCH   1  11
ATOM     10  C   UNL     1       2.157  11.211  18.056  0.00  0.00    +0.000 C 
ATOM     11  C   UNL     1       1.030  10.208  18.250  0.00  0.00    +0.000 C 
ENDBRANCH   1  11
BRANCH   2  12
ATOM     12  C   UNL     1       2.498   7.590  18.880  0.00  0.00    +0.000 C 
ATOM     13  C   UNL     1       2.637   6.246  18.913  0.00  0.00    +0.000 C 
BRANCH  13  14
ATOM     14  N   UNL     1       3.602   5.450  18.283  0.00  0.00    +0.000 N 
ATOM     15  C   UNL     1       3.168   4.383  17.358  0.00  0.00    +0.000 C 
BRANCH  14  16
ATOM     16  C   UNL     1       4.997   5.768  18.233  0.00  0.00    +0.000 A 
ATOM     17  C   UNL     1       5.524   6.630  17.250  0.00  0.00    +0.000 A 
ATOM     18  C   UNL     1       6.874   7.012  17.237  0.00  0.00    +0.000 A 
ATOM     19  C   UNL     1       7.745   6.548  18.214  0.00  0.00    +0.000 A 
ATOM     20  C   UNL     1       7.269   5.687  19.192  0.00  0.00    +0.000 A 
ATOM     21  C   UNL     1       5.920   5.303  19.196  0.00  0.00    +0.000 A 
ENDBRANCH  14  16
ENDBRANCH  13  14
ENDBRANCH   2  12
BRANCH   7  22
ATOM     22  O   UNL     1      -1.772  12.699  21.942  0.00  0.00    +0.000 OA
ATOM     23  C   UNL     1      -3.143  12.658  22.341  0.00  0.00    +0.000 C 
ENDBRANCH   7  22
TORSDOF 5
ENDMDL
MODEL 2
REMARK VINA RESULT:      -6.6      1.533      2.732
REMARK  Name = 
REMARK  8 active torsions:
REMARK  status: ('A' for Active; 'I' for Inactive)
REMARK    1  A    between atoms: C_1  and  C_2
REMARK    2  A    between atoms: C_2  and  N_3
REMARK    3  A    between atoms: C_4  and  C_5
REMARK    4  A    between atoms: C_6  and  N_7
REMARK    5  A    between atoms: N_7  and  C_8
REMARK    6  A    between atoms: N_7  and  C_9
REMARK    7  A    between atoms: C_19  and  O_20
REMARK    8  A    between atoms: O_20  and  C_21
REMARK                            x       y       z     vdW  Elec       q    Type
REMARK                         _______ _______ _______ _____ _____    ______ ____
ROOT
ATOM      1  N   UNL     1       0.485   9.840  19.506  0.00  0.00    +0.000 N 
ATOM      2  C   UNL     1       1.293   8.795  19.745  0.00  0.00    +0.000 A 
ATOM      3  S   UNL     1       1.220   8.377  21.424  0.00  0.00    +0.000 S 
ATOM      4  C   UNL     1       0.160   9.661  21.793  0.00  0.00    +0.000 A 
ATOM      5  C   UNL     1      -0.370  10.005  23.044  0.00  0.00    +0.000 A 
ATOM      6  C   UNL     1      -1.255  11.082  23.122  0.00  0.00    +0.000 A 
ATOM      7  C   UNL     1      -1.610  11.796  21.980  0.00  0.00    +0.000 A 
ATOM      8  C   UNL     1      -1.063  11.444  20.732  0.00  0.00    +0.000 A 
ATOM      9  C   UNL     1      -0.154  10.363  20.636  0.00  0.00    +0.000 A 
ENDROOT
BRANCH   1  11
ATOM     10  C   UNL     1      -1.135   9.892  17.567  0.00  0.00    +0.000 C 
ATOM     11  C   UNL     1       0.184  10.358  18.163  0.00  0.00    +0.000 C 
ENDBRANCH   1  11
BRANCH   2  12
ATOM     12  C   UNL     1       2.164   8.114  18.838  0.00  0.00    +0.000 C 
ATOM     13  C   UNL     1       2.228   6.767  18.739  0.00  0.00    +0.000 C 
BRANCH  13  14
ATOM     14  N   UNL     1       3.168   5.984  18.059  0.00  0.00    +0.000 N 
ATOM     15  C   UNL     1       4.310   6.641  17.390  0.00  0.00    +0.000 C 
BRANCH  14  16
ATOM     16  C   UNL     1       3.280   4.563  18.198  0.00  0.00    +0.000 A 
ATOM     17  C   UNL     1       4.134   3.980  19.156  0.00  0.00    +0.000 A 
ATOM     18  C   UNL     1       4.194   2.592  19.356  0.00  0.00    +0.000 A 
ATOM     19  C   UNL     1       3.396   1.738  18.606  0.00  0.00    +0.000 A 
ATOM     20  C   UNL     1       2.551   2.272  17.644  0.00  0.00    +0.000 A 
ATOM     21  C   UNL     1       2.500   3.660  17.443  0.00  0.00    +0.000 A 
ENDBRANCH  14  16
ENDBRANCH  13  14
ENDBRANCH   2  12
BRANCH   7  22
ATOM     22  O   UNL     1      -2.485  12.846  21.953  0.00  0.00    +0.000 OA
ATOM     23  C   UNL     1      -3.378  12.917  20.839  0.00  0.00    +0.000 C 
ENDBRANCH   7  22
TORSDOF 5
ENDMDL
MODEL 3
REMARK VINA RESULT:      -6.6      1.523      2.637
REMARK  Name = 
REMARK  8 active torsions:
REMARK  status: ('A' for Active; 'I' for Inactive)
REMARK    1  A    between atoms: C_1  and  C_2
REMARK    2  A    between atoms: C_2  and  N_3
REMARK    3  A    between atoms: C_4  and  C_5
REMARK    4  A    between atoms: C_6  and  N_7
REMARK    5  A    between atoms: N_7  and  C_8
REMARK    6  A    between atoms: N_7  and  C_9
REMARK    7  A    between atoms: C_19  and  O_20
REMARK    8  A    between atoms: O_20  and  C_21
REMARK                            x       y       z     vdW  Elec       q    Type
REMARK                         _______ _______ _______ _____ _____    ______ ____
ROOT
ATOM      1  N   UNL     1       0.502   9.832  19.532  0.00  0.00    +0.000 N 
ATOM      2  C   UNL     1       1.273   8.766  19.794  0.00  0.00    +0.000 A 
ATOM      3  S   UNL     1       1.160   8.366  21.475  0.00  0.00    +0.000 S 
ATOM      4  C   UNL     1       0.133   9.685  21.814  0.00  0.00    +0.000 A 
ATOM      5  C   UNL     1      -0.405  10.056  23.053  0.00  0.00    +0.000 A 
ATOM      6  C   UNL     1      -1.259  11.161  23.107  0.00  0.00    +0.000 A 
ATOM      7  C   UNL     1      -1.574  11.874  21.952  0.00  0.00    +0.000 A 
ATOM      8  C   UNL     1      -1.017  11.493  20.717  0.00  0.00    +0.000 A 
ATOM      9  C   UNL     1      -0.140  10.385  20.646  0.00  0.00    +0.000 A 
ENDROOT
BRANCH   1  11
ATOM     10  C   UNL     1      -1.115   9.974  17.593  0.00  0.00    +0.000 C 
ATOM     11  C   UNL     1       0.239  10.345  18.179  0.00  0.00    +0.000 C 
ENDBRANCH   1  11
BRANCH   2  12
ATOM     12  C   UNL     1       2.138   8.050  18.907  0.00  0.00    +0.000 C 
ATOM     13  C   UNL     1       2.224   6.701  18.881  0.00  0.00    +0.000 C 
BRANCH  13  14
ATOM     14  N   UNL     1       3.165   5.897  18.226  0.00  0.00    +0.000 N 
ATOM     15  C   UNL     1       4.342   6.528  17.595  0.00  0.00    +0.000 C 
BRANCH  14  16
ATOM     16  C   UNL     1       3.237   4.473  18.361  0.00  0.00    +0.000 A 
ATOM     17  C   UNL     1       2.511   3.613  17.514  0.00  0.00    +0.000 A 
ATOM     18  C   UNL     1       2.633   2.217  17.585  0.00  0.00    +0.000 A 
ATOM     19  C   UNL     1       3.492   1.632  18.505  0.00  0.00    +0.000 A 
ATOM     20  C   UNL     1       4.216   2.444  19.366  0.00  0.00    +0.000 A 
ATOM     21  C   UNL     1       4.084   3.839  19.296  0.00  0.00    +0.000 A 
ENDBRANCH  14  16
ENDBRANCH  13  14
ENDBRANCH   2  12
BRANCH   7  22
ATOM     22  O   UNL     1      -2.416  12.950  21.901  0.00  0.00    +0.000 OA
ATOM     23  C   UNL     1      -2.676  13.509  20.612  0.00  0.00    +0.000 C 
ENDBRANCH   7  22
TORSDOF 5
ENDMDL
MODEL 4
REMARK VINA RESULT:      -6.6      0.160      1.010
REMARK  Name = 
REMARK  8 active torsions:
REMARK  status: ('A' for Active; 'I' for Inactive)
REMARK    1  A    between atoms: C_1  and  C_2
REMARK    2  A    between atoms: C_2  and  N_3
REMARK    3  A    between atoms: C_4  and  C_5
REMARK    4  A    between atoms: C_6  and  N_7
REMARK    5  A    between atoms: N_7  and  C_8
REMARK    6  A    between atoms: N_7  and  C_9
REMARK    7  A    between atoms: C_19  and  O_20
REMARK    8  A    between atoms: O_20  and  C_21
REMARK                            x       y       z     vdW  Elec       q    Type
REMARK                         _______ _______ _______ _____ _____    ______ ____
ROOT
ATOM      1  N   UNL     1       0.973   9.591  19.617  0.00  0.00    +0.000 N 
ATOM      2  C   UNL     1       1.549   8.399  19.830  0.00  0.00    +0.000 A 
ATOM      3  S   UNL     1       1.129   7.824  21.409  0.00  0.00    +0.000 S 
ATOM      4  C   UNL     1       0.244   9.232  21.786  0.00  0.00    +0.000 A 
ATOM      5  C   UNL     1      -0.424   9.530  22.981  0.00  0.00    +0.000 A 
ATOM      6  C   UNL     1      -1.125  10.736  23.073  0.00  0.00    +0.000 A 
ATOM      7  C   UNL     1      -1.163  11.620  21.996  0.00  0.00    +0.000 A 
ATOM      8  C   UNL     1      -0.479  11.309  20.807  0.00  0.00    +0.000 A 
ATOM      9  C   UNL     1       0.247  10.098  20.701  0.00  0.00    +0.000 A 
ENDROOT
BRANCH   1  11
ATOM     10  C   UNL     1       2.111  11.305  18.149  0.00  0.00    +0.000 C 
ATOM     11  C   UNL     1       0.989  10.295  18.326  0.00  0.00    +0.000 C 
ENDBRANCH   1  11
BRANCH   2  12
ATOM     12  C   UNL     1       2.438   7.671  18.977  0.00  0.00    +0.000 C 
ATOM     13  C   UNL     1       2.568   6.326  19.012  0.00  0.00    +0.000 C 
BRANCH  13  14
ATOM     14  N   UNL     1       3.535   5.524  18.395  0.00  0.00    +0.000 N 
ATOM     15  C   UNL     1       3.103   4.430  17.501  0.00  0.00    +0.000 C 
BRANCH  14  16
ATOM     16  C   UNL     1       4.926   5.854  18.325  0.00  0.00    +0.000 A 
ATOM     17  C   UNL     1       5.852   5.354  19.263  0.00  0.00    +0.000 A 
ATOM     18  C   UNL     1       7.229   5.606  19.160  0.00  0.00    +0.000 A 
ATOM     19  C   UNL     1       7.729   6.363  18.110  0.00  0.00    +0.000 A 
ATOM     20  C   UNL     1       6.849   6.884  17.172  0.00  0.00    +0.000 A 
ATOM     21  C   UNL     1       5.473   6.635  17.283  0.00  0.00    +0.000 A 
ENDBRANCH  14  16
ENDBRANCH  13  14
ENDBRANCH   2  12
BRANCH   7  22
ATOM     22  O   UNL     1      -1.840  12.807  21.982  0.00  0.00    +0.000 OA
ATOM     23  C   UNL     1      -3.087  12.851  22.680  0.00  0.00    +0.000 C 
ENDBRANCH   7  22
TORSDOF 5
ENDMDL
MODEL 5
REMARK VINA RESULT:      -6.5      2.060      3.977
REMARK  Name = 
REMARK  8 active torsions:
REMARK  status: ('A' for Active; 'I' for Inactive)
REMARK    1  A    between atoms: C_1  and  C_2
REMARK    2  A    between atoms: C_2  and  N_3
REMARK    3  A    between atoms: C_4  and  C_5
REMARK    4  A    between atoms: C_6  and  N_7
REMARK    5  A    between atoms: N_7  and  C_8
REMARK    6  A    between atoms: N_7  and  C_9
REMARK    7  A    between atoms: C_19  and  O_20
REMARK    8  A    between atoms: O_20  and  C_21
REMARK                            x       y       z     vdW  Elec       q    Type
REMARK                         _______ _______ _______ _____ _____    ______ ____
ROOT
ATOM      1  N   UNL     1       0.173   9.768  20.513  0.00  0.00    +0.000 N 
ATOM      2  C   UNL     1       1.186   9.337  19.746  0.00  0.00    +0.000 A 
ATOM      3  S   UNL     1       1.608  10.563  18.598  0.00  0.00    +0.000 S 
ATOM      4  C   UNL     1       0.366  11.608  19.118  0.00  0.00    +0.000 A 
ATOM      5  C   UNL     1       0.043  12.875  18.614  0.00  0.00    +0.000 A 
ATOM      6  C   UNL     1      -1.001  13.587  19.212  0.00  0.00    +0.000 A 
ATOM      7  C   UNL     1      -1.701  13.051  20.290  0.00  0.00    +0.000 A 
ATOM      8  C   UNL     1      -1.370  11.773  20.778  0.00  0.00    +0.000 A 
ATOM      9  C   UNL     1      -0.325  11.032  20.177  0.00  0.00    +0.000 A 
ENDROOT
BRANCH   1  11
ATOM     10  C   UNL     1       0.268   9.469  23.021  0.00  0.00    +0.000 C 
ATOM     11  C   UNL     1      -0.334   9.047  21.689  0.00  0.00    +0.000 C 
ENDBRANCH   1  11
BRANCH   2  12
ATOM     12  C   UNL     1       1.834   8.062  19.757  0.00  0.00    +0.000 C 
ATOM     13  C   UNL     1       2.386   7.500  18.659  0.00  0.00    +0.000 C 
BRANCH  13  14
ATOM     14  N   UNL     1       2.854   6.191  18.486  0.00  0.00    +0.000 N 
ATOM     15  C   UNL     1       4.262   5.971  18.100  0.00  0.00    +0.000 C 
BRANCH  14  16
ATOM     16  C   UNL     1       2.156   5.024  18.935  0.00  0.00    +0.000 A 
ATOM     17  C   UNL     1       1.781   3.999  18.044  0.00  0.00    +0.000 A 
ATOM     18  C   UNL     1       1.167   2.815  18.482  0.00  0.00    +0.000 A 
ATOM     19  C   UNL     1       0.912   2.614  19.832  0.00  0.00    +0.000 A 
ATOM     20  C   UNL     1       1.256   3.604  20.741  0.00  0.00    +0.000 A 
ATOM     21  C   UNL     1       1.862   4.788  20.296  0.00  0.00    +0.000 A 
ENDBRANCH  14  16
ENDBRANCH  13  14
ENDBRANCH   2  12
BRANCH   7  22
ATOM     22  O   UNL     1      -2.718  13.680  20.954  0.00  0.00    +0.000 OA
ATOM     23  C   UNL     1      -4.052  13.324  20.584  0.00  0.00    +0.000 C 
ENDBRANCH   7  22
TORSDOF 5
ENDMDL
MODEL 6
REMARK VINA RESULT:      -6.4      2.236      4.002
REMARK  Name = 
REMARK  8 active torsions:
REMARK  status: ('A' for Active; 'I' for Inactive)
REMARK    1  A    between atoms: C_1  and  C_2
REMARK    2  A    between atoms: C_2  and  N_3
REMARK    3  A    between atoms: C_4  and  C_5
REMARK    4  A    between atoms: C_6  and  N_7
REMARK    5  A    between atoms: N_7  and  C_8
REMARK    6  A    between atoms: N_7  and  C_9
REMARK    7  A    between atoms: C_19  and  O_20
REMARK    8  A    between atoms: O_20  and  C_21
REMARK                            x       y       z     vdW  Elec       q    Type
REMARK                         _______ _______ _______ _____ _____    ______ ____
ROOT
ATOM      1  N   UNL     1       0.795  10.014  20.937  0.00  0.00    +0.000 N 
ATOM      2  C   UNL     1       1.194   9.251  19.908  0.00  0.00    +0.000 A 
ATOM      3  S   UNL     1       0.956  10.108  18.423  0.00  0.00    +0.000 S 
ATOM      4  C   UNL     1       0.254  11.452  19.203  0.00  0.00    +0.000 A 
ATOM      5  C   UNL     1      -0.244  12.622  18.615  0.00  0.00    +0.000 A 
ATOM      6  C   UNL     1      -0.751  13.625  19.445  0.00  0.00    +0.000 A 
ATOM      7  C   UNL     1      -0.756  13.467  20.829  0.00  0.00    +0.000 A 
ATOM      8  C   UNL     1      -0.260  12.282  21.404  0.00  0.00    +0.000 A 
ATOM      9  C   UNL     1       0.245  11.250  20.577  0.00  0.00    +0.000 A 
ENDROOT
BRANCH   1  11
ATOM     10  C   UNL     1      -0.268   9.349  23.132  0.00  0.00    +0.000 C 
ATOM     11  C   UNL     1       0.998   9.664  22.350  0.00  0.00    +0.000 C 
ENDBRANCH   1  11
BRANCH   2  12
ATOM     12  C   UNL     1       1.687   7.908  19.931  0.00  0.00    +0.000 C 
ATOM     13  C   UNL     1       2.435   7.374  18.940  0.00  0.00    +0.000 C 
BRANCH  13  14
ATOM     14  N   UNL     1       2.797   6.036  18.741  0.00  0.00    +0.000 N 
ATOM     15  C   UNL     1       4.015   5.724  17.967  0.00  0.00    +0.000 C 
BRANCH  14  16
ATOM     16  C   UNL     1       2.241   4.937  19.471  0.00  0.00    +0.000 A 
ATOM     17  C   UNL     1       1.409   3.983  18.851  0.00  0.00    +0.000 A 
ATOM     18  C   UNL     1       0.922   2.859  19.536  0.00  0.00    +0.000 A 
ATOM     19  C   UNL     1       1.256   2.647  20.866  0.00  0.00    +0.000 A 
ATOM     20  C   UNL     1       2.063   3.570  21.517  0.00  0.00    +0.000 A 
ATOM     21  C   UNL     1       2.541   4.695  20.829  0.00  0.00    +0.000 A 
ENDBRANCH  14  16
ENDBRANCH  13  14
ENDBRANCH   2  12
BRANCH   7  22
ATOM     22  O   UNL     1      -1.206  14.399  21.722  0.00  0.00    +0.000 OA
ATOM     23  C   UNL     1      -0.974  14.135  23.107  0.00  0.00    +0.000 C 
ENDBRANCH   7  22
TORSDOF 5
ENDMDL
MODEL 7
REMARK VINA RESULT:      -6.3      2.212      4.048
REMARK  Name = 
REMARK  8 active torsions:
REMARK  status: ('A' for Active; 'I' for Inactive)
REMARK    1  A    between atoms: C_1  and  C_2
REMARK    2  A    between atoms: C_2  and  N_3
REMARK    3  A    between atoms: C_4  and  C_5
REMARK    4  A    between atoms: C_6  and  N_7
REMARK    5  A    between atoms: N_7  and  C_8
REMARK    6  A    between atoms: N_7  and  C_9
REMARK    7  A    between atoms: C_19  and  O_20
REMARK    8  A    between atoms: O_20  and  C_21
REMARK                            x       y       z     vdW  Elec       q    Type
REMARK                         _______ _______ _______ _____ _____    ______ ____
ROOT
ATOM      1  N   UNL     1       0.206   9.837  20.441  0.00  0.00    +0.000 N 
ATOM      2  C   UNL     1       1.144   9.292  19.652  0.00  0.00    +0.000 A 
ATOM      3  S   UNL     1       1.667  10.455  18.482  0.00  0.00    +0.000 S 
ATOM      4  C   UNL     1       0.563  11.636  19.025  0.00  0.00    +0.000 A 
ATOM      5  C   UNL     1       0.369  12.928  18.519  0.00  0.00    +0.000 A 
ATOM      6  C   UNL     1      -0.573  13.754  19.137  0.00  0.00    +0.000 A 
ATOM      7  C   UNL     1      -1.298  13.306  20.238  0.00  0.00    +0.000 A 
ATOM      8  C   UNL     1      -1.098  12.003  20.730  0.00  0.00    +0.000 A 
ATOM      9  C   UNL     1      -0.158  11.147  20.107  0.00  0.00    +0.000 A 
ENDROOT
BRANCH   1  11
ATOM     10  C   UNL     1       0.409   9.452  22.931  0.00  0.00    +0.000 C 
ATOM     11  C   UNL     1      -0.345   9.184  21.638  0.00  0.00    +0.000 C 
ENDBRANCH   1  11
BRANCH   2  12
ATOM     12  C   UNL     1       1.646   7.952  19.657  0.00  0.00    +0.000 C 
ATOM     13  C   UNL     1       2.465   7.462  18.700  0.00  0.00    +0.000 C 
BRANCH  13  14
ATOM     14  N   UNL     1       2.851   6.135  18.473  0.00  0.00    +0.000 N 
ATOM     15  C   UNL     1       4.050   5.860  17.656  0.00  0.00    +0.000 C 
BRANCH  14  16
ATOM     16  C   UNL     1       2.346   5.016  19.210  0.00  0.00    +0.000 A 
ATOM     17  C   UNL     1       2.619   4.851  20.582  0.00  0.00    +0.000 A 
ATOM     18  C   UNL     1       2.067   3.801  21.333  0.00  0.00    +0.000 A 
ATOM     19  C   UNL     1       1.215   2.882  20.736  0.00  0.00    +0.000 A 
ATOM     20  C   UNL     1       0.931   3.002  19.383  0.00  0.00    +0.000 A 
ATOM     21  C   UNL     1       1.492   4.049  18.636  0.00  0.00    +0.000 A 
ENDBRANCH  14  16
ENDBRANCH  13  14
ENDBRANCH   2  12
BRANCH   7  22
ATOM     22  O   UNL     1      -2.220  14.048  20.924  0.00  0.00    +0.000 OA
ATOM     23  C   UNL     1      -2.158  15.467  20.762  0.00  0.00    +0.000 C 
ENDBRANCH   7  22
TORSDOF 5
ENDMDL
MODEL 8
REMARK VINA RESULT:      -6.3      4.520      6.762
REMARK  Name = 
REMARK  8 active torsions:
REMARK  status: ('A' for Active; 'I' for Inactive)
REMARK    1  A    between atoms: C_1  and  C_2
REMARK    2  A    between atoms: C_2  and  N_3
REMARK    3  A    between atoms: C_4  and  C_5
REMARK    4  A    between atoms: C_6  and  N_7
REMARK    5  A    between atoms: N_7  and  C_8
REMARK    6  A    between atoms: N_7  and  C_9
REMARK    7  A    between atoms: C_19  and  O_20
REMARK    8  A    between atoms: O_20  and  C_21
REMARK                            x       y       z     vdW  Elec       q    Type
REMARK                         _______ _______ _______ _____ _____    ______ ____
ROOT
ATOM      1  N   UNL     1       4.506   5.509  17.348  0.00  0.00    +0.000 N 
ATOM      2  C   UNL     1       4.816   4.395  16.668  0.00  0.00    +0.000 A 
ATOM      3  S   UNL     1       3.833   3.082  17.223  0.00  0.00    +0.000 S 
ATOM      4  C   UNL     1       3.070   4.036  18.413  0.00  0.00    +0.000 A 
ATOM      5  C   UNL     1       2.095   3.637  19.338  0.00  0.00    +0.000 A 
ATOM      6  C   UNL     1       1.572   4.593  20.212  0.00  0.00    +0.000 A 
ATOM      7  C   UNL     1       2.005   5.916  20.161  0.00  0.00    +0.000 A 
ATOM      8  C   UNL     1       2.990   6.298  19.233  0.00  0.00    +0.000 A 
ATOM      9  C   UNL     1       3.542   5.340  18.348  0.00  0.00    +0.000 A 
ENDROOT
BRANCH   1  11
ATOM     10  C   UNL     1       6.483   7.082  17.431  0.00  0.00    +0.000 C 
ATOM     11  C   UNL     1       5.036   6.843  17.029  0.00  0.00    +0.000 C 
ENDBRANCH   1  11
BRANCH   2  12
ATOM     12  C   UNL     1       5.828   4.208  15.674  0.00  0.00    +0.000 C 
ATOM     13  C   UNL     1       5.855   4.884  14.504  0.00  0.00    +0.000 C 
BRANCH  13  14
ATOM     14  N   UNL     1       6.652   4.650  13.376  0.00  0.00    +0.000 N 
ATOM     15  C   UNL     1       7.954   5.336  13.255  0.00  0.00    +0.000 C 
BRANCH  14  16
ATOM     16  C   UNL     1       6.444   3.573  12.456  0.00  0.00    +0.000 A 
ATOM     17  C   UNL     1       7.523   2.855  11.903  0.00  0.00    +0.000 A 
ATOM     18  C   UNL     1       7.331   1.747  11.063  0.00  0.00    +0.000 A 
ATOM     19  C   UNL     1       6.049   1.316  10.750  0.00  0.00    +0.000 A 
ATOM     20  C   UNL     1       4.959   2.003  11.265  0.00  0.00    +0.000 A 
ATOM     21  C   UNL     1       5.157   3.114  12.099  0.00  0.00    +0.000 A 
ENDBRANCH  14  16
ENDBRANCH  13  14
ENDBRANCH   2  12
BRANCH   7  22
ATOM     22  O   UNL     1       1.535   6.925  20.956  0.00  0.00    +0.000 OA
ATOM     23  C   UNL     1       1.547   8.243  20.404  0.00  0.00    +0.000 C 
ENDBRANCH   7  22
TORSDOF 5
ENDMDL
MODEL 9
REMARK VINA RESULT:      -6.3      3.580      8.058
REMARK  Name = 
REMARK  8 active torsions:
REMARK  status: ('A' for Active; 'I' for Inactive)
REMARK    1  A    between atoms: C_1  and  C_2
REMARK    2  A    between atoms: C_2  and  N_3
REMARK    3  A    between atoms: C_4  and  C_5
REMARK    4  A    between atoms: C_6  and  N_7
REMARK    5  A    between atoms: N_7  and  C_8
REMARK    6  A    between atoms: N_7  and  C_9
REMARK    7  A    between atoms: C_19  and  O_20
REMARK    8  A    between atoms: O_20  and  C_21
REMARK                            x       y       z     vdW  Elec       q    Type
REMARK                         _______ _______ _______ _____ _____    ______ ____
ROOT
ATOM      1  N   UNL     1       2.876   6.336  18.681  0.00  0.00    +0.000 N 
ATOM      2  C   UNL     1       2.187   7.311  19.292  0.00  0.00    +0.000 A 
ATOM      3  S   UNL     1       1.610   6.742  20.823  0.00  0.00    +0.000 S 
ATOM      4  C   UNL     1       2.242   5.177  20.584  0.00  0.00    +0.000 A 
ATOM      5  C   UNL     1       2.153   4.075  21.445  0.00  0.00    +0.000 A 
ATOM      6  C   UNL     1       2.777   2.882  21.071  0.00  0.00    +0.000 A 
ATOM      7  C   UNL     1       3.477   2.791  19.870  0.00  0.00    +0.000 A 
ATOM      8  C   UNL     1       3.550   3.905  19.013  0.00  0.00    +0.000 A 
ATOM      9  C   UNL     1       2.913   5.118  19.370  0.00  0.00    +0.000 A 
ENDROOT
BRANCH   1  11
ATOM     10  C   UNL     1       5.136   6.712  17.613  0.00  0.00    +0.000 C 
ATOM     11  C   UNL     1       3.638   6.521  17.437  0.00  0.00    +0.000 C 
ENDBRANCH   1  11
BRANCH   2  12
ATOM     12  C   UNL     1       1.870   8.619  18.808  0.00  0.00    +0.000 C 
ATOM     13  C   UNL     1       1.020   9.459  19.439  0.00  0.00    +0.000 C 
BRANCH  13  14
ATOM     14  N   UNL     1       0.468  10.659  18.973  0.00  0.00    +0.000 N 
ATOM     15  C   UNL     1       1.360  11.799  18.678  0.00  0.00    +0.000 C 
BRANCH  14  16
ATOM     16  C   UNL     1      -0.869  10.789  18.477  0.00  0.00    +0.000 A 
ATOM     17  C   UNL     1      -1.354   9.970  17.438  0.00  0.00    +0.000 A 
ATOM     18  C   UNL     1      -2.686  10.032  16.997  0.00  0.00    +0.000 A 
ATOM     19  C   UNL     1      -3.580  10.915  17.586  0.00  0.00    +0.000 A 
ATOM     20  C   UNL     1      -3.138  11.748  18.604  0.00  0.00    +0.000 A 
ATOM     21  C   UNL     1      -1.805  11.686  19.036  0.00  0.00    +0.000 A 
ENDBRANCH  14  16
ENDBRANCH  13  14
ENDBRANCH   2  12
BRANCH   7  22
ATOM     22  O   UNL     1       4.139   1.678  19.432  0.00  0.00    +0.000 OA
ATOM     23  C   UNL     1       3.828   1.217  18.115  0.00  0.00    +0.000 C 
ENDBRANCH   7  22
TORSDOF 5
ENDMDL
