MODEL 1
REMARK VINA RESULT:      -8.0      0.000      0.000
REMARK  Name = 
REMARK  10 active torsions:
REMARK  status: ('A' for Active; 'I' for Inactive)
REMARK    1  A    between atoms: C_1  and  O_2
REMARK    2  A    between atoms: O_2  and  C_3
REMARK    3  A    between atoms: C_3  and  C_4
REMARK    4  A    between atoms: C_4  and  N_5
REMARK    5  A    between atoms: N_8  and  C_9
REMARK    6  A    between atoms: C_9  and  C_10
REMARK    7  A    between atoms: C_10  and  O_11
REMARK    8  A    between atoms: C_10  and  C_12
REMARK    9  A    between atoms: C_14  and  C_15
REMARK   10  A    between atoms: C_17  and  C_18
REMARK                            x       y       z     vdW  Elec       q    Type
REMARK                         _______ _______ _______ _____ _____    ______ ____
ROOT
ATOM      1  N   UNL     1       8.304   9.200  17.817  0.00  0.00    +0.000 N 
ATOM      2  C   UNL     1       8.018   7.861  17.933  0.00  0.00    +0.000 C 
ATOM      3  O   UNL     1       8.435   7.150  18.827  0.00  0.00    +0.000 OA
ATOM      4  N   UNL     1       7.198   7.440  16.921  0.00  0.00    +0.000 N 
ATOM      5  H   UNL     1       7.604   9.761  17.353  0.00  0.00    +0.000 HD
ATOM      6  H   UNL     1       7.324   7.943  16.055  0.00  0.00    +0.000 HD
ENDROOT
BRANCH   1   7
ATOM      7  C   UNL     1       9.067   9.877  18.865  0.00  0.00    +0.000 C 
BRANCH   7   8
ATOM      8  C   UNL     1       9.288  11.387  18.581  0.00  0.00    +0.000 C 
ATOM      9  C   UNL     1       9.261  12.223  19.872  0.00  0.00    +0.000 C 
ATOM     10  C   UNL     1      10.466  11.979  20.761  0.00  0.00    +0.000 C 
ATOM     11  O   UNL     1      11.687  12.176  20.061  0.00  0.00    +0.000 OA
ATOM     12  C   UNL     1      11.823  11.408  18.869  0.00  0.00    +0.000 C 
ATOM     13  C   UNL     1      10.659  11.631  17.911  0.00  0.00    +0.000 C 
BRANCH   8  15
ATOM     14  C   UNL     1       8.098  13.286  17.610  0.00  0.00    +0.000 C 
ATOM     15  O   UNL     1       8.284  11.873  17.652  0.00  0.00    +0.000 OA
ENDBRANCH   8  15
ENDBRANCH   7   8
ENDBRANCH   1   7
BRANCH   4  16
ATOM     16  C   UNL     1       6.889   6.015  16.786  0.00  0.00    +0.000 C 
BRANCH  16  17
ATOM     17  C   UNL     1       5.527   5.745  16.111  0.00  0.00    +0.000 C 
BRANCH  17  18
ATOM     18  C   UNL     1       4.340   5.484  17.033  0.00  0.00    +0.000 A 
ATOM     19  C   UNL     1       3.780   4.195  17.112  0.00  0.00    +0.000 A 
ATOM     20  C   UNL     1       2.709   3.916  17.969  0.00  0.00    +0.000 A 
ATOM     21  C   UNL     1       2.112   2.540  18.033  0.00  0.00    +0.000 C 
ATOM     22  C   UNL     1       2.196   4.936  18.776  0.00  0.00    +0.000 A 
ATOM     23  C   UNL     1       2.750   6.219  18.740  0.00  0.00    +0.000 A 
ATOM     24  C   UNL     1       2.218   7.311  19.621  0.00  0.00    +0.000 C 
ATOM     25  C   UNL     1       3.820   6.483  17.873  0.00  0.00    +0.000 A 
ENDBRANCH  17  18
BRANCH  17  26
ATOM     26  O   UNL     1       5.261   6.863  15.245  0.00  0.00    +0.000 OA
ATOM     27  H   UNL     1       4.448   6.630  14.756  0.00  0.00    +0.000 HD
ENDBRANCH  17  26
ENDBRANCH  16  17
ENDBRANCH   4  16
TORSDOF 7
ENDMDL
MODEL 2
REMARK VINA RESULT:      -8.0      0.077      1.758
REMARK  Name = 
REMARK  10 active torsions:
REMARK  status: ('A' for Active; 'I' for Inactive)
REMARK    1  A    between atoms: C_1  and  O_2
REMARK    2  A    between atoms: O_2  and  C_3
REMARK    3  A    between atoms: C_3  and  C_4
REMARK    4  A    between atoms: C_4  and  N_5
REMARK    5  A    between atoms: N_8  and  C_9
REMARK    6  A    between atoms: C_9  and  C_10
REMARK    7  A    between atoms: C_10  and  O_11
REMARK    8  A    between atoms: C_10  and  C_12
REMARK    9  A    between atoms: C_14  and  C_15
REMARK   10  A    between atoms: C_17  and  C_18
REMARK                            x       y       z     vdW  Elec       q    Type
REMARK                         _______ _______ _______ _____ _____    ______ ____
ROOT
ATOM      1  N   UNL     1       8.302   9.242  17.815  0.00  0.00    +0.000 N 
ATOM      2  C   UNL     1       8.028   7.899  17.914  0.00  0.00    +0.000 C 
ATOM      3  O   UNL     1       8.428   7.186  18.815  0.00  0.00    +0.000 OA
ATOM      4  N   UNL     1       7.242   7.475  16.877  0.00  0.00    +0.000 N 
ATOM      5  H   UNL     1       7.608   9.798  17.335  0.00  0.00    +0.000 HD
ATOM      6  H   UNL     1       7.387   7.985  16.018  0.00  0.00    +0.000 HD
ENDROOT
BRANCH   1   7
ATOM      7  C   UNL     1       9.027   9.920  18.889  0.00  0.00    +0.000 C 
BRANCH   7   8
ATOM      8  C   UNL     1       9.273  11.425  18.603  0.00  0.00    +0.000 C 
ATOM      9  C   UNL     1       9.246  12.265  19.892  0.00  0.00    +0.000 C 
ATOM     10  C   UNL     1      10.438  12.005  20.794  0.00  0.00    +0.000 C 
ATOM     11  O   UNL     1      11.669  12.183  20.105  0.00  0.00    +0.000 OA
ATOM     12  C   UNL     1      11.805  11.410  18.917  0.00  0.00    +0.000 C 
ATOM     13  C   UNL     1      10.654  11.648  17.947  0.00  0.00    +0.000 C 
BRANCH   8  15
ATOM     14  C   UNL     1       8.239  13.338  17.491  0.00  0.00    +0.000 C 
ATOM     15  O   UNL     1       8.286  11.924  17.663  0.00  0.00    +0.000 OA
ENDBRANCH   8  15
ENDBRANCH   7   8
ENDBRANCH   1   7
BRANCH   4  16
ATOM     16  C   UNL     1       6.953   6.048  16.724  0.00  0.00    +0.000 C 
BRANCH  16  17
ATOM     17  C   UNL     1       5.583   5.766  16.071  0.00  0.00    +0.000 C 
BRANCH  17  18
ATOM     18  C   UNL     1       4.421   5.459  17.011  0.00  0.00    +0.000 A 
ATOM     19  C   UNL     1       3.871   6.482  17.807  0.00  0.00    +0.000 A 
ATOM     20  C   UNL     1       2.786   6.240  18.659  0.00  0.00    +0.000 A 
ATOM     21  C   UNL     1       2.218   7.336  19.513  0.00  0.00    +0.000 C 
ATOM     22  C   UNL     1       2.227   4.960  18.706  0.00  0.00    +0.000 A 
ATOM     23  C   UNL     1       2.733   3.931  17.906  0.00  0.00    +0.000 A 
ATOM     24  C   UNL     1       2.121   2.562  17.936  0.00  0.00    +0.000 C 
ATOM     25  C   UNL     1       3.823   4.189  17.061  0.00  0.00    +0.000 A 
ENDBRANCH  17  18
BRANCH  17  26
ATOM     26  O   UNL     1       5.275   6.900  15.239  0.00  0.00    +0.000 OA
ATOM     27  H   UNL     1       4.431   6.682  14.799  0.00  0.00    +0.000 HD
ENDBRANCH  17  26
ENDBRANCH  16  17
ENDBRANCH   4  16
TORSDOF 7
ENDMDL
MODEL 3
REMARK VINA RESULT:      -7.8      1.106      1.142
REMARK  Name = 
REMARK  10 active torsions:
REMARK  status: ('A' for Active; 'I' for Inactive)
REMARK    1  A    between atoms: C_1  and  O_2
REMARK    2  A    between atoms: O_2  and  C_3
REMARK    3  A    between atoms: C_3  and  C_4
REMARK    4  A    between atoms: C_4  and  N_5
REMARK    5  A    between atoms: N_8  and  C_9
REMARK    6  A    between atoms: C_9  and  C_10
REMARK    7  A    between atoms: C_10  and  O_11
REMARK    8  A    between atoms: C_10  and  C_12
REMARK    9  A    between atoms: C_14  and  C_15
REMARK   10  A    between atoms: C_17  and  C_18
REMARK                            x       y       z     vdW  Elec       q    Type
REMARK                         _______ _______ _______ _____ _____    ______ ____
ROOT
ATOM      1  N   UNL     1       8.326   9.327  17.886  0.00  0.00    +0.000 N 
ATOM      2  C   UNL     1       8.084   7.979  17.998  0.00  0.00    +0.000 C 
ATOM      3  O   UNL     1       8.510   7.283  18.900  0.00  0.00    +0.000 OA
ATOM      4  N   UNL     1       7.298   7.529  16.972  0.00  0.00    +0.000 N 
ATOM      5  H   UNL     1       7.616   9.863  17.408  0.00  0.00    +0.000 HD
ATOM      6  H   UNL     1       7.422   8.035  16.108  0.00  0.00    +0.000 HD
ENDROOT
BRANCH   1   7
ATOM      7  C   UNL     1       9.047  10.030  18.946  0.00  0.00    +0.000 C 
BRANCH   7   8
ATOM      8  C   UNL     1       9.329  11.518  18.608  0.00  0.00    +0.000 C 
ATOM      9  C   UNL     1       9.285  12.408  19.863  0.00  0.00    +0.000 C 
ATOM     10  C   UNL     1      10.449  12.162  20.805  0.00  0.00    +0.000 C 
ATOM     11  O   UNL     1      11.700  12.291  20.143  0.00  0.00    +0.000 OA
ATOM     12  C   UNL     1      11.852  11.469  18.989  0.00  0.00    +0.000 C 
ATOM     13  C   UNL     1      10.731  11.690  17.981  0.00  0.00    +0.000 C 
BRANCH   8  15
ATOM     14  C   UNL     1       8.089  13.394  17.654  0.00  0.00    +0.000 C 
ATOM     15  O   UNL     1       8.376  11.997  17.624  0.00  0.00    +0.000 OA
ENDBRANCH   8  15
ENDBRANCH   7   8
ENDBRANCH   1   7
BRANCH   4  16
ATOM     16  C   UNL     1       7.039   6.094  16.834  0.00  0.00    +0.000 C 
BRANCH  16  17
ATOM     17  C   UNL     1       6.289   5.487  18.038  0.00  0.00    +0.000 C 
BRANCH  17  18
ATOM     18  C   UNL     1       4.765   5.554  18.005  0.00  0.00    +0.000 A 
ATOM     19  C   UNL     1       4.007   4.369  18.058  0.00  0.00    +0.000 A 
ATOM     20  C   UNL     1       2.607   4.397  18.058  0.00  0.00    +0.000 A 
ATOM     21  C   UNL     1       1.812   3.125  18.100  0.00  0.00    +0.000 C 
ATOM     22  C   UNL     1       1.948   5.629  18.024  0.00  0.00    +0.000 A 
ATOM     23  C   UNL     1       2.674   6.825  18.001  0.00  0.00    +0.000 A 
ATOM     24  C   UNL     1       1.972   8.150  17.989  0.00  0.00    +0.000 C 
ATOM     25  C   UNL     1       4.076   6.779  17.997  0.00  0.00    +0.000 A 
ENDBRANCH  17  18
BRANCH  17  26
ATOM     26  O   UNL     1       6.733   4.125  18.165  0.00  0.00    +0.000 OA
ATOM     27  H   UNL     1       7.304   3.960  17.390  0.00  0.00    +0.000 HD
ENDBRANCH  17  26
ENDBRANCH  16  17
ENDBRANCH   4  16
TORSDOF 7
ENDMDL
MODEL 4
REMARK VINA RESULT:      -7.8      1.107      2.058
REMARK  Name = 
REMARK  10 active torsions:
REMARK  status: ('A' for Active; 'I' for Inactive)
REMARK    1  A    between atoms: C_1  and  O_2
REMARK    2  A    between atoms: O_2  and  C_3
REMARK    3  A    between atoms: C_3  and  C_4
REMARK    4  A    between atoms: C_4  and  N_5
REMARK    5  A    between atoms: N_8  and  C_9
REMARK    6  A    between atoms: C_9  and  C_10
REMARK    7  A    between atoms: C_10  and  O_11
REMARK    8  A    between atoms: C_10  and  C_12
REMARK    9  A    between atoms: C_14  and  C_15
REMARK   10  A    between atoms: C_17  and  C_18
REMARK                            x       y       z     vdW  Elec       q    Type
REMARK                         _______ _______ _______ _____ _____    ______ ____
ROOT
ATOM      1  N   UNL     1       8.303   9.303  17.875  0.00  0.00    +0.000 N 
ATOM      2  C   UNL     1       8.064   7.954  17.980  0.00  0.00    +0.000 C 
ATOM      3  O   UNL     1       8.521   7.247  18.857  0.00  0.00    +0.000 OA
ATOM      4  N   UNL     1       7.238   7.517  16.980  0.00  0.00    +0.000 N 
ATOM      5  H   UNL     1       7.576   9.846  17.431  0.00  0.00    +0.000 HD
ATOM      6  H   UNL     1       7.330   8.034  16.117  0.00  0.00    +0.000 HD
ENDROOT
BRANCH   1   7
ATOM      7  C   UNL     1       9.065   9.992  18.916  0.00  0.00    +0.000 C 
BRANCH   7   8
ATOM      8  C   UNL     1       9.324  11.488  18.592  0.00  0.00    +0.000 C 
ATOM      9  C   UNL     1       9.274  12.364  19.856  0.00  0.00    +0.000 C 
ATOM     10  C   UNL     1      10.446  12.125  20.789  0.00  0.00    +0.000 C 
ATOM     11  O   UNL     1      11.692  12.278  20.123  0.00  0.00    +0.000 OA
ATOM     12  C   UNL     1      11.850  11.470  18.960  0.00  0.00    +0.000 C 
ATOM     13  C   UNL     1      10.721  11.685  17.959  0.00  0.00    +0.000 C 
BRANCH   8  15
ATOM     14  C   UNL     1       8.063  13.358  17.655  0.00  0.00    +0.000 C 
ATOM     15  O   UNL     1       8.360  11.963  17.617  0.00  0.00    +0.000 OA
ENDBRANCH   8  15
ENDBRANCH   7   8
ENDBRANCH   1   7
BRANCH   4  16
ATOM     16  C   UNL     1       6.972   6.085  16.834  0.00  0.00    +0.000 C 
BRANCH  16  17
ATOM     17  C   UNL     1       6.256   5.467  18.054  0.00  0.00    +0.000 C 
BRANCH  17  18
ATOM     18  C   UNL     1       4.733   5.554  18.076  0.00  0.00    +0.000 A 
ATOM     19  C   UNL     1       4.099   6.808  18.003  0.00  0.00    +0.000 A 
ATOM     20  C   UNL     1       2.703   6.921  17.993  0.00  0.00    +0.000 A 
ATOM     21  C   UNL     1       2.039   8.266  17.929  0.00  0.00    +0.000 C 
ATOM     22  C   UNL     1       1.923   5.761  18.037  0.00  0.00    +0.000 A 
ATOM     23  C   UNL     1       2.525   4.500  18.080  0.00  0.00    +0.000 A 
ATOM     24  C   UNL     1       1.693   3.252  18.104  0.00  0.00    +0.000 C 
ATOM     25  C   UNL     1       3.925   4.404  18.095  0.00  0.00    +0.000 A 
ENDBRANCH  17  18
BRANCH  17  26
ATOM     26  O   UNL     1       6.686   4.096  18.141  0.00  0.00    +0.000 OA
ATOM     27  H   UNL     1       5.890   3.584  18.381  0.00  0.00    +0.000 HD
ENDBRANCH  17  26
ENDBRANCH  16  17
ENDBRANCH   4  16
TORSDOF 7
ENDMDL
MODEL 5
REMARK VINA RESULT:      -7.4      1.822      2.494
REMARK  Name = 
REMARK  10 active torsions:
REMARK  status: ('A' for Active; 'I' for Inactive)
REMARK    1  A    between atoms: C_1  and  O_2
REMARK    2  A    between atoms: O_2  and  C_3
REMARK    3  A    between atoms: C_3  and  C_4
REMARK    4  A    between atoms: C_4  and  N_5
REMARK    5  A    between atoms: N_8  and  C_9
REMARK    6  A    between atoms: C_9  and  C_10
REMARK    7  A    between atoms: C_10  and  O_11
REMARK    8  A    between atoms: C_10  and  C_12
REMARK    9  A    between atoms: C_14  and  C_15
REMARK   10  A    between atoms: C_17  and  C_18
REMARK                            x       y       z     vdW  Elec       q    Type
REMARK                         _______ _______ _______ _____ _____    ______ ____
ROOT
ATOM      1  N   UNL     1       8.667   8.935  18.668  0.00  0.00    +0.000 N 
ATOM      2  C   UNL     1       7.913   8.063  17.921  0.00  0.00    +0.000 C 
ATOM      3  O   UNL     1       7.338   8.368  16.893  0.00  0.00    +0.000 OA
ATOM      4  N   UNL     1       7.905   6.813  18.477  0.00  0.00    +0.000 N 
ATOM      5  H   UNL     1       9.419   8.522  19.201  0.00  0.00    +0.000 HD
ATOM      6  H   UNL     1       7.983   6.811  19.483  0.00  0.00    +0.000 HD
ENDROOT
BRANCH   1   7
ATOM      7  C   UNL     1       8.905  10.295  18.184  0.00  0.00    +0.000 C 
BRANCH   7   8
ATOM      8  C   UNL     1       9.590  11.206  19.237  0.00  0.00    +0.000 C 
ATOM      9  C   UNL     1      11.106  11.319  18.999  0.00  0.00    +0.000 C 
ATOM     10  C   UNL     1      11.452  12.110  17.751  0.00  0.00    +0.000 C 
ATOM     11  O   UNL     1      10.849  13.397  17.758  0.00  0.00    +0.000 OA
ATOM     12  C   UNL     1       9.435  13.393  17.930  0.00  0.00    +0.000 C 
ATOM     13  C   UNL     1       9.016  12.640  19.188  0.00  0.00    +0.000 C 
BRANCH   8  15
ATOM     14  C   UNL     1       8.937  11.675  21.544  0.00  0.00    +0.000 C 
ATOM     15  O   UNL     1       9.332  10.706  20.575  0.00  0.00    +0.000 OA
ENDBRANCH   8  15
ENDBRANCH   7   8
ENDBRANCH   1   7
BRANCH   4  16
ATOM     16  C   UNL     1       7.046   5.773  17.907  0.00  0.00    +0.000 C 
BRANCH  16  17
ATOM     17  C   UNL     1       6.117   5.108  18.945  0.00  0.00    +0.000 C 
BRANCH  17  18
ATOM     18  C   UNL     1       4.662   5.566  18.961  0.00  0.00    +0.000 A 
ATOM     19  C   UNL     1       3.708   4.852  19.710  0.00  0.00    +0.000 A 
ATOM     20  C   UNL     1       2.370   5.263  19.770  0.00  0.00    +0.000 A 
ATOM     21  C   UNL     1       1.360   4.484  20.561  0.00  0.00    +0.000 C 
ATOM     22  C   UNL     1       1.979   6.417  19.085  0.00  0.00    +0.000 A 
ATOM     23  C   UNL     1       2.910   7.163  18.356  0.00  0.00    +0.000 A 
ATOM     24  C   UNL     1       2.499   8.415  17.639  0.00  0.00    +0.000 C 
ATOM     25  C   UNL     1       4.245   6.736  18.303  0.00  0.00    +0.000 A 
ENDBRANCH  17  18
BRANCH  17  26
ATOM     26  O   UNL     1       6.198   3.688  18.729  0.00  0.00    +0.000 OA
ATOM     27  H   UNL     1       5.278   3.362  18.769  0.00  0.00    +0.000 HD
ENDBRANCH  17  26
ENDBRANCH  16  17
ENDBRANCH   4  16
TORSDOF 7
ENDMDL
MODEL 6
REMARK VINA RESULT:      -7.3      6.030      9.183
REMARK  Name = 
REMARK  10 active torsions:
REMARK  status: ('A' for Active; 'I' for Inactive)
REMARK    1  A    between atoms: C_1  and  O_2
REMARK    2  A    between atoms: O_2  and  C_3
REMARK    3  A    between atoms: C_3  and  C_4
REMARK    4  A    between atoms: C_4  and  N_5
REMARK    5  A    between atoms: N_8  and  C_9
REMARK    6  A    between atoms: C_9  and  C_10
REMARK    7  A    between atoms: C_10  and  O_11
REMARK    8  A    between atoms: C_10  and  C_12
REMARK    9  A    between atoms: C_14  and  C_15
REMARK   10  A    between atoms: C_17  and  C_18
REMARK                            x       y       z     vdW  Elec       q    Type
REMARK                         _______ _______ _______ _____ _____    ______ ____
ROOT
ATOM      1  N   UNL     1       2.780   6.312  20.051  0.00  0.00    +0.000 N 
ATOM      2  C   UNL     1       2.582   7.244  19.060  0.00  0.00    +0.000 C 
ATOM      3  O   UNL     1       3.113   7.199  17.967  0.00  0.00    +0.000 OA
ATOM      4  N   UNL     1       1.705   8.215  19.461  0.00  0.00    +0.000 N 
ATOM      5  H   UNL     1       2.012   6.184  20.694  0.00  0.00    +0.000 HD
ATOM      6  H   UNL     1       1.729   8.405  20.452  0.00  0.00    +0.000 HD
ENDROOT
BRANCH   1   7
ATOM      7  C   UNL     1       3.589   5.123  19.784  0.00  0.00    +0.000 C 
BRANCH   7   8
ATOM      8  C   UNL     1       2.783   3.801  19.889  0.00  0.00    +0.000 C 
ATOM      9  C   UNL     1       1.408   3.912  19.209  0.00  0.00    +0.000 C 
ATOM     10  C   UNL     1       1.501   4.005  17.697  0.00  0.00    +0.000 C 
ATOM     11  O   UNL     1       2.245   2.927  17.147  0.00  0.00    +0.000 OA
ATOM     12  C   UNL     1       3.555   2.770  17.686  0.00  0.00    +0.000 C 
ATOM     13  C   UNL     1       3.534   2.637  19.204  0.00  0.00    +0.000 C 
BRANCH   8  15
ATOM     14  C   UNL     1       1.428   2.714  21.605  0.00  0.00    +0.000 C 
ATOM     15  O   UNL     1       2.622   3.423  21.281  0.00  0.00    +0.000 OA
ENDBRANCH   8  15
ENDBRANCH   7   8
ENDBRANCH   1   7
BRANCH   4  16
ATOM     16  C   UNL     1       1.467   9.375  18.600  0.00  0.00    +0.000 C 
BRANCH  16  17
ATOM     17  C   UNL     1       0.716  10.522  19.310  0.00  0.00    +0.000 C 
BRANCH  17  18
ATOM     18  C   UNL     1      -0.704  10.813  18.835  0.00  0.00    +0.000 A 
ATOM     19  C   UNL     1      -1.181  10.232  17.645  0.00  0.00    +0.000 A 
ATOM     20  C   UNL     1      -2.489  10.456  17.196  0.00  0.00    +0.000 A 
ATOM     21  C   UNL     1      -2.980   9.842  15.918  0.00  0.00    +0.000 C 
ATOM     22  C   UNL     1      -3.343  11.260  17.956  0.00  0.00    +0.000 A 
ATOM     23  C   UNL     1      -2.907  11.827  19.158  0.00  0.00    +0.000 A 
ATOM     24  C   UNL     1      -3.828  12.671  19.988  0.00  0.00    +0.000 C 
ATOM     25  C   UNL     1      -1.593  11.596  19.591  0.00  0.00    +0.000 A 
ENDBRANCH  17  18
BRANCH  17  26
ATOM     26  O   UNL     1       0.728  10.221  20.717  0.00  0.00    +0.000 OA
ATOM     27  H   UNL     1      -0.206  10.078  20.964  0.00  0.00    +0.000 HD
ENDBRANCH  17  26
ENDBRANCH  16  17
ENDBRANCH   4  16
TORSDOF 7
ENDMDL
MODEL 7
REMARK VINA RESULT:      -7.3      6.153      9.397
REMARK  Name = 
REMARK  10 active torsions:
REMARK  status: ('A' for Active; 'I' for Inactive)
REMARK    1  A    between atoms: C_1  and  O_2
REMARK    2  A    between atoms: O_2  and  C_3
REMARK    3  A    between atoms: C_3  and  C_4
REMARK    4  A    between atoms: C_4  and  N_5
REMARK    5  A    between atoms: N_8  and  C_9
REMARK    6  A    between atoms: C_9  and  C_10
REMARK    7  A    between atoms: C_10  and  O_11
REMARK    8  A    between atoms: C_10  and  C_12
REMARK    9  A    between atoms: C_14  and  C_15
REMARK   10  A    between atoms: C_17  and  C_18
REMARK                            x       y       z     vdW  Elec       q    Type
REMARK                         _______ _______ _______ _____ _____    ______ ____
ROOT
ATOM      1  N   UNL     1       2.925   6.342  20.029  0.00  0.00    +0.000 N 
ATOM      2  C   UNL     1       2.470   7.208  19.064  0.00  0.00    +0.000 C 
ATOM      3  O   UNL     1       2.638   7.047  17.870  0.00  0.00    +0.000 OA
ATOM      4  N   UNL     1       1.798   8.263  19.621  0.00  0.00    +0.000 N 
ATOM      5  H   UNL     1       2.387   6.314  20.884  0.00  0.00    +0.000 HD
ATOM      6  H   UNL     1       2.131   8.524  20.537  0.00  0.00    +0.000 HD
ENDROOT
BRANCH   1   7
ATOM      7  C   UNL     1       3.565   5.086  19.640  0.00  0.00    +0.000 C 
BRANCH   7   8
ATOM      8  C   UNL     1       2.673   3.842  19.899  0.00  0.00    +0.000 C 
ATOM      9  C   UNL     1       1.366   3.896  19.090  0.00  0.00    +0.000 C 
ATOM     10  C   UNL     1       1.583   3.716  17.599  0.00  0.00    +0.000 C 
ATOM     11  O   UNL     1       2.301   2.525  17.311  0.00  0.00    +0.000 OA
ATOM     12  C   UNL     1       3.552   2.404  17.982  0.00  0.00    +0.000 C 
ATOM     13  C   UNL     1       3.403   2.542  19.493  0.00  0.00    +0.000 C 
BRANCH   8  15
ATOM     14  C   UNL     1       1.617   2.583  21.706  0.00  0.00    +0.000 C 
ATOM     15  O   UNL     1       2.379   3.723  21.315  0.00  0.00    +0.000 OA
ENDBRANCH   8  15
ENDBRANCH   7   8
ENDBRANCH   1   7
BRANCH   4  16
ATOM     16  C   UNL     1       1.354   9.368  18.769  0.00  0.00    +0.000 C 
BRANCH  16  17
ATOM     17  C   UNL     1       0.412  10.356  19.489  0.00  0.00    +0.000 C 
BRANCH  17  18
ATOM     18  C   UNL     1      -0.945  10.612  18.840  0.00  0.00    +0.000 A 
ATOM     19  C   UNL     1      -1.885  11.444  19.478  0.00  0.00    +0.000 A 
ATOM     20  C   UNL     1      -3.128  11.722  18.896  0.00  0.00    +0.000 A 
ATOM     21  C   UNL     1      -4.126  12.599  19.593  0.00  0.00    +0.000 C 
ATOM     22  C   UNL     1      -3.434  11.175  17.646  0.00  0.00    +0.000 A 
ATOM     23  C   UNL     1      -2.509  10.369  16.975  0.00  0.00    +0.000 A 
ATOM     24  C   UNL     1      -2.824   9.800  15.623  0.00  0.00    +0.000 C 
ATOM     25  C   UNL     1      -1.270  10.097  17.574  0.00  0.00    +0.000 A 
ENDBRANCH  17  18
BRANCH  17  26
ATOM     26  O   UNL     1       0.246   9.872  20.834  0.00  0.00    +0.000 OA
ATOM     27  H   UNL     1       0.484   8.925  20.805  0.00  0.00    +0.000 HD
ENDBRANCH  17  26
ENDBRANCH  16  17
ENDBRANCH   4  16
TORSDOF 7
ENDMDL
MODEL 8
REMARK VINA RESULT:      -7.3      1.903      2.806
REMARK  Name = 
REMARK  10 active torsions:
REMARK  status: ('A' for Active; 'I' for Inactive)
REMARK    1  A    between atoms: C_1  and  O_2
REMARK    2  A    between atoms: O_2  and  C_3
REMARK    3  A    between atoms: C_3  and  C_4
REMARK    4  A    between atoms: C_4  and  N_5
REMARK    5  A    between atoms: N_8  and  C_9
REMARK    6  A    between atoms: C_9  and  C_10
REMARK    7  A    between atoms: C_10  and  O_11
REMARK    8  A    between atoms: C_10  and  C_12
REMARK    9  A    between atoms: C_14  and  C_15
REMARK   10  A    between atoms: C_17  and  C_18
REMARK                            x       y       z     vdW  Elec       q    Type
REMARK                         _______ _______ _______ _____ _____    ______ ____
ROOT
ATOM      1  N   UNL     1       8.970   9.163  19.058  0.00  0.00    +0.000 N 
ATOM      2  C   UNL     1       8.225   8.380  18.210  0.00  0.00    +0.000 C 
ATOM      3  O   UNL     1       7.732   8.777  17.172  0.00  0.00    +0.000 OA
ATOM      4  N   UNL     1       8.121   7.098  18.681  0.00  0.00    +0.000 N 
ATOM      5  H   UNL     1       9.666   8.678  19.608  0.00  0.00    +0.000 HD
ATOM      6  H   UNL     1       8.134   7.029  19.688  0.00  0.00    +0.000 HD
ENDROOT
BRANCH   1   7
ATOM      7  C   UNL     1       9.304  10.535  18.680  0.00  0.00    +0.000 C 
BRANCH   7   8
ATOM      8  C   UNL     1       9.682  11.428  19.893  0.00  0.00    +0.000 C 
ATOM      9  C   UNL     1      11.206  11.581  20.039  0.00  0.00    +0.000 C 
ATOM     10  C   UNL     1      11.825  12.419  18.936  0.00  0.00    +0.000 C 
ATOM     11  O   UNL     1      11.202  13.691  18.827  0.00  0.00    +0.000 OA
ATOM     12  C   UNL     1       9.790  13.651  18.644  0.00  0.00    +0.000 C 
ATOM     13  C   UNL     1       9.097  12.850  19.740  0.00  0.00    +0.000 C 
BRANCH   8  15
ATOM     14  C   UNL     1       8.616  11.826  22.054  0.00  0.00    +0.000 C 
ATOM     15  O   UNL     1       9.117  10.879  21.112  0.00  0.00    +0.000 OA
ENDBRANCH   8  15
ENDBRANCH   7   8
ENDBRANCH   1   7
BRANCH   4  16
ATOM     16  C   UNL     1       7.251   6.143  17.993  0.00  0.00    +0.000 C 
BRANCH  16  17
ATOM     17  C   UNL     1       6.388   5.297  18.953  0.00  0.00    +0.000 C 
BRANCH  17  18
ATOM     18  C   UNL     1       4.901   5.631  19.019  0.00  0.00    +0.000 A 
ATOM     19  C   UNL     1       4.396   6.735  18.307  0.00  0.00    +0.000 A 
ATOM     20  C   UNL     1       3.032   7.053  18.323  0.00  0.00    +0.000 A 
ATOM     21  C   UNL     1       2.509   8.241  17.571  0.00  0.00    +0.000 C 
ATOM     22  C   UNL     1       2.152   6.245  19.049  0.00  0.00    +0.000 A 
ATOM     23  C   UNL     1       2.620   5.124  19.743  0.00  0.00    +0.000 A 
ATOM     24  C   UNL     1       1.676   4.241  20.503  0.00  0.00    +0.000 C 
ATOM     25  C   UNL     1       3.990   4.823  19.719  0.00  0.00    +0.000 A 
ENDBRANCH  17  18
BRANCH  17  26
ATOM     26  O   UNL     1       6.582   3.919  18.585  0.00  0.00    +0.000 OA
ATOM     27  H   UNL     1       7.548   3.797  18.517  0.00  0.00    +0.000 HD
ENDBRANCH  17  26
ENDBRANCH  16  17
ENDBRANCH   4  16
TORSDOF 7
ENDMDL
MODEL 9
REMARK VINA RESULT:      -7.1      5.727      9.026
REMARK  Name = 
REMARK  10 active torsions:
REMARK  status: ('A' for Active; 'I' for Inactive)
REMARK    1  A    between atoms: C_1  and  O_2
REMARK    2  A    between atoms: O_2  and  C_3
REMARK    3  A    between atoms: C_3  and  C_4
REMARK    4  A    between atoms: C_4  and  N_5
REMARK    5  A    between atoms: N_8  and  C_9
REMARK    6  A    between atoms: C_9  and  C_10
REMARK    7  A    between atoms: C_10  and  O_11
REMARK    8  A    between atoms: C_10  and  C_12
REMARK    9  A    between atoms: C_14  and  C_15
REMARK   10  A    between atoms: C_17  and  C_18
REMARK                            x       y       z     vdW  Elec       q    Type
REMARK                         _______ _______ _______ _____ _____    ______ ____
ROOT
ATOM      1  N   UNL     1       3.225   6.282  19.766  0.00  0.00    +0.000 N 
ATOM      2  C   UNL     1       2.115   6.581  20.518  0.00  0.00    +0.000 C 
ATOM      3  O   UNL     1       1.333   5.750  20.939  0.00  0.00    +0.000 OA
ATOM      4  N   UNL     1       2.013   7.928  20.739  0.00  0.00    +0.000 N 
ATOM      5  H   UNL     1       3.999   6.926  19.848  0.00  0.00    +0.000 HD
ATOM      6  H   UNL     1       2.390   8.495  19.994  0.00  0.00    +0.000 HD
ENDROOT
BRANCH   1   7
ATOM      7  C   UNL     1       3.585   4.887  19.518  0.00  0.00    +0.000 C 
BRANCH   7   8
ATOM      8  C   UNL     1       3.329   4.442  18.053  0.00  0.00    +0.000 C 
ATOM      9  C   UNL     1       3.962   3.072  17.751  0.00  0.00    +0.000 C 
ATOM     10  C   UNL     1       3.265   1.928  18.464  0.00  0.00    +0.000 C 
ATOM     11  O   UNL     1       1.870   1.907  18.190  0.00  0.00    +0.000 OA
ATOM     12  C   UNL     1       1.187   3.122  18.480  0.00  0.00    +0.000 C 
ATOM     13  C   UNL     1       1.815   4.314  17.768  0.00  0.00    +0.000 C 
BRANCH   8  15
ATOM     14  C   UNL     1       5.230   5.365  16.829  0.00  0.00    +0.000 C 
ATOM     15  O   UNL     1       3.838   5.440  17.131  0.00  0.00    +0.000 OA
ENDBRANCH   8  15
ENDBRANCH   7   8
ENDBRANCH   1   7
BRANCH   4  16
ATOM     16  C   UNL     1       0.824   8.464  21.403  0.00  0.00    +0.000 C 
BRANCH  16  17
ATOM     17  C   UNL     1       0.824  10.004  21.513  0.00  0.00    +0.000 C 
BRANCH  17  18
ATOM     18  C   UNL     1       0.137  10.775  20.390  0.00  0.00    +0.000 A 
ATOM     19  C   UNL     1      -0.665  10.093  19.456  0.00  0.00    +0.000 A 
ATOM     20  C   UNL     1      -1.332  10.775  18.431  0.00  0.00    +0.000 A 
ATOM     21  C   UNL     1      -2.172  10.033  17.433  0.00  0.00    +0.000 C 
ATOM     22  C   UNL     1      -1.214  12.165  18.345  0.00  0.00    +0.000 A 
ATOM     23  C   UNL     1      -0.448  12.874  19.277  0.00  0.00    +0.000 A 
ATOM     24  C   UNL     1      -0.337  14.368  19.203  0.00  0.00    +0.000 C 
ATOM     25  C   UNL     1       0.218  12.175  20.295  0.00  0.00    +0.000 A 
ENDBRANCH  17  18
BRANCH  17  26
ATOM     26  O   UNL     1       0.239  10.333  22.786  0.00  0.00    +0.000 OA
ATOM     27  H   UNL     1       0.424  11.282  22.924  0.00  0.00    +0.000 HD
ENDBRANCH  17  26
ENDBRANCH  16  17
ENDBRANCH   4  16
TORSDOF 7
ENDMDL
