MODEL 1
REMARK VINA RESULT:      -7.3      0.000      0.000
REMARK  Name = 
REMARK  3 active torsions:
REMARK  status: ('A' for Active; 'I' for Inactive)
REMARK    1  A    between atoms: C_4  and  N_5
REMARK    2  A    between atoms: N_8  and  C_9
REMARK    3  A    between atoms: N_19  and  C_20
REMARK                            x       y       z     vdW  Elec       q    Type
REMARK                         _______ _______ _______ _____ _____    ______ ____
ROOT
ATOM      1  O   UNL     1       2.648   8.922  17.000  0.00  0.00    +0.000 OA
ATOM      2  C   UNL     1       2.252   8.672  18.132  0.00  0.00    +0.000 C 
ATOM      3  C   UNL     1       1.650   9.735  18.997  0.00  0.00    +0.000 C 
ATOM      4  C   UNL     1       1.214   9.027  20.275  0.00  0.00    +0.000 C 
ATOM      5  C   UNL     1       1.830   7.640  20.105  0.00  0.00    +0.000 C 
ATOM      6  O   UNL     1       1.972   6.856  21.038  0.00  0.00    +0.000 OA
ATOM      7  N   UNL     1       2.266   7.481  18.809  0.00  0.00    +0.000 N 
ENDROOT
BRANCH   7   8
ATOM      8  C   UNL     1       2.755   6.247  18.286  0.00  0.00    +0.000 A 
ATOM      9  C   UNL     1       1.899   5.165  18.030  0.00  0.00    +0.000 A 
ATOM     10  C   UNL     1       2.392   3.951  17.536  0.00  0.00    +0.000 A 
ATOM     11  C   UNL     1       3.756   3.790  17.310  0.00  0.00    +0.000 A 
ATOM     12  C   UNL     1       4.617   4.851  17.567  0.00  0.00    +0.000 A 
ATOM     13 BR   UNL     1       6.477   4.631  17.300  0.00  0.00    +0.000 Br
ATOM     14  C   UNL     1       4.126   6.070  18.041  0.00  0.00    +0.000 A 
ENDBRANCH   7   8
BRANCH   4  15
ATOM     15  N   UNL     1      -0.259   8.941  20.476  0.00  0.00    +0.000 NA
ATOM     16  C   UNL     1      -0.619   8.841  21.924  0.00  0.00    +0.000 C 
ATOM     17  C   UNL     1      -0.288  10.093  22.770  0.00  0.00    +0.000 C 
ATOM     18  N   UNL     1      -0.850  11.302  22.151  0.00  0.00    +0.000 N 
ATOM     19  C   UNL     1      -0.696  11.466  20.702  0.00  0.00    +0.000 C 
ATOM     20  C   UNL     1      -0.987  10.134  19.966  0.00  0.00    +0.000 C 
BRANCH  18  21
ATOM     21  C   UNL     1      -1.540  12.247  22.889  0.00  0.00    +0.000 A 
ATOM     22  C   UNL     1      -1.014  13.528  23.122  0.00  0.00    +0.000 A 
ATOM     23  C   UNL     1      -1.729  14.494  23.841  0.00  0.00    +0.000 A 
ATOM     24  C   UNL     1      -2.994  14.197  24.338  0.00  0.00    +0.000 A 
ATOM     25  C   UNL     1      -3.535  12.937  24.123  0.00  0.00    +0.000 A 
ATOM     26  C   UNL     1      -2.814  11.976  23.411  0.00  0.00    +0.000 A 
ENDBRANCH  18  21
ENDBRANCH   4  15
TORSDOF 3
ENDMDL
MODEL 2
REMARK VINA RESULT:      -7.0      1.189      1.770
REMARK  Name = 
REMARK  3 active torsions:
REMARK  status: ('A' for Active; 'I' for Inactive)
REMARK    1  A    between atoms: C_4  and  N_5
REMARK    2  A    between atoms: N_8  and  C_9
REMARK    3  A    between atoms: N_19  and  C_20
REMARK                            x       y       z     vdW  Elec       q    Type
REMARK                         _______ _______ _______ _____ _____    ______ ____
ROOT
ATOM      1  O   UNL     1       2.601   8.793  16.979  0.00  0.00    +0.000 OA
ATOM      2  C   UNL     1       2.176   8.687  18.122  0.00  0.00    +0.000 C 
ATOM      3  C   UNL     1       1.535   9.844  18.824  0.00  0.00    +0.000 C 
ATOM      4  C   UNL     1       1.072   9.302  20.171  0.00  0.00    +0.000 C 
ATOM      5  C   UNL     1       1.711   7.916  20.202  0.00  0.00    +0.000 C 
ATOM      6  O   UNL     1       1.837   7.264  21.234  0.00  0.00    +0.000 OA
ATOM      7  N   UNL     1       2.186   7.595  18.951  0.00  0.00    +0.000 N 
ENDROOT
BRANCH   7   8
ATOM      8  C   UNL     1       2.706   6.312  18.608  0.00  0.00    +0.000 A 
ATOM      9  C   UNL     1       3.977   6.162  18.033  0.00  0.00    +0.000 A 
ATOM     10  C   UNL     1       4.470   4.899  17.682  0.00  0.00    +0.000 A 
ATOM     11  C   UNL     1       3.690   3.764  17.879  0.00  0.00    +0.000 A 
ATOM     12  C   UNL     1       2.424   3.898  18.440  0.00  0.00    +0.000 A 
ATOM     13 BR   UNL     1       1.340   2.366  18.677  0.00  0.00    +0.000 Br
ATOM     14  C   UNL     1       1.938   5.155  18.811  0.00  0.00    +0.000 A 
ENDBRANCH   7   8
BRANCH   4  15
ATOM     15  N   UNL     1      -0.405   9.218  20.343  0.00  0.00    +0.000 NA
ATOM     16  C   UNL     1      -0.791   9.046  21.778  0.00  0.00    +0.000 C 
ATOM     17  C   UNL     1      -0.465  10.248  22.693  0.00  0.00    +0.000 C 
ATOM     18  N   UNL     1      -1.008  11.494  22.129  0.00  0.00    +0.000 N 
ATOM     19  C   UNL     1      -0.827  11.731  20.693  0.00  0.00    +0.000 C 
ATOM     20  C   UNL     1      -1.115  10.442  19.885  0.00  0.00    +0.000 C 
BRANCH  18  21
ATOM     21  C   UNL     1      -1.703  12.404  22.904  0.00  0.00    +0.000 A 
ATOM     22  C   UNL     1      -2.960  12.099  23.450  0.00  0.00    +0.000 A 
ATOM     23  C   UNL     1      -3.646  13.010  24.263  0.00  0.00    +0.000 A 
ATOM     24  C   UNL     1      -3.082  14.248  24.551  0.00  0.00    +0.000 A 
ATOM     25  C   UNL     1      -1.841  14.575  24.022  0.00  0.00    +0.000 A 
ATOM     26  C   UNL     1      -1.165  13.664  23.207  0.00  0.00    +0.000 A 
ENDBRANCH  18  21
ENDBRANCH   4  15
TORSDOF 3
ENDMDL
MODEL 3
REMARK VINA RESULT:      -7.0      1.322      1.623
REMARK  Name = 
REMARK  3 active torsions:
REMARK  status: ('A' for Active; 'I' for Inactive)
REMARK    1  A    between atoms: C_4  and  N_5
REMARK    2  A    between atoms: N_8  and  C_9
REMARK    3  A    between atoms: N_19  and  C_20
REMARK                            x       y       z     vdW  Elec       q    Type
REMARK                         _______ _______ _______ _____ _____    ______ ____
ROOT
ATOM      1  O   UNL     1       2.591   8.503  17.075  0.00  0.00    +0.000 OA
ATOM      2  C   UNL     1       2.170   8.566  18.224  0.00  0.00    +0.000 C 
ATOM      3  C   UNL     1       1.508   9.805  18.742  0.00  0.00    +0.000 C 
ATOM      4  C   UNL     1       1.058   9.468  20.158  0.00  0.00    +0.000 C 
ATOM      5  C   UNL     1       1.723   8.115  20.399  0.00  0.00    +0.000 C 
ATOM      6  O   UNL     1       1.862   7.632  21.518  0.00  0.00    +0.000 OA
ATOM      7  N   UNL     1       2.202   7.615  19.210  0.00  0.00    +0.000 N 
ENDROOT
BRANCH   7   8
ATOM      8  C   UNL     1       2.746   6.304  19.067  0.00  0.00    +0.000 A 
ATOM      9  C   UNL     1       4.126   6.090  18.933  0.00  0.00    +0.000 A 
ATOM     10  C   UNL     1       4.648   4.801  18.773  0.00  0.00    +0.000 A 
ATOM     11  C   UNL     1       3.795   3.702  18.720  0.00  0.00    +0.000 A 
ATOM     12  C   UNL     1       2.424   3.900  18.842  0.00  0.00    +0.000 A 
ATOM     13 BR   UNL     1       1.253   2.418  18.733  0.00  0.00    +0.000 Br
ATOM     14  C   UNL     1       1.902   5.183  19.023  0.00  0.00    +0.000 A 
ENDBRANCH   7   8
BRANCH   4  15
ATOM     15  N   UNL     1      -0.417   9.384  20.347  0.00  0.00    +0.000 NA
ATOM     16  C   UNL     1      -0.786   9.183  21.782  0.00  0.00    +0.000 C 
ATOM     17  C   UNL     1      -0.445  10.365  22.719  0.00  0.00    +0.000 C 
ATOM     18  N   UNL     1      -0.991  11.623  22.188  0.00  0.00    +0.000 N 
ATOM     19  C   UNL     1      -0.828  11.891  20.755  0.00  0.00    +0.000 C 
ATOM     20  C   UNL     1      -1.130  10.620  19.923  0.00  0.00    +0.000 C 
BRANCH  18  21
ATOM     21  C   UNL     1      -1.674  12.519  22.990  0.00  0.00    +0.000 A 
ATOM     22  C   UNL     1      -1.101  13.737  23.389  0.00  0.00    +0.000 A 
ATOM     23  C   UNL     1      -1.807  14.658  24.173  0.00  0.00    +0.000 A 
ATOM     24  C   UNL     1      -3.110  14.377  24.571  0.00  0.00    +0.000 A 
ATOM     25  C   UNL     1      -3.699  13.179  24.192  0.00  0.00    +0.000 A 
ATOM     26  C   UNL     1      -2.986  12.263  23.416  0.00  0.00    +0.000 A 
ENDBRANCH  18  21
ENDBRANCH   4  15
TORSDOF 3
ENDMDL
MODEL 4
REMARK VINA RESULT:      -6.7      3.735      9.173
REMARK  Name = 
REMARK  3 active torsions:
REMARK  status: ('A' for Active; 'I' for Inactive)
REMARK    1  A    between atoms: C_4  and  N_5
REMARK    2  A    between atoms: N_8  and  C_9
REMARK    3  A    between atoms: N_19  and  C_20
REMARK                            x       y       z     vdW  Elec       q    Type
REMARK                         _______ _______ _______ _____ _____    ______ ____
ROOT
ATOM      1  O   UNL     1      -2.664  13.212  20.153  0.00  0.00    +0.000 OA
ATOM      2  C   UNL     1      -1.982  12.352  20.698  0.00  0.00    +0.000 C 
ATOM      3  C   UNL     1      -1.302  11.281  19.903  0.00  0.00    +0.000 C 
ATOM      4  C   UNL     1      -0.498  10.468  20.911  0.00  0.00    +0.000 C 
ATOM      5  C   UNL     1      -0.989  11.027  22.244  0.00  0.00    +0.000 C 
ATOM      6  O   UNL     1      -0.819  10.447  23.312  0.00  0.00    +0.000 OA
ATOM      7  N   UNL     1      -1.707  12.181  22.029  0.00  0.00    +0.000 N 
ENDROOT
BRANCH   7   8
ATOM      8  C   UNL     1      -2.177  13.026  23.077  0.00  0.00    +0.000 A 
ATOM      9  C   UNL     1      -3.458  12.874  23.629  0.00  0.00    +0.000 A 
ATOM     10  C   UNL     1      -3.917  13.722  24.644  0.00  0.00    +0.000 A 
ATOM     11  C   UNL     1      -3.109  14.754  25.111  0.00  0.00    +0.000 A 
ATOM     12  C   UNL     1      -1.841  14.924  24.568  0.00  0.00    +0.000 A 
ATOM     13 BR   UNL     1      -0.749  16.348  25.167  0.00  0.00    +0.000 Br
ATOM     14  C   UNL     1      -1.372  14.066  23.569  0.00  0.00    +0.000 A 
ENDBRANCH   7   8
BRANCH   4  15
ATOM     15  N   UNL     1       0.980  10.594  20.787  0.00  0.00    +0.000 NA
ATOM     16  C   UNL     1       1.694   9.450  21.434  0.00  0.00    +0.000 C 
ATOM     17  C   UNL     1       1.468   8.074  20.768  0.00  0.00    +0.000 C 
ATOM     18  N   UNL     1       1.746   8.142  19.325  0.00  0.00    +0.000 N 
ATOM     19  C   UNL     1       1.225   9.293  18.581  0.00  0.00    +0.000 C 
ATOM     20  C   UNL     1       1.447  10.605  19.374  0.00  0.00    +0.000 C 
BRANCH  18  21
ATOM     21  C   UNL     1       2.506   7.182  18.682  0.00  0.00    +0.000 A 
ATOM     22  C   UNL     1       2.280   5.810  18.877  0.00  0.00    +0.000 A 
ATOM     23  C   UNL     1       3.027   4.840  18.199  0.00  0.00    +0.000 A 
ATOM     24  C   UNL     1       4.018   5.227  17.302  0.00  0.00    +0.000 A 
ATOM     25  C   UNL     1       4.263   6.577  17.093  0.00  0.00    +0.000 A 
ATOM     26  C   UNL     1       3.518   7.539  17.778  0.00  0.00    +0.000 A 
ENDBRANCH  18  21
ENDBRANCH   4  15
TORSDOF 3
ENDMDL
MODEL 5
REMARK VINA RESULT:      -6.7      1.219      2.243
REMARK  Name = 
REMARK  3 active torsions:
REMARK  status: ('A' for Active; 'I' for Inactive)
REMARK    1  A    between atoms: C_4  and  N_5
REMARK    2  A    between atoms: N_8  and  C_9
REMARK    3  A    between atoms: N_19  and  C_20
REMARK                            x       y       z     vdW  Elec       q    Type
REMARK                         _______ _______ _______ _____ _____    ______ ____
ROOT
ATOM      1  O   UNL     1       1.800   4.858  21.043  0.00  0.00    +0.000 OA
ATOM      2  C   UNL     1       1.738   6.002  20.609  0.00  0.00    +0.000 C 
ATOM      3  C   UNL     1       0.800   7.008  21.201  0.00  0.00    +0.000 C 
ATOM      4  C   UNL     1       1.071   8.310  20.459  0.00  0.00    +0.000 C 
ATOM      5  C   UNL     1       1.998   7.856  19.334  0.00  0.00    +0.000 C 
ATOM      6  O   UNL     1       2.214   8.535  18.335  0.00  0.00    +0.000 OA
ATOM      7  N   UNL     1       2.439   6.577  19.583  0.00  0.00    +0.000 N 
ENDROOT
BRANCH   7   8
ATOM      8  C   UNL     1       3.433   5.918  18.800  0.00  0.00    +0.000 A 
ATOM      9  C   UNL     1       3.090   5.049  17.754  0.00  0.00    +0.000 A 
ATOM     10  C   UNL     1       4.074   4.391  17.004  0.00  0.00    +0.000 A 
ATOM     11  C   UNL     1       5.420   4.574  17.304  0.00  0.00    +0.000 A 
ATOM     12  C   UNL     1       5.776   5.426  18.344  0.00  0.00    +0.000 A 
ATOM     13 BR   UNL     1       7.601   5.652  18.785  0.00  0.00    +0.000 Br
ATOM     14  C   UNL     1       4.797   6.100  19.080  0.00  0.00    +0.000 A 
ENDBRANCH   7   8
BRANCH   4  15
ATOM     15  N   UNL     1       1.703   9.382  21.277  0.00  0.00    +0.000 NA
ATOM     16  C   UNL     1       1.399  10.745  20.743  0.00  0.00    +0.000 C 
ATOM     17  C   UNL     1      -0.088  11.164  20.822  0.00  0.00    +0.000 C 
ATOM     18  N   UNL     1      -0.606  10.986  22.187  0.00  0.00    +0.000 N 
ATOM     19  C   UNL     1      -0.264   9.748  22.894  0.00  0.00    +0.000 C 
ATOM     20  C   UNL     1       1.230   9.394  22.688  0.00  0.00    +0.000 C 
BRANCH  18  21
ATOM     21  C   UNL     1      -1.359  11.962  22.815  0.00  0.00    +0.000 A 
ATOM     22  C   UNL     1      -0.884  13.274  22.971  0.00  0.00    +0.000 A 
ATOM     23  C   UNL     1      -1.662  14.268  23.576  0.00  0.00    +0.000 A 
ATOM     24  C   UNL     1      -2.941  13.968  24.034  0.00  0.00    +0.000 A 
ATOM     25  C   UNL     1      -3.434  12.678  23.893  0.00  0.00    +0.000 A 
ATOM     26  C   UNL     1      -2.649  11.690  23.294  0.00  0.00    +0.000 A 
ENDBRANCH  18  21
ENDBRANCH   4  15
TORSDOF 3
ENDMDL
MODEL 6
REMARK VINA RESULT:      -6.5      3.267      9.113
REMARK  Name = 
REMARK  3 active torsions:
REMARK  status: ('A' for Active; 'I' for Inactive)
REMARK    1  A    between atoms: C_4  and  N_5
REMARK    2  A    between atoms: N_8  and  C_9
REMARK    3  A    between atoms: N_19  and  C_20
REMARK                            x       y       z     vdW  Elec       q    Type
REMARK                         _______ _______ _______ _____ _____    ______ ____
ROOT
ATOM      1  O   UNL     1      -0.565   8.993  22.470  0.00  0.00    +0.000 OA
ATOM      2  C   UNL     1       0.151   8.941  21.477  0.00  0.00    +0.000 C 
ATOM      3  C   UNL     1       1.259   7.941  21.370  0.00  0.00    +0.000 C 
ATOM      4  C   UNL     1       1.855   8.134  19.981  0.00  0.00    +0.000 C 
ATOM      5  C   UNL     1       1.162   9.408  19.505  0.00  0.00    +0.000 C 
ATOM      6  O   UNL     1       1.574  10.076  18.561  0.00  0.00    +0.000 OA
ATOM      7  N   UNL     1       0.114   9.709  20.343  0.00  0.00    +0.000 N 
ENDROOT
BRANCH   7   8
ATOM      8  C   UNL     1      -0.825  10.753  20.091  0.00  0.00    +0.000 A 
ATOM      9  C   UNL     1      -0.859  11.917  20.874  0.00  0.00    +0.000 A 
ATOM     10  C   UNL     1      -1.798  12.928  20.631  0.00  0.00    +0.000 A 
ATOM     11  C   UNL     1      -2.735  12.781  19.613  0.00  0.00    +0.000 A 
ATOM     12  C   UNL     1      -2.720  11.629  18.835  0.00  0.00    +0.000 A 
ATOM     13 BR   UNL     1      -4.014  11.402  17.474  0.00  0.00    +0.000 Br
ATOM     14  C   UNL     1      -1.771  10.628  19.062  0.00  0.00    +0.000 A 
ENDBRANCH   7   8
BRANCH   4  15
ATOM     15  N   UNL     1       1.623   7.009  19.034  0.00  0.00    +0.000 NA
ATOM     16  C   UNL     1       2.107   7.330  17.656  0.00  0.00    +0.000 C 
ATOM     17  C   UNL     1       3.637   7.505  17.522  0.00  0.00    +0.000 C 
ATOM     18  N   UNL     1       4.344   6.348  18.091  0.00  0.00    +0.000 N 
ATOM     19  C   UNL     1       3.883   5.829  19.382  0.00  0.00    +0.000 C 
ATOM     20  C   UNL     1       2.336   5.762  19.424  0.00  0.00    +0.000 C 
BRANCH  18  21
ATOM     21  C   UNL     1       5.388   5.731  17.425  0.00  0.00    +0.000 A 
ATOM     22  C   UNL     1       6.504   5.226  18.111  0.00  0.00    +0.000 A 
ATOM     23  C   UNL     1       7.543   4.571  17.438  0.00  0.00    +0.000 A 
ATOM     24  C   UNL     1       7.482   4.403  16.059  0.00  0.00    +0.000 A 
ATOM     25  C   UNL     1       6.389   4.894  15.357  0.00  0.00    +0.000 A 
ATOM     26  C   UNL     1       5.360   5.552  16.034  0.00  0.00    +0.000 A 
ENDBRANCH  18  21
ENDBRANCH   4  15
TORSDOF 3
ENDMDL
MODEL 7
REMARK VINA RESULT:      -6.4      3.670      9.129
REMARK  Name = 
REMARK  3 active torsions:
REMARK  status: ('A' for Active; 'I' for Inactive)
REMARK    1  A    between atoms: C_4  and  N_5
REMARK    2  A    between atoms: N_8  and  C_9
REMARK    3  A    between atoms: N_19  and  C_20
REMARK                            x       y       z     vdW  Elec       q    Type
REMARK                         _______ _______ _______ _____ _____    ______ ____
ROOT
ATOM      1  O   UNL     1      -2.296  12.664  19.295  0.00  0.00    +0.000 OA
ATOM      2  C   UNL     1      -1.668  11.800  19.894  0.00  0.00    +0.000 C 
ATOM      3  C   UNL     1      -0.948  10.713  19.157  0.00  0.00    +0.000 C 
ATOM      4  C   UNL     1      -0.231   9.897  20.226  0.00  0.00    +0.000 C 
ATOM      5  C   UNL     1      -0.809  10.473  21.517  0.00  0.00    +0.000 C 
ATOM      6  O   UNL     1      -0.724   9.899  22.598  0.00  0.00    +0.000 OA
ATOM      7  N   UNL     1      -1.492  11.635  21.242  0.00  0.00    +0.000 N 
ENDROOT
BRANCH   7   8
ATOM      8  C   UNL     1      -2.024  12.495  22.248  0.00  0.00    +0.000 A 
ATOM      9  C   UNL     1      -1.207  13.379  22.970  0.00  0.00    +0.000 A 
ATOM     10  C   UNL     1      -1.736  14.205  23.969  0.00  0.00    +0.000 A 
ATOM     11  C   UNL     1      -3.091  14.145  24.281  0.00  0.00    +0.000 A 
ATOM     12  C   UNL     1      -3.912  13.268  23.580  0.00  0.00    +0.000 A 
ATOM     13 BR   UNL     1      -5.748  13.151  24.022  0.00  0.00    +0.000 Br
ATOM     14  C   UNL     1      -3.391  12.457  22.568  0.00  0.00    +0.000 A 
ENDBRANCH   7   8
BRANCH   4  15
ATOM     15  N   UNL     1       1.254  10.001  20.209  0.00  0.00    +0.000 NA
ATOM     16  C   UNL     1       1.905   8.823  20.861  0.00  0.00    +0.000 C 
ATOM     17  C   UNL     1       1.704   7.475  20.131  0.00  0.00    +0.000 C 
ATOM     18  N   UNL     1       2.082   7.590  18.714  0.00  0.00    +0.000 N 
ATOM     19  C   UNL     1       1.631   8.776  17.978  0.00  0.00    +0.000 C 
ATOM     20  C   UNL     1       1.818  10.054  18.832  0.00  0.00    +0.000 C 
BRANCH  18  21
ATOM     21  C   UNL     1       2.870   6.641  18.090  0.00  0.00    +0.000 A 
ATOM     22  C   UNL     1       4.038   6.993  17.395  0.00  0.00    +0.000 A 
ATOM     23  C   UNL     1       4.853   6.026  16.793  0.00  0.00    +0.000 A 
ATOM     24  C   UNL     1       4.515   4.680  16.880  0.00  0.00    +0.000 A 
ATOM     25  C   UNL     1       3.365   4.305  17.560  0.00  0.00    +0.000 A 
ATOM     26  C   UNL     1       2.553   5.275  18.152  0.00  0.00    +0.000 A 
ENDBRANCH  18  21
ENDBRANCH   4  15
TORSDOF 3
ENDMDL
MODEL 8
REMARK VINA RESULT:      -6.4      3.163      5.297
REMARK  Name = 
REMARK  3 active torsions:
REMARK  status: ('A' for Active; 'I' for Inactive)
REMARK    1  A    between atoms: C_4  and  N_5
REMARK    2  A    between atoms: N_8  and  C_9
REMARK    3  A    between atoms: N_19  and  C_20
REMARK                            x       y       z     vdW  Elec       q    Type
REMARK                         _______ _______ _______ _____ _____    ______ ____
ROOT
ATOM      1  O   UNL     1       6.180   7.368  16.337  0.00  0.00    +0.000 OA
ATOM      2  C   UNL     1       5.514   6.429  16.755  0.00  0.00    +0.000 C 
ATOM      3  C   UNL     1       4.780   6.516  18.058  0.00  0.00    +0.000 C 
ATOM      4  C   UNL     1       4.016   5.205  18.188  0.00  0.00    +0.000 C 
ATOM      5  C   UNL     1       4.579   4.383  17.030  0.00  0.00    +0.000 C 
ATOM      6  O   UNL     1       4.453   3.165  16.955  0.00  0.00    +0.000 OA
ATOM      7  N   UNL     1       5.302   5.199  16.190  0.00  0.00    +0.000 N 
ENDROOT
BRANCH   7   8
ATOM      8  C   UNL     1       5.835   4.770  14.939  0.00  0.00    +0.000 A 
ATOM      9  C   UNL     1       7.190   4.939  14.618  0.00  0.00    +0.000 A 
ATOM     10  C   UNL     1       7.699   4.533  13.379  0.00  0.00    +0.000 A 
ATOM     11  C   UNL     1       6.855   3.970  12.426  0.00  0.00    +0.000 A 
ATOM     12  C   UNL     1       5.507   3.805  12.726  0.00  0.00    +0.000 A 
ATOM     13 BR   UNL     1       4.342   3.078  11.425  0.00  0.00    +0.000 Br
ATOM     14  C   UNL     1       5.000   4.190  13.970  0.00  0.00    +0.000 A 
ENDBRANCH   7   8
BRANCH   4  15
ATOM     15  N   UNL     1       2.535   5.326  18.090  0.00  0.00    +0.000 NA
ATOM     16  C   UNL     1       1.869   5.130  19.415  0.00  0.00    +0.000 C 
ATOM     17  C   UNL     1       2.176   6.217  20.471  0.00  0.00    +0.000 C 
ATOM     18  N   UNL     1       1.918   7.558  19.926  0.00  0.00    +0.000 N 
ATOM     19  C   UNL     1       2.392   7.850  18.569  0.00  0.00    +0.000 C 
ATOM     20  C   UNL     1       2.090   6.666  17.618  0.00  0.00    +0.000 C 
BRANCH  18  21
ATOM     21  C   UNL     1       1.218   8.513  20.640  0.00  0.00    +0.000 A 
ATOM     22  C   UNL     1       1.129   8.468  22.041  0.00  0.00    +0.000 A 
ATOM     23  C   UNL     1       0.449   9.456  22.764  0.00  0.00    +0.000 A 
ATOM     24  C   UNL     1      -0.154  10.517  22.096  0.00  0.00    +0.000 A 
ATOM     25  C   UNL     1      -0.082  10.584  20.712  0.00  0.00    +0.000 A 
ATOM     26  C   UNL     1       0.593   9.591  19.996  0.00  0.00    +0.000 A 
ENDBRANCH  18  21
ENDBRANCH   4  15
TORSDOF 3
ENDMDL
MODEL 9
REMARK VINA RESULT:      -6.4      2.209      4.063
REMARK  Name = 
REMARK  3 active torsions:
REMARK  status: ('A' for Active; 'I' for Inactive)
REMARK    1  A    between atoms: C_4  and  N_5
REMARK    2  A    between atoms: N_8  and  C_9
REMARK    3  A    between atoms: N_19  and  C_20
REMARK                            x       y       z     vdW  Elec       q    Type
REMARK                         _______ _______ _______ _____ _____    ______ ____
ROOT
ATOM      1  O   UNL     1       1.607   9.362  22.708  0.00  0.00    +0.000 OA
ATOM      2  C   UNL     1       0.742   9.850  21.991  0.00  0.00    +0.000 C 
ATOM      3  C   UNL     1      -0.299  10.771  22.547  0.00  0.00    +0.000 C 
ATOM      4  C   UNL     1      -1.128  11.223  21.351  0.00  0.00    +0.000 C 
ATOM      5  C   UNL     1      -0.612  10.318  20.235  0.00  0.00    +0.000 C 
ATOM      6  O   UNL     1      -1.218  10.147  19.183  0.00  0.00    +0.000 OA
ATOM      7  N   UNL     1       0.539   9.684  20.646  0.00  0.00    +0.000 N 
ENDROOT
BRANCH   7   8
ATOM      8  C   UNL     1       1.350   8.885  19.788  0.00  0.00    +0.000 A 
ATOM      9  C   UNL     1       1.727   9.324  18.510  0.00  0.00    +0.000 A 
ATOM     10  C   UNL     1       2.507   8.523  17.667  0.00  0.00    +0.000 A 
ATOM     11  C   UNL     1       2.905   7.255  18.080  0.00  0.00    +0.000 A 
ATOM     12  C   UNL     1       2.532   6.802  19.340  0.00  0.00    +0.000 A 
ATOM     13 BR   UNL     1       3.036   5.065  19.896  0.00  0.00    +0.000 Br
ATOM     14  C   UNL     1       1.771   7.608  20.192  0.00  0.00    +0.000 A 
ENDBRANCH   7   8
BRANCH   4  15
ATOM     15  N   UNL     1      -0.980  12.660  20.989  0.00  0.00    +0.000 NA
ATOM     16  C   UNL     1      -2.277  13.261  20.546  0.00  0.00    +0.000 C 
ATOM     17  C   UNL     1      -3.365  13.352  21.640  0.00  0.00    +0.000 C 
ATOM     18  N   UNL     1      -2.839  14.018  22.842  0.00  0.00    +0.000 N 
ATOM     19  C   UNL     1      -1.507  13.629  23.314  0.00  0.00    +0.000 C 
ATOM     20  C   UNL     1      -0.521  13.503  22.126  0.00  0.00    +0.000 C 
BRANCH  18  21
ATOM     21  C   UNL     1      -3.548  15.009  23.496  0.00  0.00    +0.000 A 
ATOM     22  C   UNL     1      -4.935  15.155  23.331  0.00  0.00    +0.000 A 
ATOM     23  C   UNL     1      -5.656  16.137  24.021  0.00  0.00    +0.000 A 
ATOM     24  C   UNL     1      -5.000  16.994  24.899  0.00  0.00    +0.000 A 
ATOM     25  C   UNL     1      -3.629  16.871  25.079  0.00  0.00    +0.000 A 
ATOM     26  C   UNL     1      -2.915  15.893  24.382  0.00  0.00    +0.000 A 
ENDBRANCH  18  21
ENDBRANCH   4  15
TORSDOF 3
ENDMDL
