MODEL 1
REMARK VINA RESULT:      -7.2      0.000      0.000
REMARK  Name = 
REMARK  5 active torsions:
REMARK  status: ('A' for Active; 'I' for Inactive)
REMARK    1  A    between atoms: C_1  and  C_2
REMARK    2  A    between atoms: C_7  and  C_8
REMARK    3  A    between atoms: C_8  and  C_9
REMARK    4  A    between atoms: CA_12  and  C_13
REMARK    5  A    between atoms: C_13  and  OXT_15
REMARK                            x       y       z     vdW  Elec       q    Type
REMARK                         _______ _______ _______ _____ _____    ______ ____
ROOT
ATOM      1  C   UNL     1       5.358   5.187  17.952  0.00  0.00    +0.000 C 
ATOM      2  C   UNL     1       6.848   5.486  17.849  0.00  0.00    +0.000 C 
ATOM      3  N   UNL     1       7.418   4.415  17.032  0.00  0.00    +0.000 NA
ATOM      4  CA  UNL     1       6.360   4.062  16.062  0.00  0.00    +0.000 C 
ATOM      5  C   UNL     1       5.070   4.777  16.515  0.00  0.00    +0.000 C 
ATOM      6  H   UNL     1       7.590   3.585  17.650  0.00  0.00    +0.000 HD
ENDROOT
BRANCH   4   7
ATOM      7  C   UNL     1       6.763   4.494  14.663  0.00  0.00    +0.000 C 
ATOM      8  O   UNL     1       6.254   3.963  13.687  0.00  0.00    +0.000 OA
BRANCH   7   9
ATOM      9  OXT UNL     1       7.706   5.438  14.472  0.00  0.00    +0.000 OA
ATOM     10  HXT UNL     1       8.559   5.230  14.069  0.00  0.00    +0.000 HD
ENDBRANCH   7   9
ENDBRANCH   4   7
BRANCH   1  11
ATOM     11  C   UNL     1       5.078   4.077  18.995  0.00  0.00    +0.000 C 
BRANCH  11  18
ATOM     12  C   UNL     1       3.400   1.681  18.240  0.00  0.00    +0.000 C 
ATOM     13  C   UNL     1       2.827   2.829  19.026  0.00  0.00    +0.000 A 
ATOM     14  C   UNL     1       1.482   2.765  19.433  0.00  0.00    +0.000 A 
ATOM     15  C   UNL     1       0.910   3.805  20.169  0.00  0.00    +0.000 A 
ATOM     16  C   UNL     1       1.672   4.919  20.509  0.00  0.00    +0.000 A 
ATOM     17  C   UNL     1       3.010   5.000  20.118  0.00  0.00    +0.000 A 
ATOM     18  C   UNL     1       3.609   3.962  19.372  0.00  0.00    +0.000 A 
ENDBRANCH  11  18
ENDBRANCH   1  11
TORSDOF 4
ENDMDL
MODEL 2
REMARK VINA RESULT:      -7.2      1.463      2.508
REMARK  Name = 
REMARK  5 active torsions:
REMARK  status: ('A' for Active; 'I' for Inactive)
REMARK    1  A    between atoms: C_1  and  C_2
REMARK    2  A    between atoms: C_7  and  C_8
REMARK    3  A    between atoms: C_8  and  C_9
REMARK    4  A    between atoms: CA_12  and  C_13
REMARK    5  A    between atoms: C_13  and  OXT_15
REMARK                            x       y       z     vdW  Elec       q    Type
REMARK                         _______ _______ _______ _____ _____    ______ ____
ROOT
ATOM      1  C   UNL     1       4.383   5.897  18.215  0.00  0.00    +0.000 C 
ATOM      2  C   UNL     1       4.996   4.578  18.669  0.00  0.00    +0.000 C 
ATOM      3  N   UNL     1       5.333   3.849  17.447  0.00  0.00    +0.000 NA
ATOM      4  CA  UNL     1       5.713   4.888  16.468  0.00  0.00    +0.000 C 
ATOM      5  C   UNL     1       5.332   6.252  17.079  0.00  0.00    +0.000 C 
ATOM      6  H   UNL     1       4.467   3.370  17.101  0.00  0.00    +0.000 HD
ENDROOT
BRANCH   4   7
ATOM      7  C   UNL     1       7.202   4.815  16.176  0.00  0.00    +0.000 C 
ATOM      8  O   UNL     1       7.656   5.342  15.171  0.00  0.00    +0.000 OA
BRANCH   7   9
ATOM      9  OXT UNL     1       8.039   4.147  16.995  0.00  0.00    +0.000 OA
ATOM     10  HXT UNL     1       8.880   3.790  16.681  0.00  0.00    +0.000 HD
ENDBRANCH   7   9
ENDBRANCH   4   7
BRANCH   1  11
ATOM     11  C   UNL     1       2.910   5.712  17.775  0.00  0.00    +0.000 C 
BRANCH  11  18
ATOM     12  C   UNL     1       1.930   6.177  20.595  0.00  0.00    +0.000 C 
ATOM     13  C   UNL     1       1.704   4.868  19.887  0.00  0.00    +0.000 A 
ATOM     14  C   UNL     1       1.000   3.850  20.556  0.00  0.00    +0.000 A 
ATOM     15  C   UNL     1       0.763   2.622  19.935  0.00  0.00    +0.000 A 
ATOM     16  C   UNL     1       1.224   2.394  18.641  0.00  0.00    +0.000 A 
ATOM     17  C   UNL     1       1.921   3.394  17.959  0.00  0.00    +0.000 A 
ATOM     18  C   UNL     1       2.175   4.642  18.567  0.00  0.00    +0.000 A 
ENDBRANCH  11  18
ENDBRANCH   1  11
TORSDOF 4
ENDMDL
MODEL 3
REMARK VINA RESULT:      -7.2      1.379      1.693
REMARK  Name = 
REMARK  5 active torsions:
REMARK  status: ('A' for Active; 'I' for Inactive)
REMARK    1  A    between atoms: C_1  and  C_2
REMARK    2  A    between atoms: C_7  and  C_8
REMARK    3  A    between atoms: C_8  and  C_9
REMARK    4  A    between atoms: CA_12  and  C_13
REMARK    5  A    between atoms: C_13  and  OXT_15
REMARK                            x       y       z     vdW  Elec       q    Type
REMARK                         _______ _______ _______ _____ _____    ______ ____
ROOT
ATOM      1  C   UNL     1       4.204   5.857  17.975  0.00  0.00    +0.000 C 
ATOM      2  C   UNL     1       5.113   4.936  18.778  0.00  0.00    +0.000 C 
ATOM      3  N   UNL     1       5.598   3.927  17.836  0.00  0.00    +0.000 NA
ATOM      4  CA  UNL     1       5.713   4.631  16.541  0.00  0.00    +0.000 C 
ATOM      5  C   UNL     1       5.030   6.004  16.706  0.00  0.00    +0.000 C 
ATOM      6  H   UNL     1       4.865   3.184  17.744  0.00  0.00    +0.000 HD
ENDROOT
BRANCH   4   7
ATOM      7  C   UNL     1       7.175   4.788  16.157  0.00  0.00    +0.000 C 
ATOM      8  O   UNL     1       8.051   4.346  16.885  0.00  0.00    +0.000 OA
BRANCH   7   9
ATOM      9  OXT UNL     1       7.531   5.442  15.034  0.00  0.00    +0.000 OA
ATOM     10  HXT UNL     1       8.444   5.451  14.719  0.00  0.00    +0.000 HD
ENDBRANCH   7   9
ENDBRANCH   4   7
BRANCH   1  11
ATOM     11  C   UNL     1       2.811   5.219  17.754  0.00  0.00    +0.000 C 
BRANCH  11  18
ATOM     12  C   UNL     1       2.441   2.225  17.600  0.00  0.00    +0.000 C 
ATOM     13  C   UNL     1       2.167   2.989  18.867  0.00  0.00    +0.000 A 
ATOM     14  C   UNL     1       1.750   2.280  20.008  0.00  0.00    +0.000 A 
ATOM     15  C   UNL     1       1.490   2.949  21.206  0.00  0.00    +0.000 A 
ATOM     16  C   UNL     1       1.644   4.330  21.282  0.00  0.00    +0.000 A 
ATOM     17  C   UNL     1       2.061   5.051  20.161  0.00  0.00    +0.000 A 
ATOM     18  C   UNL     1       2.328   4.398  18.939  0.00  0.00    +0.000 A 
ENDBRANCH  11  18
ENDBRANCH   1  11
TORSDOF 4
ENDMDL
MODEL 4
REMARK VINA RESULT:      -7.0      1.366      1.827
REMARK  Name = 
REMARK  5 active torsions:
REMARK  status: ('A' for Active; 'I' for Inactive)
REMARK    1  A    between atoms: C_1  and  C_2
REMARK    2  A    between atoms: C_7  and  C_8
REMARK    3  A    between atoms: C_8  and  C_9
REMARK    4  A    between atoms: CA_12  and  C_13
REMARK    5  A    between atoms: C_13  and  OXT_15
REMARK                            x       y       z     vdW  Elec       q    Type
REMARK                         _______ _______ _______ _____ _____    ______ ____
ROOT
ATOM      1  C   UNL     1       4.811   4.720  18.225  0.00  0.00    +0.000 C 
ATOM      2  C   UNL     1       6.218   4.829  18.796  0.00  0.00    +0.000 C 
ATOM      3  N   UNL     1       7.106   4.240  17.794  0.00  0.00    +0.000 NA
ATOM      4  CA  UNL     1       6.486   4.560  16.491  0.00  0.00    +0.000 C 
ATOM      5  C   UNL     1       5.079   5.122  16.782  0.00  0.00    +0.000 C 
ATOM      6  H   UNL     1       7.096   3.199  17.917  0.00  0.00    +0.000 HD
ENDROOT
BRANCH   4   7
ATOM      7  C   UNL     1       7.335   5.571  15.740  0.00  0.00    +0.000 C 
ATOM      8  O   UNL     1       7.640   6.630  16.269  0.00  0.00    +0.000 OA
BRANCH   7   9
ATOM      9  OXT UNL     1       7.737   5.338  14.475  0.00  0.00    +0.000 OA
ATOM     10  HXT UNL     1       8.010   4.458  14.183  0.00  0.00    +0.000 HD
ENDBRANCH   7   9
ENDBRANCH   4   7
BRANCH   1  11
ATOM     11  C   UNL     1       4.245   3.289  18.389  0.00  0.00    +0.000 C 
BRANCH  11  18
ATOM     12  C   UNL     1       1.408   4.130  17.782  0.00  0.00    +0.000 C 
ATOM     13  C   UNL     1       1.796   3.580  19.128  0.00  0.00    +0.000 A 
ATOM     14  C   UNL     1       0.802   3.438  20.114  0.00  0.00    +0.000 A 
ATOM     15  C   UNL     1       1.117   2.927  21.374  0.00  0.00    +0.000 A 
ATOM     16  C   UNL     1       2.425   2.550  21.667  0.00  0.00    +0.000 A 
ATOM     17  C   UNL     1       3.425   2.679  20.700  0.00  0.00    +0.000 A 
ATOM     18  C   UNL     1       3.131   3.196  19.420  0.00  0.00    +0.000 A 
ENDBRANCH  11  18
ENDBRANCH   1  11
TORSDOF 4
ENDMDL
MODEL 5
REMARK VINA RESULT:      -7.0      2.222      3.295
REMARK  Name = 
REMARK  5 active torsions:
REMARK  status: ('A' for Active; 'I' for Inactive)
REMARK    1  A    between atoms: C_1  and  C_2
REMARK    2  A    between atoms: C_7  and  C_8
REMARK    3  A    between atoms: C_8  and  C_9
REMARK    4  A    between atoms: CA_12  and  C_13
REMARK    5  A    between atoms: C_13  and  OXT_15
REMARK                            x       y       z     vdW  Elec       q    Type
REMARK                         _______ _______ _______ _____ _____    ______ ____
ROOT
ATOM      1  C   UNL     1       4.480   4.742  17.111  0.00  0.00    +0.000 C 
ATOM      2  C   UNL     1       5.450   5.781  16.564  0.00  0.00    +0.000 C 
ATOM      3  N   UNL     1       5.961   6.506  17.727  0.00  0.00    +0.000 NA
ATOM      4  CA  UNL     1       6.012   5.507  18.815  0.00  0.00    +0.000 C 
ATOM      5  C   UNL     1       5.268   4.251  18.316  0.00  0.00    +0.000 C 
ATOM      6  H   UNL     1       5.262   7.243  17.988  0.00  0.00    +0.000 HD
ENDROOT
BRANCH   4   7
ATOM      7  C   UNL     1       7.455   5.186  19.165  0.00  0.00    +0.000 C 
ATOM      8  O   UNL     1       8.147   4.547  18.386  0.00  0.00    +0.000 OA
BRANCH   7   9
ATOM      9  OXT UNL     1       7.985   5.567  20.344  0.00  0.00    +0.000 OA
ATOM     10  HXT UNL     1       8.311   6.464  20.489  0.00  0.00    +0.000 HD
ENDBRANCH   7   9
ENDBRANCH   4   7
BRANCH   1  11
ATOM     11  C   UNL     1       3.114   5.379  17.464  0.00  0.00    +0.000 C 
BRANCH  11  18
ATOM     12  C   UNL     1       2.284   6.329  20.210  0.00  0.00    +0.000 C 
ATOM     13  C   UNL     1       1.875   4.979  19.685  0.00  0.00    +0.000 A 
ATOM     14  C   UNL     1       1.070   4.154  20.493  0.00  0.00    +0.000 A 
ATOM     15  C   UNL     1       0.664   2.897  20.044  0.00  0.00    +0.000 A 
ATOM     16  C   UNL     1       1.053   2.445  18.786  0.00  0.00    +0.000 A 
ATOM     17  C   UNL     1       1.849   3.250  17.968  0.00  0.00    +0.000 A 
ATOM     18  C   UNL     1       2.274   4.524  18.401  0.00  0.00    +0.000 A 
ENDBRANCH  11  18
ENDBRANCH   1  11
TORSDOF 4
ENDMDL
MODEL 6
REMARK VINA RESULT:      -7.0      1.207      2.256
REMARK  Name = 
REMARK  5 active torsions:
REMARK  status: ('A' for Active; 'I' for Inactive)
REMARK    1  A    between atoms: C_1  and  C_2
REMARK    2  A    between atoms: C_7  and  C_8
REMARK    3  A    between atoms: C_8  and  C_9
REMARK    4  A    between atoms: CA_12  and  C_13
REMARK    5  A    between atoms: C_13  and  OXT_15
REMARK                            x       y       z     vdW  Elec       q    Type
REMARK                         _______ _______ _______ _____ _____    ______ ____
ROOT
ATOM      1  C   UNL     1       4.340   5.351  17.157  0.00  0.00    +0.000 C 
ATOM      2  C   UNL     1       4.931   6.596  16.508  0.00  0.00    +0.000 C 
ATOM      3  N   UNL     1       6.365   6.339  16.376  0.00  0.00    +0.000 NA
ATOM      4  CA  UNL     1       6.477   4.885  16.131  0.00  0.00    +0.000 C 
ATOM      5  C   UNL     1       5.086   4.271  16.387  0.00  0.00    +0.000 C 
ATOM      6  H   UNL     1       6.824   6.554  17.294  0.00  0.00    +0.000 HD
ENDROOT
BRANCH   4   7
ATOM      7  C   UNL     1       6.936   4.627  14.706  0.00  0.00    +0.000 C 
ATOM      8  O   UNL     1       7.719   5.395  14.165  0.00  0.00    +0.000 OA
BRANCH   7   9
ATOM      9  OXT UNL     1       6.468   3.575  14.005  0.00  0.00    +0.000 OA
ATOM     10  HXT UNL     1       5.869   2.928  14.399  0.00  0.00    +0.000 HD
ENDBRANCH   7   9
ENDBRANCH   4   7
BRANCH   1  11
ATOM     11  C   UNL     1       4.600   5.335  18.683  0.00  0.00    +0.000 C 
BRANCH  11  18
ATOM     12  C   UNL     1       2.272   6.936  19.751  0.00  0.00    +0.000 C 
ATOM     13  C   UNL     1       2.373   5.451  19.969  0.00  0.00    +0.000 A 
ATOM     14  C   UNL     1       1.343   4.798  20.671  0.00  0.00    +0.000 A 
ATOM     15  C   UNL     1       1.393   3.421  20.891  0.00  0.00    +0.000 A 
ATOM     16  C   UNL     1       2.469   2.677  20.414  0.00  0.00    +0.000 A 
ATOM     17  C   UNL     1       3.500   3.306  19.712  0.00  0.00    +0.000 A 
ATOM     18  C   UNL     1       3.472   4.697  19.480  0.00  0.00    +0.000 A 
ENDBRANCH  11  18
ENDBRANCH   1  11
TORSDOF 4
ENDMDL
MODEL 7
REMARK VINA RESULT:      -7.0      0.997      1.158
REMARK  Name = 
REMARK  5 active torsions:
REMARK  status: ('A' for Active; 'I' for Inactive)
REMARK    1  A    between atoms: C_1  and  C_2
REMARK    2  A    between atoms: C_7  and  C_8
REMARK    3  A    between atoms: C_8  and  C_9
REMARK    4  A    between atoms: CA_12  and  C_13
REMARK    5  A    between atoms: C_13  and  OXT_15
REMARK                            x       y       z     vdW  Elec       q    Type
REMARK                         _______ _______ _______ _____ _____    ______ ____
ROOT
ATOM      1  C   UNL     1       5.255   5.119  19.031  0.00  0.00    +0.000 C 
ATOM      2  C   UNL     1       6.770   5.254  18.954  0.00  0.00    +0.000 C 
ATOM      3  N   UNL     1       7.190   4.432  17.819  0.00  0.00    +0.000 NA
ATOM      4  CA  UNL     1       6.087   4.530  16.840  0.00  0.00    +0.000 C 
ATOM      5  C   UNL     1       4.904   5.218  17.553  0.00  0.00    +0.000 C 
ATOM      6  H   UNL     1       7.258   3.437  18.141  0.00  0.00    +0.000 HD
ENDROOT
BRANCH   4   7
ATOM      7  C   UNL     1       6.533   5.327  15.626  0.00  0.00    +0.000 C 
ATOM      8  O   UNL     1       7.667   5.195  15.189  0.00  0.00    +0.000 OA
BRANCH   7   9
ATOM      9  OXT UNL     1       5.705   6.209  15.032  0.00  0.00    +0.000 OA
ATOM     10  HXT UNL     1       5.744   6.383  14.083  0.00  0.00    +0.000 HD
ENDBRANCH   7   9
ENDBRANCH   4   7
BRANCH   1  11
ATOM     11  C   UNL     1       4.841   3.781  19.691  0.00  0.00    +0.000 C 
BRANCH  11  18
ATOM     12  C   UNL     1       3.534   1.577  18.090  0.00  0.00    +0.000 C 
ATOM     13  C   UNL     1       2.728   2.507  18.955  0.00  0.00    +0.000 A 
ATOM     14  C   UNL     1       1.335   2.325  19.030  0.00  0.00    +0.000 A 
ATOM     15  C   UNL     1       0.549   3.161  19.825  0.00  0.00    +0.000 A 
ATOM     16  C   UNL     1       1.141   4.188  20.555  0.00  0.00    +0.000 A 
ATOM     17  C   UNL     1       2.523   4.383  20.497  0.00  0.00    +0.000 A 
ATOM     18  C   UNL     1       3.337   3.552  19.699  0.00  0.00    +0.000 A 
ENDBRANCH  11  18
ENDBRANCH   1  11
TORSDOF 4
ENDMDL
MODEL 8
REMARK VINA RESULT:      -7.0      0.904      1.236
REMARK  Name = 
REMARK  5 active torsions:
REMARK  status: ('A' for Active; 'I' for Inactive)
REMARK    1  A    between atoms: C_1  and  C_2
REMARK    2  A    between atoms: C_7  and  C_8
REMARK    3  A    between atoms: C_8  and  C_9
REMARK    4  A    between atoms: CA_12  and  C_13
REMARK    5  A    between atoms: C_13  and  OXT_15
REMARK                            x       y       z     vdW  Elec       q    Type
REMARK                         _______ _______ _______ _____ _____    ______ ____
ROOT
ATOM      1  C   UNL     1       4.517   4.977  16.837  0.00  0.00    +0.000 C 
ATOM      2  C   UNL     1       5.213   6.306  16.571  0.00  0.00    +0.000 C 
ATOM      3  N   UNL     1       6.624   5.985  16.356  0.00  0.00    +0.000 NA
ATOM      4  CA  UNL     1       6.623   4.661  15.697  0.00  0.00    +0.000 C 
ATOM      5  C   UNL     1       5.184   4.112  15.778  0.00  0.00    +0.000 C 
ATOM      6  H   UNL     1       7.085   5.887  17.292  0.00  0.00    +0.000 HD
ENDROOT
BRANCH   4   7
ATOM      7  C   UNL     1       7.079   4.793  14.254  0.00  0.00    +0.000 C 
ATOM      8  O   UNL     1       7.928   5.619  13.952  0.00  0.00    +0.000 OA
BRANCH   7   9
ATOM      9  OXT UNL     1       6.538   4.032  13.282  0.00  0.00    +0.000 OA
ATOM     10  HXT UNL     1       5.589   4.042  13.098  0.00  0.00    +0.000 HD
ENDBRANCH   7   9
ENDBRANCH   4   7
BRANCH   1  11
ATOM     11  C   UNL     1       4.754   4.497  18.289  0.00  0.00    +0.000 C 
BRANCH  11  18
ATOM     12  C   UNL     1       3.432   1.781  18.320  0.00  0.00    +0.000 C 
ATOM     13  C   UNL     1       2.855   2.947  19.075  0.00  0.00    +0.000 A 
ATOM     14  C   UNL     1       1.683   2.752  19.829  0.00  0.00    +0.000 A 
ATOM     15  C   UNL     1       1.116   3.804  20.549  0.00  0.00    +0.000 A 
ATOM     16  C   UNL     1       1.710   5.063  20.529  0.00  0.00    +0.000 A 
ATOM     17  C   UNL     1       2.877   5.276  19.791  0.00  0.00    +0.000 A 
ATOM     18  C   UNL     1       3.466   4.228  19.053  0.00  0.00    +0.000 A 
ENDBRANCH  11  18
ENDBRANCH   1  11
TORSDOF 4
ENDMDL
MODEL 9
REMARK VINA RESULT:      -6.9      1.423      1.859
REMARK  Name = 
REMARK  5 active torsions:
REMARK  status: ('A' for Active; 'I' for Inactive)
REMARK    1  A    between atoms: C_1  and  C_2
REMARK    2  A    between atoms: C_7  and  C_8
REMARK    3  A    between atoms: C_8  and  C_9
REMARK    4  A    between atoms: CA_12  and  C_13
REMARK    5  A    between atoms: C_13  and  OXT_15
REMARK                            x       y       z     vdW  Elec       q    Type
REMARK                         _______ _______ _______ _____ _____    ______ ____
ROOT
ATOM      1  C   UNL     1       3.899   4.383  17.116  0.00  0.00    +0.000 C 
ATOM      2  C   UNL     1       4.661   5.253  18.107  0.00  0.00    +0.000 C 
ATOM      3  N   UNL     1       6.057   4.824  18.029  0.00  0.00    +0.000 NA
ATOM      4  CA  UNL     1       6.264   4.430  16.620  0.00  0.00    +0.000 C 
ATOM      5  C   UNL     1       4.875   4.394  15.948  0.00  0.00    +0.000 C 
ATOM      6  H   UNL     1       6.173   3.973  18.631  0.00  0.00    +0.000 HD
ENDROOT
BRANCH   4   7
ATOM      7  C   UNL     1       7.182   5.421  15.927  0.00  0.00    +0.000 C 
ATOM      8  O   UNL     1       7.581   5.198  14.793  0.00  0.00    +0.000 OA
BRANCH   7   9
ATOM      9  OXT UNL     1       7.599   6.539  16.554  0.00  0.00    +0.000 OA
ATOM     10  HXT UNL     1       7.294   6.766  17.442  0.00  0.00    +0.000 HD
ENDBRANCH   7   9
ENDBRANCH   4   7
BRANCH   1  11
ATOM     11  C   UNL     1       3.625   2.975  17.698  0.00  0.00    +0.000 C 
BRANCH  11  18
ATOM     12  C   UNL     1       4.747   1.995  20.326  0.00  0.00    +0.000 C 
ATOM     13  C   UNL     1       3.354   2.552  20.223  0.00  0.00    +0.000 A 
ATOM     14  C   UNL     1       2.570   2.634  21.388  0.00  0.00    +0.000 A 
ATOM     15  C   UNL     1       1.273   3.150  21.339  0.00  0.00    +0.000 A 
ATOM     16  C   UNL     1       0.743   3.591  20.130  0.00  0.00    +0.000 A 
ATOM     17  C   UNL     1       1.506   3.521  18.963  0.00  0.00    +0.000 A 
ATOM     18  C   UNL     1       2.818   3.002  18.987  0.00  0.00    +0.000 A 
ENDBRANCH  11  18
ENDBRANCH   1  11
TORSDOF 4
ENDMDL
