MODEL 1
REMARK VINA RESULT:      -7.8      0.000      0.000
REMARK  Name = 
REMARK  6 active torsions:
REMARK  status: ('A' for Active; 'I' for Inactive)
REMARK    1  A    between atoms: C_1  and  O_2
REMARK    2  A    between atoms: O_2  and  C_3
REMARK    3  A    between atoms: C_6  and  S_7
REMARK    4  A    between atoms: S_7  and  C_10
REMARK    5  A    between atoms: C_10  and  C_11
REMARK    6  A    between atoms: C_14  and  C_15
REMARK                            x       y       z     vdW  Elec       q    Type
REMARK                         _______ _______ _______ _____ _____    ______ ____
ROOT
ATOM      1  C   UNL     1       2.422   6.796  19.493  0.00  0.00    +0.000 A 
ATOM      2  C   UNL     1       2.720   7.174  18.204  0.00  0.00    +0.000 A 
ATOM      3  C   UNL     1       2.191   8.476  18.043  0.00  0.00    +0.000 A 
ATOM      4  C   UNL     1       1.544   8.800  19.222  0.00  0.00    +0.000 A 
ATOM      5  O   UNL     1       1.696   7.770  20.110  0.00  0.00    +0.000 OA
ENDROOT
BRANCH   4   6
ATOM      6  C   UNL     1       0.866  10.029  19.595  0.00  0.00    +0.000 C 
ATOM      7  O   UNL     1       0.263  10.684  18.743  0.00  0.00    +0.000 OA
ATOM      8  N   UNL     1       0.856  10.434  20.932  0.00  0.00    +0.000 N 
ATOM      9  C   UNL     1       1.343   9.676  22.090  0.00  0.00    +0.000 C 
ATOM     10  C   UNL     1       0.200   9.396  23.077  0.00  0.00    +0.000 C 
ATOM     11  O   UNL     1      -0.497  10.596  23.439  0.00  0.00    +0.000 OA
ATOM     12  C   UNL     1      -1.032  11.246  22.274  0.00  0.00    +0.000 C 
ATOM     13  C   UNL     1       0.094  11.628  21.306  0.00  0.00    +0.000 C 
ENDBRANCH   4   6
BRANCH   1  14
ATOM     14  C   UNL     1       2.729   5.595  20.296  0.00  0.00    +0.000 C 
BRANCH  14  15
ATOM     15  S   UNL     1       2.649   4.145  19.256  0.00  0.00    +0.000 S 
ATOM     16  O   UNL     1       1.457   4.223  18.432  0.00  0.00    +0.000 OA
ATOM     17  O   UNL     1       2.862   2.985  20.104  0.00  0.00    +0.000 OA
BRANCH  15  21
ATOM     18  C   UNL     1       6.312   4.458  16.545  0.00  0.00    +0.000 A 
ATOM     19  C   UNL     1       6.416   4.719  17.913  0.00  0.00    +0.000 A 
ATOM     20  C   UNL     1       5.305   4.598  18.748  0.00  0.00    +0.000 A 
ATOM     21  C   UNL     1       4.071   4.248  18.195  0.00  0.00    +0.000 A 
ATOM     22  C   UNL     1       3.948   3.994  16.828  0.00  0.00    +0.000 A 
ATOM     23  C   UNL     1       5.073   4.101  16.004  0.00  0.00    +0.000 A 
BRANCH  18  25
ATOM     24  C   UNL     1       7.300   4.929  14.451  0.00  0.00    +0.000 C 
ATOM     25  O   UNL     1       7.466   4.628  15.833  0.00  0.00    +0.000 OA
ENDBRANCH  18  25
ENDBRANCH  15  21
ENDBRANCH  14  15
ENDBRANCH   1  14
TORSDOF 5
ENDMDL
MODEL 2
REMARK VINA RESULT:      -7.6      1.507      2.167
REMARK  Name = 
REMARK  6 active torsions:
REMARK  status: ('A' for Active; 'I' for Inactive)
REMARK    1  A    between atoms: C_1  and  O_2
REMARK    2  A    between atoms: O_2  and  C_3
REMARK    3  A    between atoms: C_6  and  S_7
REMARK    4  A    between atoms: S_7  and  C_10
REMARK    5  A    between atoms: C_10  and  C_11
REMARK    6  A    between atoms: C_14  and  C_15
REMARK                            x       y       z     vdW  Elec       q    Type
REMARK                         _______ _______ _______ _____ _____    ______ ____
ROOT
ATOM      1  C   UNL     1       3.261   4.903  19.848  0.00  0.00    +0.000 A 
ATOM      2  C   UNL     1       2.243   4.735  20.758  0.00  0.00    +0.000 A 
ATOM      3  C   UNL     1       1.511   5.945  20.760  0.00  0.00    +0.000 A 
ATOM      4  C   UNL     1       2.158   6.811  19.896  0.00  0.00    +0.000 A 
ATOM      5  O   UNL     1       3.224   6.164  19.334  0.00  0.00    +0.000 OA
ENDROOT
BRANCH   4   6
ATOM      6  C   UNL     1       1.801   8.164  19.508  0.00  0.00    +0.000 C 
ATOM      7  O   UNL     1       1.809   8.487  18.318  0.00  0.00    +0.000 OA
ATOM      8  N   UNL     1       1.398   9.079  20.483  0.00  0.00    +0.000 N 
ATOM      9  C   UNL     1       1.140   8.805  21.901  0.00  0.00    +0.000 C 
ATOM     10  C   UNL     1      -0.322   9.111  22.258  0.00  0.00    +0.000 C 
ATOM     11  O   UNL     1      -0.701  10.437  21.860  0.00  0.00    +0.000 OA
ATOM     12  C   UNL     1      -0.514  10.617  20.446  0.00  0.00    +0.000 C 
ATOM     13  C   UNL     1       0.957  10.412  20.066  0.00  0.00    +0.000 C 
ENDBRANCH   4   6
BRANCH   1  14
ATOM     14  C   UNL     1       4.330   4.018  19.345  0.00  0.00    +0.000 C 
BRANCH  14  15
ATOM     15  S   UNL     1       3.874   3.385  17.737  0.00  0.00    +0.000 S 
ATOM     16  O   UNL     1       2.601   3.965  17.348  0.00  0.00    +0.000 OA
ATOM     17  O   UNL     1       4.021   1.940  17.776  0.00  0.00    +0.000 OA
BRANCH  15  21
ATOM     18  C   UNL     1       7.086   4.960  14.899  0.00  0.00    +0.000 A 
ATOM     19  C   UNL     1       7.231   5.097  16.282  0.00  0.00    +0.000 A 
ATOM     20  C   UNL     1       6.264   4.593  17.152  0.00  0.00    +0.000 A 
ATOM     21  C   UNL     1       5.125   3.980  16.625  0.00  0.00    +0.000 A 
ATOM     22  C   UNL     1       4.961   3.844  15.245  0.00  0.00    +0.000 A 
ATOM     23  C   UNL     1       5.945   4.337  14.383  0.00  0.00    +0.000 A 
BRANCH  18  25
ATOM     24  C   UNL     1       7.977   5.344  12.745  0.00  0.00    +0.000 C 
ATOM     25  O   UNL     1       8.092   5.510  14.154  0.00  0.00    +0.000 OA
ENDBRANCH  18  25
ENDBRANCH  15  21
ENDBRANCH  14  15
ENDBRANCH   1  14
TORSDOF 5
ENDMDL
MODEL 3
REMARK VINA RESULT:      -7.5      1.543      2.253
REMARK  Name = 
REMARK  6 active torsions:
REMARK  status: ('A' for Active; 'I' for Inactive)
REMARK    1  A    between atoms: C_1  and  O_2
REMARK    2  A    between atoms: O_2  and  C_3
REMARK    3  A    between atoms: C_6  and  S_7
REMARK    4  A    between atoms: S_7  and  C_10
REMARK    5  A    between atoms: C_10  and  C_11
REMARK    6  A    between atoms: C_14  and  C_15
REMARK                            x       y       z     vdW  Elec       q    Type
REMARK                         _______ _______ _______ _____ _____    ______ ____
ROOT
ATOM      1  C   UNL     1       2.533   6.035  18.677  0.00  0.00    +0.000 A 
ATOM      2  C   UNL     1       2.856   7.097  17.865  0.00  0.00    +0.000 A 
ATOM      3  C   UNL     1       2.415   8.259  18.541  0.00  0.00    +0.000 A 
ATOM      4  C   UNL     1       1.789   7.839  19.702  0.00  0.00    +0.000 A 
ATOM      5  O   UNL     1       1.872   6.477  19.784  0.00  0.00    +0.000 OA
ENDROOT
BRANCH   4   6
ATOM      6  C   UNL     1       1.195   8.628  20.767  0.00  0.00    +0.000 C 
ATOM      7  O   UNL     1       1.587   8.493  21.928  0.00  0.00    +0.000 OA
ATOM      8  N   UNL     1       0.217   9.578  20.459  0.00  0.00    +0.000 N 
ATOM      9  C   UNL     1      -0.213  10.005  19.123  0.00  0.00    +0.000 C 
ATOM     10  C   UNL     1       0.061  11.501  18.916  0.00  0.00    +0.000 C 
ATOM     11  O   UNL     1      -0.499  12.296  19.971  0.00  0.00    +0.000 OA
ATOM     12  C   UNL     1       0.029  11.895  21.246  0.00  0.00    +0.000 C 
ATOM     13  C   UNL     1      -0.309  10.426  21.531  0.00  0.00    +0.000 C 
ENDBRANCH   4   6
BRANCH   1  14
ATOM     14  C   UNL     1       2.758   4.578  18.582  0.00  0.00    +0.000 C 
BRANCH  14  15
ATOM     15  S   UNL     1       4.450   4.207  19.018  0.00  0.00    +0.000 S 
ATOM     16  O   UNL     1       4.550   2.800  19.360  0.00  0.00    +0.000 OA
ATOM     17  O   UNL     1       4.888   5.211  19.973  0.00  0.00    +0.000 OA
BRANCH  15  21
ATOM     18  C   UNL     1       6.866   4.987  15.221  0.00  0.00    +0.000 A 
ATOM     19  C   UNL     1       7.289   5.498  16.449  0.00  0.00    +0.000 A 
ATOM     20  C   UNL     1       6.568   5.239  17.615  0.00  0.00    +0.000 A 
ATOM     21  C   UNL     1       5.391   4.491  17.537  0.00  0.00    +0.000 A 
ATOM     22  C   UNL     1       4.949   3.981  16.315  0.00  0.00    +0.000 A 
ATOM     23  C   UNL     1       5.690   4.232  15.156  0.00  0.00    +0.000 A 
BRANCH  18  25
ATOM     24  C   UNL     1       7.299   4.713  12.915  0.00  0.00    +0.000 C 
ATOM     25  O   UNL     1       7.648   5.324  14.152  0.00  0.00    +0.000 OA
ENDBRANCH  18  25
ENDBRANCH  15  21
ENDBRANCH  14  15
ENDBRANCH   1  14
TORSDOF 5
ENDMDL
MODEL 4
REMARK VINA RESULT:      -7.5      1.586      2.568
REMARK  Name = 
REMARK  6 active torsions:
REMARK  status: ('A' for Active; 'I' for Inactive)
REMARK    1  A    between atoms: C_1  and  O_2
REMARK    2  A    between atoms: O_2  and  C_3
REMARK    3  A    between atoms: C_6  and  S_7
REMARK    4  A    between atoms: S_7  and  C_10
REMARK    5  A    between atoms: C_10  and  C_11
REMARK    6  A    between atoms: C_14  and  C_15
REMARK                            x       y       z     vdW  Elec       q    Type
REMARK                         _______ _______ _______ _____ _____    ______ ____
ROOT
ATOM      1  C   UNL     1       2.405   7.136  19.299  0.00  0.00    +0.000 A 
ATOM      2  C   UNL     1       2.653   7.551  18.011  0.00  0.00    +0.000 A 
ATOM      3  C   UNL     1       2.059   8.829  17.887  0.00  0.00    +0.000 A 
ATOM      4  C   UNL     1       1.425   9.099  19.087  0.00  0.00    +0.000 A 
ATOM      5  O   UNL     1       1.647   8.062  19.951  0.00  0.00    +0.000 OA
ENDROOT
BRANCH   4   6
ATOM      6  C   UNL     1       0.698  10.287  19.500  0.00  0.00    +0.000 C 
ATOM      7  O   UNL     1       1.278  11.180  20.121  0.00  0.00    +0.000 OA
ATOM      8  N   UNL     1      -0.644  10.436  19.140  0.00  0.00    +0.000 N 
ATOM      9  C   UNL     1      -1.419   9.575  18.240  0.00  0.00    +0.000 C 
ATOM     10  C   UNL     1      -1.912  10.368  17.021  0.00  0.00    +0.000 C 
ATOM     11  O   UNL     1      -2.613  11.559  17.408  0.00  0.00    +0.000 OA
ATOM     12  C   UNL     1      -1.773  12.406  18.210  0.00  0.00    +0.000 C 
ATOM     13  C   UNL     1      -1.337  11.678  19.487  0.00  0.00    +0.000 C 
ENDBRANCH   4   6
BRANCH   1  14
ATOM     14  C   UNL     1       2.787   5.937  20.071  0.00  0.00    +0.000 C 
BRANCH  14  15
ATOM     15  S   UNL     1       2.738   4.502  19.008  0.00  0.00    +0.000 S 
ATOM     16  O   UNL     1       1.586   4.605  18.132  0.00  0.00    +0.000 OA
ATOM     17  O   UNL     1       2.898   3.327  19.849  0.00  0.00    +0.000 OA
BRANCH  15  21
ATOM     18  C   UNL     1       6.506   4.711  16.435  0.00  0.00    +0.000 A 
ATOM     19  C   UNL     1       5.264   4.441  15.855  0.00  0.00    +0.000 A 
ATOM     20  C   UNL     1       4.107   4.403  16.635  0.00  0.00    +0.000 A 
ATOM     21  C   UNL     1       4.208   4.602  18.015  0.00  0.00    +0.000 A 
ATOM     22  C   UNL     1       5.443   4.864  18.609  0.00  0.00    +0.000 A 
ATOM     23  C   UNL     1       6.592   4.917  17.815  0.00  0.00    +0.000 A 
BRANCH  18  25
ATOM     24  C   UNL     1       7.232   4.816  14.189  0.00  0.00    +0.000 C 
ATOM     25  O   UNL     1       7.563   4.705  15.569  0.00  0.00    +0.000 OA
ENDBRANCH  18  25
ENDBRANCH  15  21
ENDBRANCH  14  15
ENDBRANCH   1  14
TORSDOF 5
ENDMDL
MODEL 5
REMARK VINA RESULT:      -7.4      3.461      8.268
REMARK  Name = 
REMARK  6 active torsions:
REMARK  status: ('A' for Active; 'I' for Inactive)
REMARK    1  A    between atoms: C_1  and  O_2
REMARK    2  A    between atoms: O_2  and  C_3
REMARK    3  A    between atoms: C_6  and  S_7
REMARK    4  A    between atoms: S_7  and  C_10
REMARK    5  A    between atoms: C_10  and  C_11
REMARK    6  A    between atoms: C_14  and  C_15
REMARK                            x       y       z     vdW  Elec       q    Type
REMARK                         _______ _______ _______ _____ _____    ______ ____
ROOT
ATOM      1  C   UNL     1       1.624   8.516  19.410  0.00  0.00    +0.000 A 
ATOM      2  C   UNL     1       1.988   8.617  18.087  0.00  0.00    +0.000 A 
ATOM      3  C   UNL     1       2.807   7.496  17.816  0.00  0.00    +0.000 A 
ATOM      4  C   UNL     1       2.951   6.802  19.005  0.00  0.00    +0.000 A 
ATOM      5  O   UNL     1       2.218   7.428  19.976  0.00  0.00    +0.000 OA
ENDROOT
BRANCH   4   6
ATOM      6  C   UNL     1       3.659   5.563  19.270  0.00  0.00    +0.000 C 
ATOM      7  O   UNL     1       4.866   5.584  19.526  0.00  0.00    +0.000 OA
ATOM      8  N   UNL     1       2.957   4.355  19.288  0.00  0.00    +0.000 N 
ATOM      9  C   UNL     1       1.503   4.176  19.208  0.00  0.00    +0.000 C 
ATOM     10  C   UNL     1       0.968   3.498  20.477  0.00  0.00    +0.000 C 
ATOM     11  O   UNL     1       1.672   2.282  20.769  0.00  0.00    +0.000 OA
ATOM     12  C   UNL     1       3.079   2.535  20.929  0.00  0.00    +0.000 C 
ATOM     13  C   UNL     1       3.669   3.126  19.643  0.00  0.00    +0.000 C 
ENDBRANCH   4   6
BRANCH   1  14
ATOM     14  C   UNL     1       0.753   9.322  20.289  0.00  0.00    +0.000 C 
BRANCH  14  15
ATOM     15  S   UNL     1       0.572  10.963  19.606  0.00  0.00    +0.000 S 
ATOM     16  O   UNL     1       1.627  11.187  18.635  0.00  0.00    +0.000 OA
ATOM     17  O   UNL     1       0.412  11.886  20.717  0.00  0.00    +0.000 OA
BRANCH  15  21
ATOM     18  C   UNL     1      -3.453  10.915  17.448  0.00  0.00    +0.000 A 
ATOM     19  C   UNL     1      -3.237  11.772  18.530  0.00  0.00    +0.000 A 
ATOM     20  C   UNL     1      -2.000  11.809  19.174  0.00  0.00    +0.000 A 
ATOM     21  C   UNL     1      -0.984  10.948  18.749  0.00  0.00    +0.000 A 
ATOM     22  C   UNL     1      -1.188  10.078  17.677  0.00  0.00    +0.000 A 
ATOM     23  C   UNL     1      -2.426  10.064  17.027  0.00  0.00    +0.000 A 
BRANCH  18  25
ATOM     24  C   UNL     1      -5.652  11.761  17.620  0.00  0.00    +0.000 C 
ATOM     25  O   UNL     1      -4.710  10.961  16.914  0.00  0.00    +0.000 OA
ENDBRANCH  18  25
ENDBRANCH  15  21
ENDBRANCH  14  15
ENDBRANCH   1  14
TORSDOF 5
ENDMDL
MODEL 6
REMARK VINA RESULT:      -7.4      2.955      8.985
REMARK  Name = 
REMARK  6 active torsions:
REMARK  status: ('A' for Active; 'I' for Inactive)
REMARK    1  A    between atoms: C_1  and  O_2
REMARK    2  A    between atoms: O_2  and  C_3
REMARK    3  A    between atoms: C_6  and  S_7
REMARK    4  A    between atoms: S_7  and  C_10
REMARK    5  A    between atoms: C_10  and  C_11
REMARK    6  A    between atoms: C_14  and  C_15
REMARK                            x       y       z     vdW  Elec       q    Type
REMARK                         _______ _______ _______ _____ _____    ______ ____
ROOT
ATOM      1  C   UNL     1       1.823   8.409  19.310  0.00  0.00    +0.000 A 
ATOM      2  C   UNL     1       2.211   8.744  18.034  0.00  0.00    +0.000 A 
ATOM      3  C   UNL     1       3.032   7.686  17.580  0.00  0.00    +0.000 A 
ATOM      4  C   UNL     1       3.153   6.789  18.627  0.00  0.00    +0.000 A 
ATOM      5  O   UNL     1       2.404   7.233  19.681  0.00  0.00    +0.000 OA
ENDROOT
BRANCH   4   6
ATOM      6  C   UNL     1       3.855   5.519  18.677  0.00  0.00    +0.000 C 
ATOM      7  O   UNL     1       4.992   5.460  19.152  0.00  0.00    +0.000 OA
ATOM      8  N   UNL     1       3.216   4.358  18.236  0.00  0.00    +0.000 N 
ATOM      9  C   UNL     1       1.811   4.219  17.837  0.00  0.00    +0.000 C 
ATOM     10  C   UNL     1       1.081   3.224  18.752  0.00  0.00    +0.000 C 
ATOM     11  O   UNL     1       1.773   1.970  18.833  0.00  0.00    +0.000 OA
ATOM     12  C   UNL     1       3.113   2.158  19.318  0.00  0.00    +0.000 C 
ATOM     13  C   UNL     1       3.903   3.073  18.374  0.00  0.00    +0.000 C 
ENDBRANCH   4   6
BRANCH   1  14
ATOM     14  C   UNL     1       0.937   9.048  20.304  0.00  0.00    +0.000 C 
BRANCH  14  15
ATOM     15  S   UNL     1       0.271  10.560  19.625  0.00  0.00    +0.000 S 
ATOM     16  O   UNL     1      -0.529  10.238  18.457  0.00  0.00    +0.000 OA
ATOM     17  O   UNL     1       1.366  11.507  19.506  0.00  0.00    +0.000 OA
BRANCH  15  21
ATOM     18  C   UNL     1      -2.513  12.172  22.867  0.00  0.00    +0.000 A 
ATOM     19  C   UNL     1      -1.520  11.241  23.182  0.00  0.00    +0.000 A 
ATOM     20  C   UNL     1      -0.651  10.767  22.199  0.00  0.00    +0.000 A 
ATOM     21  C   UNL     1      -0.807  11.206  20.881  0.00  0.00    +0.000 A 
ATOM     22  C   UNL     1      -1.800  12.128  20.549  0.00  0.00    +0.000 A 
ATOM     23  C   UNL     1      -2.654  12.610  21.547  0.00  0.00    +0.000 A 
BRANCH  18  25
ATOM     24  C   UNL     1      -3.321  13.937  24.214  0.00  0.00    +0.000 C 
ATOM     25  O   UNL     1      -3.309  12.545  23.913  0.00  0.00    +0.000 OA
ENDBRANCH  18  25
ENDBRANCH  15  21
ENDBRANCH  14  15
ENDBRANCH   1  14
TORSDOF 5
ENDMDL
MODEL 7
REMARK VINA RESULT:      -7.4      3.470      8.362
REMARK  Name = 
REMARK  6 active torsions:
REMARK  status: ('A' for Active; 'I' for Inactive)
REMARK    1  A    between atoms: C_1  and  O_2
REMARK    2  A    between atoms: O_2  and  C_3
REMARK    3  A    between atoms: C_6  and  S_7
REMARK    4  A    between atoms: S_7  and  C_10
REMARK    5  A    between atoms: C_10  and  C_11
REMARK    6  A    between atoms: C_14  and  C_15
REMARK                            x       y       z     vdW  Elec       q    Type
REMARK                         _______ _______ _______ _____ _____    ______ ____
ROOT
ATOM      1  C   UNL     1       1.678   8.540  19.394  0.00  0.00    +0.000 A 
ATOM      2  C   UNL     1       1.974   8.592  18.051  0.00  0.00    +0.000 A 
ATOM      3  C   UNL     1       2.765   7.453  17.777  0.00  0.00    +0.000 A 
ATOM      4  C   UNL     1       2.963   6.797  18.980  0.00  0.00    +0.000 A 
ATOM      5  O   UNL     1       2.288   7.464  19.965  0.00  0.00    +0.000 OA
ENDROOT
BRANCH   4   6
ATOM      6  C   UNL     1       3.671   5.559  19.250  0.00  0.00    +0.000 C 
ATOM      7  O   UNL     1       4.872   5.582  19.527  0.00  0.00    +0.000 OA
ATOM      8  N   UNL     1       2.973   4.349  19.247  0.00  0.00    +0.000 N 
ATOM      9  C   UNL     1       1.522   4.164  19.139  0.00  0.00    +0.000 C 
ATOM     10  C   UNL     1       0.966   3.476  20.394  0.00  0.00    +0.000 C 
ATOM     11  O   UNL     1       1.669   2.262  20.691  0.00  0.00    +0.000 OA
ATOM     12  C   UNL     1       3.071   2.518  20.879  0.00  0.00    +0.000 C 
ATOM     13  C   UNL     1       3.683   3.119  19.607  0.00  0.00    +0.000 C 
ENDBRANCH   4   6
BRANCH   1  14
ATOM     14  C   UNL     1       0.862   9.386  20.288  0.00  0.00    +0.000 C 
BRANCH  14  15
ATOM     15  S   UNL     1       0.637  10.995  19.546  0.00  0.00    +0.000 S 
ATOM     16  O   UNL     1       1.542  11.123  18.418  0.00  0.00    +0.000 OA
ATOM     17  O   UNL     1       0.677  11.980  20.614  0.00  0.00    +0.000 OA
BRANCH  15  21
ATOM     18  C   UNL     1      -3.629  11.020  17.916  0.00  0.00    +0.000 A 
ATOM     19  C   UNL     1      -2.661  10.180  17.361  0.00  0.00    +0.000 A 
ATOM     20  C   UNL     1      -1.364  10.150  17.874  0.00  0.00    +0.000 A 
ATOM     21  C   UNL     1      -1.029  11.001  18.931  0.00  0.00    +0.000 A 
ATOM     22  C   UNL     1      -1.983  11.853  19.490  0.00  0.00    +0.000 A 
ATOM     23  C   UNL     1      -3.284  11.861  18.979  0.00  0.00    +0.000 A 
BRANCH  18  25
ATOM     24  C   UNL     1      -5.455  12.228  17.028  0.00  0.00    +0.000 C 
ATOM     25  O   UNL     1      -4.855  10.969  17.314  0.00  0.00    +0.000 OA
ENDBRANCH  18  25
ENDBRANCH  15  21
ENDBRANCH  14  15
ENDBRANCH   1  14
TORSDOF 5
ENDMDL
MODEL 8
REMARK VINA RESULT:      -7.3      1.537      2.386
REMARK  Name = 
REMARK  6 active torsions:
REMARK  status: ('A' for Active; 'I' for Inactive)
REMARK    1  A    between atoms: C_1  and  O_2
REMARK    2  A    between atoms: O_2  and  C_3
REMARK    3  A    between atoms: C_6  and  S_7
REMARK    4  A    between atoms: S_7  and  C_10
REMARK    5  A    between atoms: C_10  and  C_11
REMARK    6  A    between atoms: C_14  and  C_15
REMARK                            x       y       z     vdW  Elec       q    Type
REMARK                         _______ _______ _______ _____ _____    ______ ____
ROOT
ATOM      1  C   UNL     1       2.432   5.902  18.474  0.00  0.00    +0.000 A 
ATOM      2  C   UNL     1       2.980   6.945  17.764  0.00  0.00    +0.000 A 
ATOM      3  C   UNL     1       2.662   8.121  18.482  0.00  0.00    +0.000 A 
ATOM      4  C   UNL     1       1.882   7.740  19.560  0.00  0.00    +0.000 A 
ATOM      5  O   UNL     1       1.752   6.378  19.554  0.00  0.00    +0.000 OA
ENDROOT
BRANCH   4   6
ATOM      6  C   UNL     1       1.322   8.551  20.626  0.00  0.00    +0.000 C 
ATOM      7  O   UNL     1       1.677   8.368  21.793  0.00  0.00    +0.000 OA
ATOM      8  N   UNL     1       0.421   9.573  20.317  0.00  0.00    +0.000 N 
ATOM      9  C   UNL     1       0.052  10.053  18.981  0.00  0.00    +0.000 C 
ATOM     10  C   UNL     1       0.437  11.529  18.807  0.00  0.00    +0.000 C 
ATOM     11  O   UNL     1      -0.088  12.344  19.865  0.00  0.00    +0.000 OA
ATOM     12  C   UNL     1       0.382  11.883  21.143  0.00  0.00    +0.000 C 
ATOM     13  C   UNL     1      -0.066  10.438  21.393  0.00  0.00    +0.000 C 
ENDBRANCH   4   6
BRANCH   1  14
ATOM     14  C   UNL     1       2.444   4.435  18.298  0.00  0.00    +0.000 C 
BRANCH  14  15
ATOM     15  S   UNL     1       4.026   3.786  18.813  0.00  0.00    +0.000 S 
ATOM     16  O   UNL     1       3.959   2.336  18.820  0.00  0.00    +0.000 OA
ATOM     17  O   UNL     1       4.418   4.491  20.021  0.00  0.00    +0.000 OA
BRANCH  15  21
ATOM     18  C   UNL     1       6.979   5.027  15.557  0.00  0.00    +0.000 A 
ATOM     19  C   UNL     1       5.788   4.376  15.226  0.00  0.00    +0.000 A 
ATOM     20  C   UNL     1       4.872   4.020  16.216  0.00  0.00    +0.000 A 
ATOM     21  C   UNL     1       5.175   4.287  17.554  0.00  0.00    +0.000 A 
ATOM     22  C   UNL     1       6.364   4.928  17.902  0.00  0.00    +0.000 A 
ATOM     23  C   UNL     1       7.267   5.297  16.899  0.00  0.00    +0.000 A 
BRANCH  18  25
ATOM     24  C   UNL     1       7.318   4.910  13.222  0.00  0.00    +0.000 C 
ATOM     25  O   UNL     1       7.800   5.308  14.501  0.00  0.00    +0.000 OA
ENDBRANCH  18  25
ENDBRANCH  15  21
ENDBRANCH  14  15
ENDBRANCH   1  14
TORSDOF 5
ENDMDL
MODEL 9
REMARK VINA RESULT:      -7.3      1.589      2.502
REMARK  Name = 
REMARK  6 active torsions:
REMARK  status: ('A' for Active; 'I' for Inactive)
REMARK    1  A    between atoms: C_1  and  O_2
REMARK    2  A    between atoms: O_2  and  C_3
REMARK    3  A    between atoms: C_6  and  S_7
REMARK    4  A    between atoms: S_7  and  C_10
REMARK    5  A    between atoms: C_10  and  C_11
REMARK    6  A    between atoms: C_14  and  C_15
REMARK                            x       y       z     vdW  Elec       q    Type
REMARK                         _______ _______ _______ _____ _____    ______ ____
ROOT
ATOM      1  C   UNL     1       2.046   4.839  19.228  0.00  0.00    +0.000 A 
ATOM      2  C   UNL     1       2.075   5.282  20.530  0.00  0.00    +0.000 A 
ATOM      3  C   UNL     1       2.069   6.695  20.466  0.00  0.00    +0.000 A 
ATOM      4  C   UNL     1       2.099   7.041  19.127  0.00  0.00    +0.000 A 
ATOM      5  O   UNL     1       2.076   5.900  18.373  0.00  0.00    +0.000 OA
ENDROOT
BRANCH   4   6
ATOM      6  C   UNL     1       2.069   8.356  18.512  0.00  0.00    +0.000 C 
ATOM      7  O   UNL     1       2.456   8.504  17.351  0.00  0.00    +0.000 OA
ATOM      8  N   UNL     1       1.550   9.440  19.225  0.00  0.00    +0.000 N 
ATOM      9  C   UNL     1       0.869   9.401  20.524  0.00  0.00    +0.000 C 
ATOM     10  C   UNL     1      -0.572   9.916  20.399  0.00  0.00    +0.000 C 
ATOM     11  O   UNL     1      -0.623  11.206  19.772  0.00  0.00    +0.000 OA
ATOM     12  C   UNL     1      -0.026  11.161  18.465  0.00  0.00    +0.000 C 
ATOM     13  C   UNL     1       1.446  10.741  18.561  0.00  0.00    +0.000 C 
ENDBRANCH   4   6
BRANCH   1  14
ATOM     14  C   UNL     1       1.987   3.498  18.612  0.00  0.00    +0.000 C 
BRANCH  14  15
ATOM     15  S   UNL     1       3.557   2.674  18.825  0.00  0.00    +0.000 S 
ATOM     16  O   UNL     1       3.461   1.331  18.283  0.00  0.00    +0.000 OA
ATOM     17  O   UNL     1       3.969   2.864  20.205  0.00  0.00    +0.000 OA
BRANCH  15  21
ATOM     18  C   UNL     1       6.532   4.998  16.254  0.00  0.00    +0.000 A 
ATOM     19  C   UNL     1       5.535   4.222  15.660  0.00  0.00    +0.000 A 
ATOM     20  C   UNL     1       4.609   3.532  16.442  0.00  0.00    +0.000 A 
ATOM     21  C   UNL     1       4.710   3.595  17.835  0.00  0.00    +0.000 A 
ATOM     22  C   UNL     1       5.706   4.360  18.443  0.00  0.00    +0.000 A 
ATOM     23  C   UNL     1       6.619   5.061  17.649  0.00  0.00    +0.000 A 
BRANCH  18  25
ATOM     24  C   UNL     1       7.346   5.136  14.040  0.00  0.00    +0.000 C 
ATOM     25  O   UNL     1       7.388   5.611  15.381  0.00  0.00    +0.000 OA
ENDBRANCH  18  25
ENDBRANCH  15  21
ENDBRANCH  14  15
ENDBRANCH   1  14
TORSDOF 5
ENDMDL
