MODEL 1
REMARK VINA RESULT:      -7.6      0.000      0.000
REMARK  Name = 
REMARK  12 active torsions:
REMARK  status: ('A' for Active; 'I' for Inactive)
REMARK    1  A    between atoms: C_1  and  C_2
REMARK    2  A    between atoms: C_2  and  O_3
REMARK    3  A    between atoms: O_3  and  C_4
REMARK    4  A    between atoms: C_4  and  C_6
REMARK    5  A    between atoms: C_9  and  N_10
REMARK    6  A    between atoms: C_11  and  C_13
REMARK    7  A    between atoms: C_13  and  S_14
REMARK    8  A    between atoms: S_14  and  C_15
REMARK    9  A    between atoms: N_19  and  C_20
REMARK   10  A    between atoms: C_23  and  O_24
REMARK   11  A    between atoms: O_24  and  C_25
REMARK   12  A    between atoms: C_25  and  C_26
REMARK                            x       y       z     vdW  Elec       q    Type
REMARK                         _______ _______ _______ _____ _____    ______ ____
ROOT
ATOM      1  C   UNL     1       7.941   6.948  18.210  0.00  0.00    +0.000 C 
ENDROOT
BRANCH   1   3
ATOM      2  N   UNL     1       9.031   8.963  19.031  0.00  0.00    +0.000 N 
ATOM      3  C   UNL     1       8.123   8.450  18.113  0.00  0.00    +0.000 C 
ATOM      4  O   UNL     1       7.496   9.094  17.274  0.00  0.00    +0.000 OA
ATOM      5  H   UNL     1       9.582   8.276  19.543  0.00  0.00    +0.000 HD
BRANCH   2   9
ATOM      6  C   UNL     1      10.181  12.986  19.622  0.00  0.00    +0.000 A 
ATOM      7  C   UNL     1      10.274  12.414  18.352  0.00  0.00    +0.000 A 
ATOM      8  C   UNL     1       9.884  11.093  18.136  0.00  0.00    +0.000 A 
ATOM      9  C   UNL     1       9.409  10.313  19.188  0.00  0.00    +0.000 A 
ATOM     10  C   UNL     1       9.298  10.891  20.462  0.00  0.00    +0.000 A 
ATOM     11  C   UNL     1       9.672  12.225  20.680  0.00  0.00    +0.000 A 
BRANCH   6  12
ATOM     12  C   UNL     1      10.528  14.413  19.829  0.00  0.00    +0.000 C 
ATOM     13  O   UNL     1      11.656  14.863  19.746  0.00  0.00    +0.000 OA
BRANCH  12  14
ATOM     14  O   UNL     1       9.407  15.079  20.199  0.00  0.00    +0.000 OA
BRANCH  14  16
ATOM     15  C   UNL     1       8.853  16.995  18.897  0.00  0.00    +0.000 C 
ATOM     16  C   UNL     1       8.554  15.524  19.139  0.00  0.00    +0.000 C 
ENDBRANCH  14  16
ENDBRANCH  12  14
ENDBRANCH   6  12
ENDBRANCH   2   9
ENDBRANCH   1   3
BRANCH   1  17
ATOM     17  S   UNL     1       6.203   6.482  18.058  0.00  0.00    +0.000 S 
BRANCH  17  18
ATOM     18  C   UNL     1       6.213   5.536  16.598  0.00  0.00    +0.000 A 
ATOM     19  N   UNL     1       7.123   5.711  15.659  0.00  0.00    +0.000 NA
ATOM     20  C   UNL     1       6.970   4.650  14.813  0.00  0.00    +0.000 A 
ATOM     21  C   UNL     1       5.937   3.844  15.218  0.00  0.00    +0.000 A 
ATOM     22  N   UNL     1       5.407   4.423  16.361  0.00  0.00    +0.000 N 
BRANCH  22  23
ATOM     23  C   UNL     1       4.286   3.916  17.089  0.00  0.00    +0.000 A 
ATOM     24  C   UNL     1       3.250   4.779  17.477  0.00  0.00    +0.000 A 
ATOM     25  C   UNL     1       2.118   4.276  18.130  0.00  0.00    +0.000 A 
ATOM     26  C   UNL     1       2.004   2.913  18.401  0.00  0.00    +0.000 A 
ATOM     27  C   UNL     1       3.061   2.065  18.084  0.00  0.00    +0.000 A 
ATOM     28  C   UNL     1       4.198   2.565  17.440  0.00  0.00    +0.000 A 
BRANCH  26  29
ATOM     29  O   UNL     1       0.846   2.521  19.016  0.00  0.00    +0.000 OA
BRANCH  29  30
ATOM     30  C   UNL     1       0.521   3.240  20.208  0.00  0.00    +0.000 C 
ATOM     31  C   UNL     1       1.387   2.704  21.335  0.00  0.00    +0.000 C 
ENDBRANCH  29  30
ENDBRANCH  26  29
ENDBRANCH  22  23
ENDBRANCH  17  18
ENDBRANCH   1  17
TORSDOF 10
ENDMDL
MODEL 2
REMARK VINA RESULT:      -7.4      0.828      1.519
REMARK  Name = 
REMARK  12 active torsions:
REMARK  status: ('A' for Active; 'I' for Inactive)
REMARK    1  A    between atoms: C_1  and  C_2
REMARK    2  A    between atoms: C_2  and  O_3
REMARK    3  A    between atoms: O_3  and  C_4
REMARK    4  A    between atoms: C_4  and  C_6
REMARK    5  A    between atoms: C_9  and  N_10
REMARK    6  A    between atoms: C_11  and  C_13
REMARK    7  A    between atoms: C_13  and  S_14
REMARK    8  A    between atoms: S_14  and  C_15
REMARK    9  A    between atoms: N_19  and  C_20
REMARK   10  A    between atoms: C_23  and  O_24
REMARK   11  A    between atoms: O_24  and  C_25
REMARK   12  A    between atoms: C_25  and  C_26
REMARK                            x       y       z     vdW  Elec       q    Type
REMARK                         _______ _______ _______ _____ _____    ______ ____
ROOT
ATOM      1  C   UNL     1       8.200   6.703  18.406  0.00  0.00    +0.000 C 
ENDROOT
BRANCH   1   3
ATOM      2  N   UNL     1       8.945   8.920  19.078  0.00  0.00    +0.000 N 
ATOM      3  C   UNL     1       8.123   8.206  18.216  0.00  0.00    +0.000 C 
ATOM      4  O   UNL     1       7.382   8.682  17.359  0.00  0.00    +0.000 OA
ATOM      5  H   UNL     1       9.614   8.369  19.615  0.00  0.00    +0.000 HD
BRANCH   2   9
ATOM      6  C   UNL     1       9.449  13.104  19.386  0.00  0.00    +0.000 A 
ATOM      7  C   UNL     1       9.144  12.528  18.151  0.00  0.00    +0.000 A 
ATOM      8  C   UNL     1       8.958  11.151  18.035  0.00  0.00    +0.000 A 
ATOM      9  C   UNL     1       9.091  10.322  19.146  0.00  0.00    +0.000 A 
ATOM     10  C   UNL     1       9.381  10.901  20.392  0.00  0.00    +0.000 A 
ATOM     11  C   UNL     1       9.551  12.287  20.517  0.00  0.00    +0.000 A 
BRANCH   6  12
ATOM     12  C   UNL     1       9.572  14.577  19.516  0.00  0.00    +0.000 C 
ATOM     13  O   UNL     1       8.752  15.373  19.096  0.00  0.00    +0.000 OA
BRANCH  12  14
ATOM     14  O   UNL     1      10.766  14.860  20.091  0.00  0.00    +0.000 OA
BRANCH  14  16
ATOM     15  C   UNL     1      12.314  15.027  18.290  0.00  0.00    +0.000 C 
ATOM     16  C   UNL     1      11.602  15.790  19.395  0.00  0.00    +0.000 C 
ENDBRANCH  14  16
ENDBRANCH  12  14
ENDBRANCH   6  12
ENDBRANCH   2   9
ENDBRANCH   1   3
BRANCH   1  17
ATOM     17  S   UNL     1       6.555   5.967  18.524  0.00  0.00    +0.000 S 
BRANCH  17  18
ATOM     18  C   UNL     1       6.307   5.385  16.904  0.00  0.00    +0.000 A 
ATOM     19  N   UNL     1       7.199   5.573  15.950  0.00  0.00    +0.000 NA
ATOM     20  C   UNL     1       6.789   4.779  14.918  0.00  0.00    +0.000 A 
ATOM     21  C   UNL     1       5.620   4.133  15.230  0.00  0.00    +0.000 A 
ATOM     22  N   UNL     1       5.270   4.542  16.508  0.00  0.00    +0.000 N 
BRANCH  22  23
ATOM     23  C   UNL     1       4.092   4.127  17.204  0.00  0.00    +0.000 A 
ATOM     24  C   UNL     1       3.965   2.802  17.645  0.00  0.00    +0.000 A 
ATOM     25  C   UNL     1       2.844   2.407  18.387  0.00  0.00    +0.000 A 
ATOM     26  C   UNL     1       1.842   3.325  18.698  0.00  0.00    +0.000 A 
ATOM     27  C   UNL     1       1.928   4.621  18.200  0.00  0.00    +0.000 A 
ATOM     28  C   UNL     1       3.042   5.017  17.450  0.00  0.00    +0.000 A 
BRANCH  26  29
ATOM     29  O   UNL     1       0.805   2.845  19.452  0.00  0.00    +0.000 OA
BRANCH  29  30
ATOM     30  C   UNL     1       1.119   2.599  20.824  0.00  0.00    +0.000 C 
ATOM     31  C   UNL     1       1.820   3.827  21.378  0.00  0.00    +0.000 C 
ENDBRANCH  29  30
ENDBRANCH  26  29
ENDBRANCH  22  23
ENDBRANCH  17  18
ENDBRANCH   1  17
TORSDOF 10
ENDMDL
MODEL 3
REMARK VINA RESULT:      -7.4      6.057      8.504
REMARK  Name = 
REMARK  12 active torsions:
REMARK  status: ('A' for Active; 'I' for Inactive)
REMARK    1  A    between atoms: C_1  and  C_2
REMARK    2  A    between atoms: C_2  and  O_3
REMARK    3  A    between atoms: O_3  and  C_4
REMARK    4  A    between atoms: C_4  and  C_6
REMARK    5  A    between atoms: C_9  and  N_10
REMARK    6  A    between atoms: C_11  and  C_13
REMARK    7  A    between atoms: C_13  and  S_14
REMARK    8  A    between atoms: S_14  and  C_15
REMARK    9  A    between atoms: N_19  and  C_20
REMARK   10  A    between atoms: C_23  and  O_24
REMARK   11  A    between atoms: O_24  and  C_25
REMARK   12  A    between atoms: C_25  and  C_26
REMARK                            x       y       z     vdW  Elec       q    Type
REMARK                         _______ _______ _______ _____ _____    ______ ____
ROOT
ATOM      1  C   UNL     1       2.990   6.708  18.359  0.00  0.00    +0.000 C 
ENDROOT
BRANCH   1   3
ATOM      2  N   UNL     1       1.789   7.847  20.143  0.00  0.00    +0.000 N 
ATOM      3  C   UNL     1       2.278   7.955  18.847  0.00  0.00    +0.000 C 
ATOM      4  O   UNL     1       2.180   8.936  18.112  0.00  0.00    +0.000 OA
ATOM      5  H   UNL     1       2.096   7.030  20.668  0.00  0.00    +0.000 HD
BRANCH   2   9
ATOM      6  C   UNL     1      -0.367  10.836  22.211  0.00  0.00    +0.000 A 
ATOM      7  C   UNL     1       0.034   9.678  22.879  0.00  0.00    +0.000 A 
ATOM      8  C   UNL     1       0.760   8.689  22.216  0.00  0.00    +0.000 A 
ATOM      9  C   UNL     1       1.084   8.830  20.869  0.00  0.00    +0.000 A 
ATOM     10  C   UNL     1       0.696  10.002  20.199  0.00  0.00    +0.000 A 
ATOM     11  C   UNL     1      -0.018  11.007  20.867  0.00  0.00    +0.000 A 
BRANCH   6  12
ATOM     12  C   UNL     1      -1.074  11.916  22.941  0.00  0.00    +0.000 C 
ATOM     13  O   UNL     1      -0.569  12.981  23.247  0.00  0.00    +0.000 OA
BRANCH  12  14
ATOM     14  O   UNL     1      -2.314  11.476  23.266  0.00  0.00    +0.000 OA
BRANCH  14  16
ATOM     15  C   UNL     1      -4.013  12.708  24.391  0.00  0.00    +0.000 C 
ATOM     16  C   UNL     1      -3.392  12.391  23.041  0.00  0.00    +0.000 C 
ENDBRANCH  14  16
ENDBRANCH  12  14
ENDBRANCH   6  12
ENDBRANCH   2   9
ENDBRANCH   1   3
BRANCH   1  17
ATOM     17  S   UNL     1       1.917   5.258  18.443  0.00  0.00    +0.000 S 
BRANCH  17  18
ATOM     18  C   UNL     1       2.896   4.141  19.349  0.00  0.00    +0.000 A 
ATOM     19  N   UNL     1       2.440   3.526  20.424  0.00  0.00    +0.000 NA
ATOM     20  C   UNL     1       3.369   2.567  20.706  0.00  0.00    +0.000 A 
ATOM     21  C   UNL     1       4.416   2.623  19.821  0.00  0.00    +0.000 A 
ATOM     22  N   UNL     1       4.144   3.666  18.950  0.00  0.00    +0.000 N 
BRANCH  22  23
ATOM     23  C   UNL     1       5.002   4.087  17.886  0.00  0.00    +0.000 A 
ATOM     24  C   UNL     1       6.196   4.764  18.173  0.00  0.00    +0.000 A 
ATOM     25  C   UNL     1       7.073   5.119  17.140  0.00  0.00    +0.000 A 
ATOM     26  C   UNL     1       6.773   4.802  15.816  0.00  0.00    +0.000 A 
ATOM     27  C   UNL     1       5.556   4.196  15.521  0.00  0.00    +0.000 A 
ATOM     28  C   UNL     1       4.672   3.849  16.548  0.00  0.00    +0.000 A 
BRANCH  26  29
ATOM     29  O   UNL     1       7.710   5.166  14.887  0.00  0.00    +0.000 OA
BRANCH  29  30
ATOM     30  C   UNL     1       7.352   4.898  13.530  0.00  0.00    +0.000 C 
ATOM     31  C   UNL     1       8.270   5.705  12.629  0.00  0.00    +0.000 C 
ENDBRANCH  29  30
ENDBRANCH  26  29
ENDBRANCH  22  23
ENDBRANCH  17  18
ENDBRANCH   1  17
TORSDOF 10
ENDMDL
MODEL 4
REMARK VINA RESULT:      -7.3      6.071      8.438
REMARK  Name = 
REMARK  12 active torsions:
REMARK  status: ('A' for Active; 'I' for Inactive)
REMARK    1  A    between atoms: C_1  and  C_2
REMARK    2  A    between atoms: C_2  and  O_3
REMARK    3  A    between atoms: O_3  and  C_4
REMARK    4  A    between atoms: C_4  and  C_6
REMARK    5  A    between atoms: C_9  and  N_10
REMARK    6  A    between atoms: C_11  and  C_13
REMARK    7  A    between atoms: C_13  and  S_14
REMARK    8  A    between atoms: S_14  and  C_15
REMARK    9  A    between atoms: N_19  and  C_20
REMARK   10  A    between atoms: C_23  and  O_24
REMARK   11  A    between atoms: O_24  and  C_25
REMARK   12  A    between atoms: C_25  and  C_26
REMARK                            x       y       z     vdW  Elec       q    Type
REMARK                         _______ _______ _______ _____ _____    ______ ____
ROOT
ATOM      1  C   UNL     1       3.006   6.914  18.884  0.00  0.00    +0.000 C 
ENDROOT
BRANCH   1   3
ATOM      2  N   UNL     1       1.668   8.127  20.515  0.00  0.00    +0.000 N 
ATOM      3  C   UNL     1       2.070   8.068  19.187  0.00  0.00    +0.000 C 
ATOM      4  O   UNL     1       1.739   8.844  18.293  0.00  0.00    +0.000 OA
ATOM      5  H   UNL     1       2.161   7.507  21.157  0.00  0.00    +0.000 HD
BRANCH   2   9
ATOM      6  C   UNL     1      -0.865  10.952  22.375  0.00  0.00    +0.000 A 
ATOM      7  C   UNL     1      -0.657  11.004  20.996  0.00  0.00    +0.000 A 
ATOM      8  C   UNL     1       0.162  10.070  20.364  0.00  0.00    +0.000 A 
ATOM      9  C   UNL     1       0.804   9.077  21.100  0.00  0.00    +0.000 A 
ATOM     10  C   UNL     1       0.583   9.012  22.485  0.00  0.00    +0.000 A 
ATOM     11  C   UNL     1      -0.255   9.938  23.122  0.00  0.00    +0.000 A 
BRANCH   6  12
ATOM     12  C   UNL     1      -1.796  11.903  23.030  0.00  0.00    +0.000 C 
ATOM     13  O   UNL     1      -3.010  11.807  22.997  0.00  0.00    +0.000 OA
BRANCH  12  14
ATOM     14  O   UNL     1      -1.070  12.908  23.578  0.00  0.00    +0.000 OA
BRANCH  14  16
ATOM     15  C   UNL     1      -2.170  15.020  23.583  0.00  0.00    +0.000 C 
ATOM     16  C   UNL     1      -1.115  14.167  22.898  0.00  0.00    +0.000 C 
ENDBRANCH  14  16
ENDBRANCH  12  14
ENDBRANCH   6  12
ENDBRANCH   2   9
ENDBRANCH   1   3
BRANCH   1  17
ATOM     17  S   UNL     1       2.093   5.414  18.466  0.00  0.00    +0.000 S 
BRANCH  17  18
ATOM     18  C   UNL     1       2.953   4.207  19.377  0.00  0.00    +0.000 A 
ATOM     19  N   UNL     1       2.412   3.598  20.415  0.00  0.00    +0.000 NA
ATOM     20  C   UNL     1       3.260   2.567  20.705  0.00  0.00    +0.000 A 
ATOM     21  C   UNL     1       4.343   2.571  19.863  0.00  0.00    +0.000 A 
ATOM     22  N   UNL     1       4.180   3.654  19.012  0.00  0.00    +0.000 N 
BRANCH  22  23
ATOM     23  C   UNL     1       5.108   4.041  17.995  0.00  0.00    +0.000 A 
ATOM     24  C   UNL     1       4.830   3.765  16.648  0.00  0.00    +0.000 A 
ATOM     25  C   UNL     1       5.702   4.201  15.643  0.00  0.00    +0.000 A 
ATOM     26  C   UNL     1       6.855   4.916  15.966  0.00  0.00    +0.000 A 
ATOM     27  C   UNL     1       7.171   5.127  17.304  0.00  0.00    +0.000 A 
ATOM     28  C   UNL     1       6.308   4.685  18.313  0.00  0.00    +0.000 A 
BRANCH  26  29
ATOM     29  O   UNL     1       7.623   5.321  14.908  0.00  0.00    +0.000 OA
BRANCH  29  30
ATOM     30  C   UNL     1       7.204   4.828  13.633  0.00  0.00    +0.000 C 
ATOM     31  C   UNL     1       8.069   5.476  12.567  0.00  0.00    +0.000 C 
ENDBRANCH  29  30
ENDBRANCH  26  29
ENDBRANCH  22  23
ENDBRANCH  17  18
ENDBRANCH   1  17
TORSDOF 10
ENDMDL
MODEL 5
REMARK VINA RESULT:      -7.2      5.113      7.299
REMARK  Name = 
REMARK  12 active torsions:
REMARK  status: ('A' for Active; 'I' for Inactive)
REMARK    1  A    between atoms: C_1  and  C_2
REMARK    2  A    between atoms: C_2  and  O_3
REMARK    3  A    between atoms: O_3  and  C_4
REMARK    4  A    between atoms: C_4  and  C_6
REMARK    5  A    between atoms: C_9  and  N_10
REMARK    6  A    between atoms: C_11  and  C_13
REMARK    7  A    between atoms: C_13  and  S_14
REMARK    8  A    between atoms: S_14  and  C_15
REMARK    9  A    between atoms: N_19  and  C_20
REMARK   10  A    between atoms: C_23  and  O_24
REMARK   11  A    between atoms: O_24  and  C_25
REMARK   12  A    between atoms: C_25  and  C_26
REMARK                            x       y       z     vdW  Elec       q    Type
REMARK                         _______ _______ _______ _____ _____    ______ ____
ROOT
ATOM      1  C   UNL     1       3.382   3.987  19.754  0.00  0.00    +0.000 C 
ENDROOT
BRANCH   1   3
ATOM      2  N   UNL     1       2.624   6.282  20.036  0.00  0.00    +0.000 N 
ATOM      3  C   UNL     1       2.729   5.216  19.151  0.00  0.00    +0.000 C 
ATOM      4  O   UNL     1       2.352   5.203  17.981  0.00  0.00    +0.000 OA
ATOM      5  H   UNL     1       3.130   6.183  20.914  0.00  0.00    +0.000 HD
BRANCH   2   9
ATOM      6  C   UNL     1       0.952  10.106  19.373  0.00  0.00    +0.000 A 
ATOM      7  C   UNL     1       1.623   9.451  18.339  0.00  0.00    +0.000 A 
ATOM      8  C   UNL     1       2.167   8.182  18.536  0.00  0.00    +0.000 A 
ATOM      9  C   UNL     1       2.065   7.551  19.774  0.00  0.00    +0.000 A 
ATOM     10  C   UNL     1       1.375   8.201  20.809  0.00  0.00    +0.000 A 
ATOM     11  C   UNL     1       0.811   9.469  20.610  0.00  0.00    +0.000 A 
BRANCH   6  12
ATOM     12  C   UNL     1       0.312  11.423  19.134  0.00  0.00    +0.000 C 
ATOM     13  O   UNL     1      -0.641  11.599  18.397  0.00  0.00    +0.000 OA
BRANCH  12  14
ATOM     14  O   UNL     1       1.016  12.370  19.801  0.00  0.00    +0.000 OA
BRANCH  14  16
ATOM     15  C   UNL     1       1.472  14.425  18.686  0.00  0.00    +0.000 C 
ATOM     16  C   UNL     1       2.024  13.057  19.051  0.00  0.00    +0.000 C 
ENDBRANCH  14  16
ENDBRANCH  12  14
ENDBRANCH   6  12
ENDBRANCH   2   9
ENDBRANCH   1   3
BRANCH   1  17
ATOM     17  S   UNL     1       4.627   3.290  18.646  0.00  0.00    +0.000 S 
BRANCH  17  18
ATOM     18  C   UNL     1       5.860   4.517  18.678  0.00  0.00    +0.000 A 
ATOM     19  N   UNL     1       6.298   5.038  19.808  0.00  0.00    +0.000 NA
ATOM     20  C   UNL     1       7.407   5.755  19.463  0.00  0.00    +0.000 A 
ATOM     21  C   UNL     1       7.625   5.702  18.109  0.00  0.00    +0.000 A 
ATOM     22  N   UNL     1       6.606   4.929  17.574  0.00  0.00    +0.000 N 
BRANCH  22  23
ATOM     23  C   UNL     1       6.439   4.648  16.182  0.00  0.00    +0.000 A 
ATOM     24  C   UNL     1       7.371   5.130  15.251  0.00  0.00    +0.000 A 
ATOM     25  C   UNL     1       7.250   4.800  13.895  0.00  0.00    +0.000 A 
ATOM     26  C   UNL     1       6.206   3.989  13.453  0.00  0.00    +0.000 A 
ATOM     27  C   UNL     1       5.239   3.570  14.362  0.00  0.00    +0.000 A 
ATOM     28  C   UNL     1       5.350   3.905  15.716  0.00  0.00    +0.000 A 
BRANCH  26  29
ATOM     29  O   UNL     1       6.196   3.703  12.115  0.00  0.00    +0.000 OA
BRANCH  29  30
ATOM     30  C   UNL     1       5.382   2.589  11.741  0.00  0.00    +0.000 C 
ATOM     31  C   UNL     1       4.096   3.124  11.136  0.00  0.00    +0.000 C 
ENDBRANCH  29  30
ENDBRANCH  26  29
ENDBRANCH  22  23
ENDBRANCH  17  18
ENDBRANCH   1  17
TORSDOF 10
ENDMDL
MODEL 6
REMARK VINA RESULT:      -7.2      5.275      7.537
REMARK  Name = 
REMARK  12 active torsions:
REMARK  status: ('A' for Active; 'I' for Inactive)
REMARK    1  A    between atoms: C_1  and  C_2
REMARK    2  A    between atoms: C_2  and  O_3
REMARK    3  A    between atoms: O_3  and  C_4
REMARK    4  A    between atoms: C_4  and  C_6
REMARK    5  A    between atoms: C_9  and  N_10
REMARK    6  A    between atoms: C_11  and  C_13
REMARK    7  A    between atoms: C_13  and  S_14
REMARK    8  A    between atoms: S_14  and  C_15
REMARK    9  A    between atoms: N_19  and  C_20
REMARK   10  A    between atoms: C_23  and  O_24
REMARK   11  A    between atoms: O_24  and  C_25
REMARK   12  A    between atoms: C_25  and  C_26
REMARK                            x       y       z     vdW  Elec       q    Type
REMARK                         _______ _______ _______ _____ _____    ______ ____
ROOT
ATOM      1  C   UNL     1       3.422   3.610  19.854  0.00  0.00    +0.000 C 
ENDROOT
BRANCH   1   3
ATOM      2  N   UNL     1       2.935   5.994  19.857  0.00  0.00    +0.000 N 
ATOM      3  C   UNL     1       2.428   4.727  19.601  0.00  0.00    +0.000 C 
ATOM      4  O   UNL     1       1.294   4.464  19.204  0.00  0.00    +0.000 OA
ATOM      5  H   UNL     1       3.939   6.046  20.023  0.00  0.00    +0.000 HD
BRANCH   2   9
ATOM      6  C   UNL     1       0.908   9.690  19.566  0.00  0.00    +0.000 A 
ATOM      7  C   UNL     1       1.614   9.195  18.469  0.00  0.00    +0.000 A 
ATOM      8  C   UNL     1       2.275   7.970  18.542  0.00  0.00    +0.000 A 
ATOM      9  C   UNL     1       2.258   7.224  19.719  0.00  0.00    +0.000 A 
ATOM     10  C   UNL     1       1.534   7.712  20.818  0.00  0.00    +0.000 A 
ATOM     11  C   UNL     1       0.853   8.935  20.743  0.00  0.00    +0.000 A 
BRANCH   6  12
ATOM     12  C   UNL     1       0.147  10.959  19.457  0.00  0.00    +0.000 C 
ATOM     13  O   UNL     1      -0.941  11.151  19.970  0.00  0.00    +0.000 OA
BRANCH  12  14
ATOM     14  O   UNL     1       0.825  11.800  18.639  0.00  0.00    +0.000 OA
BRANCH  14  16
ATOM     15  C   UNL     1       1.500  14.083  18.589  0.00  0.00    +0.000 C 
ATOM     16  C   UNL     1       1.694  12.742  19.277  0.00  0.00    +0.000 C 
ENDBRANCH  14  16
ENDBRANCH  12  14
ENDBRANCH   6  12
ENDBRANCH   2   9
ENDBRANCH   1   3
BRANCH   1  17
ATOM     17  S   UNL     1       4.423   3.271  18.390  0.00  0.00    +0.000 S 
BRANCH  17  18
ATOM     18  C   UNL     1       5.698   4.444  18.550  0.00  0.00    +0.000 A 
ATOM     19  N   UNL     1       6.029   4.960  19.718  0.00  0.00    +0.000 NA
ATOM     20  C   UNL     1       7.201   5.624  19.494  0.00  0.00    +0.000 A 
ATOM     21  C   UNL     1       7.566   5.544  18.174  0.00  0.00    +0.000 A 
ATOM     22  N   UNL     1       6.580   4.809  17.534  0.00  0.00    +0.000 N 
BRANCH  22  23
ATOM     23  C   UNL     1       6.558   4.517  16.134  0.00  0.00    +0.000 A 
ATOM     24  C   UNL     1       5.611   3.620  15.618  0.00  0.00    +0.000 A 
ATOM     25  C   UNL     1       5.541   3.383  14.240  0.00  0.00    +0.000 A 
ATOM     26  C   UNL     1       6.406   4.036  13.363  0.00  0.00    +0.000 A 
ATOM     27  C   UNL     1       7.394   4.870  13.878  0.00  0.00    +0.000 A 
ATOM     28  C   UNL     1       7.475   5.102  15.255  0.00  0.00    +0.000 A 
BRANCH  26  29
ATOM     29  O   UNL     1       6.234   3.756  12.034  0.00  0.00    +0.000 OA
BRANCH  29  30
ATOM     30  C   UNL     1       5.647   2.483  11.756  0.00  0.00    +0.000 C 
ATOM     31  C   UNL     1       6.726   1.577  11.188  0.00  0.00    +0.000 C 
ENDBRANCH  29  30
ENDBRANCH  26  29
ENDBRANCH  22  23
ENDBRANCH  17  18
ENDBRANCH   1  17
TORSDOF 10
ENDMDL
MODEL 7
REMARK VINA RESULT:      -7.2      5.444      7.771
REMARK  Name = 
REMARK  12 active torsions:
REMARK  status: ('A' for Active; 'I' for Inactive)
REMARK    1  A    between atoms: C_1  and  C_2
REMARK    2  A    between atoms: C_2  and  O_3
REMARK    3  A    between atoms: O_3  and  C_4
REMARK    4  A    between atoms: C_4  and  C_6
REMARK    5  A    between atoms: C_9  and  N_10
REMARK    6  A    between atoms: C_11  and  C_13
REMARK    7  A    between atoms: C_13  and  S_14
REMARK    8  A    between atoms: S_14  and  C_15
REMARK    9  A    between atoms: N_19  and  C_20
REMARK   10  A    between atoms: C_23  and  O_24
REMARK   11  A    between atoms: O_24  and  C_25
REMARK   12  A    between atoms: C_25  and  C_26
REMARK                            x       y       z     vdW  Elec       q    Type
REMARK                         _______ _______ _______ _____ _____    ______ ____
ROOT
ATOM      1  C   UNL     1       3.368   4.148  19.745  0.00  0.00    +0.000 C 
ENDROOT
BRANCH   1   3
ATOM      2  N   UNL     1       2.634   6.456  19.989  0.00  0.00    +0.000 N 
ATOM      3  C   UNL     1       2.615   5.334  19.171  0.00  0.00    +0.000 C 
ATOM      4  O   UNL     1       2.064   5.242  18.076  0.00  0.00    +0.000 OA
ATOM      5  H   UNL     1       3.269   6.416  20.785  0.00  0.00    +0.000 HD
BRANCH   2   9
ATOM      6  C   UNL     1       0.812  10.164  19.104  0.00  0.00    +0.000 A 
ATOM      7  C   UNL     1       0.710   9.627  20.388  0.00  0.00    +0.000 A 
ATOM      8  C   UNL     1       1.318   8.412  20.702  0.00  0.00    +0.000 A 
ATOM      9  C   UNL     1       2.026   7.703  19.734  0.00  0.00    +0.000 A 
ATOM     10  C   UNL     1       2.144   8.250  18.446  0.00  0.00    +0.000 A 
ATOM     11  C   UNL     1       1.549   9.480  18.132  0.00  0.00    +0.000 A 
BRANCH   6  12
ATOM     12  C   UNL     1       0.224  11.492  18.798  0.00  0.00    +0.000 C 
ATOM     13  O   UNL     1       0.877  12.496  18.580  0.00  0.00    +0.000 OA
BRANCH  12  14
ATOM     14  O   UNL     1      -1.124  11.397  18.888  0.00  0.00    +0.000 OA
BRANCH  14  16
ATOM     15  C   UNL     1      -1.991  12.057  21.005  0.00  0.00    +0.000 C 
ATOM     16  C   UNL     1      -1.793  12.472  19.557  0.00  0.00    +0.000 C 
ENDBRANCH  14  16
ENDBRANCH  12  14
ENDBRANCH   6  12
ENDBRANCH   2   9
ENDBRANCH   1   3
BRANCH   1  17
ATOM     17  S   UNL     1       4.508   3.441  18.535  0.00  0.00    +0.000 S 
BRANCH  17  18
ATOM     18  C   UNL     1       5.819   4.584  18.569  0.00  0.00    +0.000 A 
ATOM     19  N   UNL     1       6.268   5.098  19.698  0.00  0.00    +0.000 NA
ATOM     20  C   UNL     1       7.430   5.732  19.362  0.00  0.00    +0.000 A 
ATOM     21  C   UNL     1       7.670   5.637  18.015  0.00  0.00    +0.000 A 
ATOM     22  N   UNL     1       6.612   4.922  17.473  0.00  0.00    +0.000 N 
BRANCH  22  23
ATOM     23  C   UNL     1       6.455   4.623  16.084  0.00  0.00    +0.000 A 
ATOM     24  C   UNL     1       7.440   5.013  15.165  0.00  0.00    +0.000 A 
ATOM     25  C   UNL     1       7.323   4.664  13.813  0.00  0.00    +0.000 A 
ATOM     26  C   UNL     1       6.230   3.924  13.364  0.00  0.00    +0.000 A 
ATOM     27  C   UNL     1       5.215   3.600  14.259  0.00  0.00    +0.000 A 
ATOM     28  C   UNL     1       5.322   3.955  15.608  0.00  0.00    +0.000 A 
BRANCH  26  29
ATOM     29  O   UNL     1       6.227   3.611  12.032  0.00  0.00    +0.000 OA
BRANCH  29  30
ATOM     30  C   UNL     1       5.493   2.432  11.690  0.00  0.00    +0.000 C 
ATOM     31  C   UNL     1       6.482   1.374  11.235  0.00  0.00    +0.000 C 
ENDBRANCH  29  30
ENDBRANCH  26  29
ENDBRANCH  22  23
ENDBRANCH  17  18
ENDBRANCH   1  17
TORSDOF 10
ENDMDL
MODEL 8
REMARK VINA RESULT:      -7.2      6.716     10.334
REMARK  Name = 
REMARK  12 active torsions:
REMARK  status: ('A' for Active; 'I' for Inactive)
REMARK    1  A    between atoms: C_1  and  C_2
REMARK    2  A    between atoms: C_2  and  O_3
REMARK    3  A    between atoms: O_3  and  C_4
REMARK    4  A    between atoms: C_4  and  C_6
REMARK    5  A    between atoms: C_9  and  N_10
REMARK    6  A    between atoms: C_11  and  C_13
REMARK    7  A    between atoms: C_13  and  S_14
REMARK    8  A    between atoms: S_14  and  C_15
REMARK    9  A    between atoms: N_19  and  C_20
REMARK   10  A    between atoms: C_23  and  O_24
REMARK   11  A    between atoms: O_24  and  C_25
REMARK   12  A    between atoms: C_25  and  C_26
REMARK                            x       y       z     vdW  Elec       q    Type
REMARK                         _______ _______ _______ _____ _____    ______ ____
ROOT
ATOM      1  C   UNL     1       2.018   9.503  18.906  0.00  0.00    +0.000 C 
ENDROOT
BRANCH   1   3
ATOM      2  N   UNL     1      -0.105  10.228  17.964  0.00  0.00    +0.000 N 
ATOM      3  C   UNL     1       0.538   9.765  19.105  0.00  0.00    +0.000 C 
ATOM      4  O   UNL     1       0.018   9.563  20.200  0.00  0.00    +0.000 OA
ATOM      5  H   UNL     1       0.434  10.186  17.101  0.00  0.00    +0.000 HD
BRANCH   2   9
ATOM      6  C   UNL     1      -4.173  11.328  17.642  0.00  0.00    +0.000 A 
ATOM      7  C   UNL     1      -3.614  10.447  16.715  0.00  0.00    +0.000 A 
ATOM      8  C   UNL     1      -2.278  10.061  16.816  0.00  0.00    +0.000 A 
ATOM      9  C   UNL     1      -1.470  10.561  17.835  0.00  0.00    +0.000 A 
ATOM     10  C   UNL     1      -2.035  11.434  18.778  0.00  0.00    +0.000 A 
ATOM     11  C   UNL     1      -3.383  11.810  18.691  0.00  0.00    +0.000 A 
BRANCH   6  12
ATOM     12  C   UNL     1      -5.613  11.676  17.571  0.00  0.00    +0.000 C 
ATOM     13  O   UNL     1      -6.058  12.635  16.967  0.00  0.00    +0.000 OA
BRANCH  12  14
ATOM     14  O   UNL     1      -6.304  10.808  18.349  0.00  0.00    +0.000 OA
BRANCH  14  16
ATOM     15  C   UNL     1      -7.442  10.316  20.382  0.00  0.00    +0.000 C 
ATOM     16  C   UNL     1      -7.159  11.386  19.341  0.00  0.00    +0.000 C 
ENDBRANCH  14  16
ENDBRANCH  12  14
ENDBRANCH   6  12
ENDBRANCH   2   9
ENDBRANCH   1   3
BRANCH   1  17
ATOM     17  S   UNL     1       2.300   8.035  17.893  0.00  0.00    +0.000 S 
BRANCH  17  18
ATOM     18  C   UNL     1       2.567   6.813  19.103  0.00  0.00    +0.000 A 
ATOM     19  N   UNL     1       1.844   6.751  20.204  0.00  0.00    +0.000 NA
ATOM     20  C   UNL     1       2.159   5.549  20.770  0.00  0.00    +0.000 A 
ATOM     21  C   UNL     1       3.108   4.892  20.029  0.00  0.00    +0.000 A 
ATOM     22  N   UNL     1       3.414   5.715  18.956  0.00  0.00    +0.000 N 
BRANCH  22  23
ATOM     23  C   UNL     1       4.387   5.419  17.950  0.00  0.00    +0.000 A 
ATOM     24  C   UNL     1       5.560   6.183  17.862  0.00  0.00    +0.000 A 
ATOM     25  C   UNL     1       6.547   5.855  16.923  0.00  0.00    +0.000 A 
ATOM     26  C   UNL     1       6.378   4.766  16.068  0.00  0.00    +0.000 A 
ATOM     27  C   UNL     1       5.184   4.053  16.103  0.00  0.00    +0.000 A 
ATOM     28  C   UNL     1       4.191   4.382  17.032  0.00  0.00    +0.000 A 
BRANCH  26  29
ATOM     29  O   UNL     1       7.414   4.515  15.210  0.00  0.00    +0.000 OA
BRANCH  29  30
ATOM     30  C   UNL     1       7.217   4.977  13.872  0.00  0.00    +0.000 C 
ATOM     31  C   UNL     1       6.596   3.849  13.067  0.00  0.00    +0.000 C 
ENDBRANCH  29  30
ENDBRANCH  26  29
ENDBRANCH  22  23
ENDBRANCH  17  18
ENDBRANCH   1  17
TORSDOF 10
ENDMDL
MODEL 9
REMARK VINA RESULT:      -7.0      5.593      7.835
REMARK  Name = 
REMARK  12 active torsions:
REMARK  status: ('A' for Active; 'I' for Inactive)
REMARK    1  A    between atoms: C_1  and  C_2
REMARK    2  A    between atoms: C_2  and  O_3
REMARK    3  A    between atoms: O_3  and  C_4
REMARK    4  A    between atoms: C_4  and  C_6
REMARK    5  A    between atoms: C_9  and  N_10
REMARK    6  A    between atoms: C_11  and  C_13
REMARK    7  A    between atoms: C_13  and  S_14
REMARK    8  A    between atoms: S_14  and  C_15
REMARK    9  A    between atoms: N_19  and  C_20
REMARK   10  A    between atoms: C_23  and  O_24
REMARK   11  A    between atoms: O_24  and  C_25
REMARK   12  A    between atoms: C_25  and  C_26
REMARK                            x       y       z     vdW  Elec       q    Type
REMARK                         _______ _______ _______ _____ _____    ______ ____
ROOT
ATOM      1  C   UNL     1       3.376   4.179  19.797  0.00  0.00    +0.000 C 
ENDROOT
BRANCH   1   3
ATOM      2  N   UNL     1       2.592   6.453  20.166  0.00  0.00    +0.000 N 
ATOM      3  C   UNL     1       2.501   5.333  19.349  0.00  0.00    +0.000 C 
ATOM      4  O   UNL     1       1.801   5.222  18.344  0.00  0.00    +0.000 OA
ATOM      5  H   UNL     1       3.337   6.437  20.861  0.00  0.00    +0.000 HD
BRANCH   2   9
ATOM      6  C   UNL     1       0.534  10.097  19.583  0.00  0.00    +0.000 A 
ATOM      7  C   UNL     1       0.431   9.427  20.803  0.00  0.00    +0.000 A 
ATOM      8  C   UNL     1       1.116   8.231  21.018  0.00  0.00    +0.000 A 
ATOM      9  C   UNL     1       1.903   7.674  20.012  0.00  0.00    +0.000 A 
ATOM     10  C   UNL     1       2.021   8.356  18.791  0.00  0.00    +0.000 A 
ATOM     11  C   UNL     1       1.349   9.567  18.577  0.00  0.00    +0.000 A 
BRANCH   6  12
ATOM     12  C   UNL     1      -0.139  11.405  19.387  0.00  0.00    +0.000 C 
ATOM     13  O   UNL     1       0.123  12.182  18.487  0.00  0.00    +0.000 OA
BRANCH  12  14
ATOM     14  O   UNL     1      -1.005  11.601  20.410  0.00  0.00    +0.000 OA
BRANCH  14  16
ATOM     15  C   UNL     1      -1.931  13.715  20.997  0.00  0.00    +0.000 C 
ATOM     16  C   UNL     1      -2.113  12.468  20.147  0.00  0.00    +0.000 C 
ENDBRANCH  14  16
ENDBRANCH  12  14
ENDBRANCH   6  12
ENDBRANCH   2   9
ENDBRANCH   1   3
BRANCH   1  17
ATOM     17  S   UNL     1       4.427   3.585  18.454  0.00  0.00    +0.000 S 
BRANCH  17  18
ATOM     18  C   UNL     1       5.798   4.650  18.576  0.00  0.00    +0.000 A 
ATOM     19  N   UNL     1       6.186   5.160  19.729  0.00  0.00    +0.000 NA
ATOM     20  C   UNL     1       7.406   5.718  19.479  0.00  0.00    +0.000 A 
ATOM     21  C   UNL     1       7.747   5.581  18.157  0.00  0.00    +0.000 A 
ATOM     22  N   UNL     1       6.695   4.918  17.543  0.00  0.00    +0.000 N 
BRANCH  22  23
ATOM     23  C   UNL     1       6.632   4.601  16.150  0.00  0.00    +0.000 A 
ATOM     24  C   UNL     1       5.716   3.644  15.688  0.00  0.00    +0.000 A 
ATOM     25  C   UNL     1       5.603   3.379  14.318  0.00  0.00    +0.000 A 
ATOM     26  C   UNL     1       6.393   4.063  13.395  0.00  0.00    +0.000 A 
ATOM     27  C   UNL     1       7.354   4.959  13.855  0.00  0.00    +0.000 A 
ATOM     28  C   UNL     1       7.478   5.220  15.224  0.00  0.00    +0.000 A 
BRANCH  26  29
ATOM     29  O   UNL     1       6.183   3.750  12.080  0.00  0.00    +0.000 OA
BRANCH  29  30
ATOM     30  C   UNL     1       5.221   2.718  11.850  0.00  0.00    +0.000 C 
ATOM     31  C   UNL     1       4.040   3.326  11.113  0.00  0.00    +0.000 C 
ENDBRANCH  29  30
ENDBRANCH  26  29
ENDBRANCH  22  23
ENDBRANCH  17  18
ENDBRANCH   1  17
TORSDOF 10
ENDMDL
