MODEL 1
REMARK VINA RESULT:      -8.8      0.000      0.000
REMARK  Name = 
REMARK  7 active torsions:
REMARK  status: ('A' for Active; 'I' for Inactive)
REMARK    1  A    between atoms: C_1  and  C_2
REMARK    2  A    between atoms: C_5  and  N_6
REMARK    3  A    between atoms: C_8  and  C_9
REMARK    4  A    between atoms: N_11  and  C_12
REMARK    5  A    between atoms: C_14  and  S_15
REMARK    6  A    between atoms: S_15  and  N_18
REMARK    7  A    between atoms: C_26  and  C_27
REMARK                            x       y       z     vdW  Elec       q    Type
REMARK                         _______ _______ _______ _____ _____    ______ ____
ROOT
ATOM      1  C   UNL     1       2.360   4.854  19.004  0.00  0.00    +0.000 C 
ATOM      2  O   UNL     1       1.322   4.860  18.349  0.00  0.00    +0.000 OA
ATOM      3  N   UNL     1       2.896   5.947  19.666  0.00  0.00    +0.000 N 
ATOM      4  H   UNL     1       3.852   5.908  20.012  0.00  0.00    +0.000 HD
ENDROOT
BRANCH   3   5
ATOM      5  C   UNL     1       2.297   7.223  19.695  0.00  0.00    +0.000 A 
ATOM      6  C   UNL     1       1.602   7.649  20.859  0.00  0.00    +0.000 A 
ATOM      7  C   UNL     1       0.928   8.868  20.865  0.00  0.00    +0.000 A 
ATOM      8  C   UNL     1       0.995   9.695  19.756  0.00  0.00    +0.000 A 
ATOM      9  C   UNL     1       1.689   9.287  18.599  0.00  0.00    +0.000 A 
ATOM     10  C   UNL     1       2.332   8.052  18.565  0.00  0.00    +0.000 A 
ATOM     11  C   UNL     1       2.951   7.672  17.241  0.00  0.00    +0.000 C 
BRANCH   7  12
ATOM     12  S   UNL     1       0.073   9.389  22.348  0.00  0.00    +0.000 S 
ATOM     13  O   UNL     1      -0.991   8.422  22.616  0.00  0.00    +0.000 OA
ATOM     14  O   UNL     1       1.079   9.660  23.345  0.00  0.00    +0.000 OA
BRANCH  12  15
ATOM     15  N   UNL     1      -0.680  10.890  21.931  0.00  0.00    +0.000 NA
ATOM     16  C   UNL     1      -1.707  11.351  22.904  0.00  0.00    +0.000 C 
ATOM     17  C   UNL     1      -2.426  12.611  22.430  0.00  0.00    +0.000 C 
ATOM     18  C   UNL     1      -1.443  13.708  22.041  0.00  0.00    +0.000 C 
ATOM     19  C   UNL     1      -0.463  13.199  20.993  0.00  0.00    +0.000 C 
ATOM     20  C   UNL     1       0.260  11.940  21.456  0.00  0.00    +0.000 C 
ENDBRANCH  12  15
ENDBRANCH   7  12
ENDBRANCH   3   5
BRANCH   1  23
ATOM     21  N   UNL     1       4.953   3.940  17.614  0.00  0.00    +0.000 N 
ATOM     22  C   UNL     1       3.697   3.215  17.673  0.00  0.00    +0.000 C 
ATOM     23  C   UNL     1       3.167   3.563  19.051  0.00  0.00    +0.000 C 
ATOM     24  C   UNL     1       4.416   3.751  19.891  0.00  0.00    +0.000 C 
ATOM     25  C   UNL     1       5.391   4.313  18.895  0.00  0.00    +0.000 C 
ATOM     26  O   UNL     1       6.325   5.029  19.207  0.00  0.00    +0.000 OA
BRANCH  21  31
ATOM     27  C   UNL     1       7.755   5.076  12.745  0.00  0.00    +0.000 C 
ATOM     28  C   UNL     1       7.024   4.755  14.014  0.00  0.00    +0.000 A 
ATOM     29  C   UNL     1       5.762   4.154  13.983  0.00  0.00    +0.000 A 
ATOM     30  C   UNL     1       5.086   3.879  15.170  0.00  0.00    +0.000 A 
ATOM     31  C   UNL     1       5.643   4.202  16.413  0.00  0.00    +0.000 A 
ATOM     32  C   UNL     1       6.901   4.808  16.433  0.00  0.00    +0.000 A 
ATOM     33  C   UNL     1       7.587   5.077  15.250  0.00  0.00    +0.000 A 
ENDBRANCH  21  31
ENDBRANCH   1  23
TORSDOF 5
ENDMDL
MODEL 2
REMARK VINA RESULT:      -8.8      3.074      8.835
REMARK  Name = 
REMARK  7 active torsions:
REMARK  status: ('A' for Active; 'I' for Inactive)
REMARK    1  A    between atoms: C_1  and  C_2
REMARK    2  A    between atoms: C_5  and  N_6
REMARK    3  A    between atoms: C_8  and  C_9
REMARK    4  A    between atoms: N_11  and  C_12
REMARK    5  A    between atoms: C_14  and  S_15
REMARK    6  A    between atoms: S_15  and  N_18
REMARK    7  A    between atoms: C_26  and  C_27
REMARK                            x       y       z     vdW  Elec       q    Type
REMARK                         _______ _______ _______ _____ _____    ______ ____
ROOT
ATOM      1  C   UNL     1       1.770   7.692  20.087  0.00  0.00    +0.000 C 
ATOM      2  O   UNL     1       1.800   8.288  19.014  0.00  0.00    +0.000 OA
ATOM      3  N   UNL     1       2.099   6.359  20.272  0.00  0.00    +0.000 N 
ATOM      4  H   UNL     1       1.855   5.896  21.146  0.00  0.00    +0.000 HD
ENDROOT
BRANCH   3   5
ATOM      5  C   UNL     1       2.540   5.505  19.241  0.00  0.00    +0.000 A 
ATOM      6  C   UNL     1       3.515   5.965  18.315  0.00  0.00    +0.000 A 
ATOM      7  C   UNL     1       3.889   5.165  17.237  0.00  0.00    +0.000 A 
ATOM      8  C   UNL     1       3.360   3.892  17.112  0.00  0.00    +0.000 A 
ATOM      9  C   UNL     1       2.398   3.422  18.029  0.00  0.00    +0.000 A 
ATOM     10  C   UNL     1       1.985   4.228  19.087  0.00  0.00    +0.000 A 
ATOM     11  C   UNL     1       0.875   3.666  19.943  0.00  0.00    +0.000 C 
BRANCH   7  12
ATOM     12  S   UNL     1       5.130   5.760  16.094  0.00  0.00    +0.000 S 
ATOM     13  O   UNL     1       5.394   4.698  15.124  0.00  0.00    +0.000 OA
ATOM     14  O   UNL     1       4.706   7.064  15.647  0.00  0.00    +0.000 OA
BRANCH  12  15
ATOM     15  N   UNL     1       6.560   5.964  17.046  0.00  0.00    +0.000 NA
ATOM     16  C   UNL     1       6.815   7.365  17.477  0.00  0.00    +0.000 C 
ATOM     17  C   UNL     1       8.147   7.511  18.207  0.00  0.00    +0.000 C 
ATOM     18  C   UNL     1       8.279   6.507  19.345  0.00  0.00    +0.000 C 
ATOM     19  C   UNL     1       8.080   5.087  18.830  0.00  0.00    +0.000 C 
ATOM     20  C   UNL     1       6.752   4.931  18.098  0.00  0.00    +0.000 C 
ENDBRANCH  12  15
ENDBRANCH   7  12
ENDBRANCH   3   5
BRANCH   1  23
ATOM     21  N   UNL     1       0.948  10.623  20.556  0.00  0.00    +0.000 N 
ATOM     22  C   UNL     1       1.875   9.843  21.354  0.00  0.00    +0.000 C 
ATOM     23  C   UNL     1       1.275   8.451  21.311  0.00  0.00    +0.000 C 
ATOM     24  C   UNL     1      -0.220   8.696  21.212  0.00  0.00    +0.000 C 
ATOM     25  C   UNL     1      -0.284   9.965  20.410  0.00  0.00    +0.000 C 
ATOM     26  O   UNL     1      -1.235  10.265  19.711  0.00  0.00    +0.000 OA
BRANCH  21  31
ATOM     27  C   UNL     1       2.272  15.766  18.398  0.00  0.00    +0.000 C 
ATOM     28  C   UNL     1       1.902  14.427  18.964  0.00  0.00    +0.000 A 
ATOM     29  C   UNL     1       1.429  14.308  20.275  0.00  0.00    +0.000 A 
ATOM     30  C   UNL     1       1.108  13.055  20.793  0.00  0.00    +0.000 A 
ATOM     31  C   UNL     1       1.256  11.893  20.026  0.00  0.00    +0.000 A 
ATOM     32  C   UNL     1       1.736  12.023  18.721  0.00  0.00    +0.000 A 
ATOM     33  C   UNL     1       2.050  13.273  18.193  0.00  0.00    +0.000 A 
ENDBRANCH  21  31
ENDBRANCH   1  23
TORSDOF 5
ENDMDL
MODEL 3
REMARK VINA RESULT:      -8.7      0.581      1.195
REMARK  Name = 
REMARK  7 active torsions:
REMARK  status: ('A' for Active; 'I' for Inactive)
REMARK    1  A    between atoms: C_1  and  C_2
REMARK    2  A    between atoms: C_5  and  N_6
REMARK    3  A    between atoms: C_8  and  C_9
REMARK    4  A    between atoms: N_11  and  C_12
REMARK    5  A    between atoms: C_14  and  S_15
REMARK    6  A    between atoms: S_15  and  N_18
REMARK    7  A    between atoms: C_26  and  C_27
REMARK                            x       y       z     vdW  Elec       q    Type
REMARK                         _______ _______ _______ _____ _____    ______ ____
ROOT
ATOM      1  C   UNL     1       2.310   4.827  18.851  0.00  0.00    +0.000 C 
ATOM      2  O   UNL     1       1.235   4.861  18.259  0.00  0.00    +0.000 OA
ATOM      3  N   UNL     1       2.915   5.905  19.476  0.00  0.00    +0.000 N 
ATOM      4  H   UNL     1       3.889   5.839  19.765  0.00  0.00    +0.000 HD
ENDROOT
BRANCH   3   5
ATOM      5  C   UNL     1       2.356   7.198  19.535  0.00  0.00    +0.000 A 
ATOM      6  C   UNL     1       1.656   7.610  20.702  0.00  0.00    +0.000 A 
ATOM      7  C   UNL     1       1.019   8.849  20.735  0.00  0.00    +0.000 A 
ATOM      8  C   UNL     1       1.130   9.706  19.654  0.00  0.00    +0.000 A 
ATOM      9  C   UNL     1       1.829   9.312  18.495  0.00  0.00    +0.000 A 
ATOM     10  C   UNL     1       2.434   8.060  18.433  0.00  0.00    +0.000 A 
ATOM     11  C   UNL     1       3.063   7.701  17.107  0.00  0.00    +0.000 C 
BRANCH   7  12
ATOM     12  S   UNL     1       0.157   9.351  22.221  0.00  0.00    +0.000 S 
ATOM     13  O   UNL     1      -0.937   8.407  22.446  0.00  0.00    +0.000 OA
ATOM     14  O   UNL     1       1.156   9.564  23.240  0.00  0.00    +0.000 OA
BRANCH  12  15
ATOM     15  N   UNL     1      -0.547  10.884  21.838  0.00  0.00    +0.000 NA
ATOM     16  C   UNL     1      -1.352  10.893  20.586  0.00  0.00    +0.000 C 
ATOM     17  C   UNL     1      -1.848  12.290  20.229  0.00  0.00    +0.000 C 
ATOM     18  C   UNL     1      -2.564  12.951  21.400  0.00  0.00    +0.000 C 
ATOM     19  C   UNL     1      -1.666  12.977  22.629  0.00  0.00    +0.000 C 
ATOM     20  C   UNL     1      -1.165  11.585  22.994  0.00  0.00    +0.000 C 
ENDBRANCH  12  15
ENDBRANCH   7  12
ENDBRANCH   3   5
BRANCH   1  23
ATOM     21  N   UNL     1       4.910   3.908  17.479  0.00  0.00    +0.000 N 
ATOM     22  C   UNL     1       3.634   3.216  17.475  0.00  0.00    +0.000 C 
ATOM     23  C   UNL     1       3.080   3.513  18.855  0.00  0.00    +0.000 C 
ATOM     24  C   UNL     1       4.314   3.627  19.732  0.00  0.00    +0.000 C 
ATOM     25  C   UNL     1       5.327   4.208  18.786  0.00  0.00    +0.000 C 
ATOM     26  O   UNL     1       6.272   4.883  19.153  0.00  0.00    +0.000 OA
BRANCH  21  31
ATOM     27  C   UNL     1       7.872   5.048  12.706  0.00  0.00    +0.000 C 
ATOM     28  C   UNL     1       7.094   4.773  13.958  0.00  0.00    +0.000 A 
ATOM     29  C   UNL     1       7.588   5.158  15.209  0.00  0.00    +0.000 A 
ATOM     30  C   UNL     1       6.862   4.879  16.365  0.00  0.00    +0.000 A 
ATOM     31  C   UNL     1       5.636   4.206  16.308  0.00  0.00    +0.000 A 
ATOM     32  C   UNL     1       5.155   3.821  15.055  0.00  0.00    +0.000 A 
ATOM     33  C   UNL     1       5.871   4.104  13.893  0.00  0.00    +0.000 A 
ENDBRANCH  21  31
ENDBRANCH   1  23
TORSDOF 5
ENDMDL
MODEL 4
REMARK VINA RESULT:      -8.7      3.162      9.093
REMARK  Name = 
REMARK  7 active torsions:
REMARK  status: ('A' for Active; 'I' for Inactive)
REMARK    1  A    between atoms: C_1  and  C_2
REMARK    2  A    between atoms: C_5  and  N_6
REMARK    3  A    between atoms: C_8  and  C_9
REMARK    4  A    between atoms: N_11  and  C_12
REMARK    5  A    between atoms: C_14  and  S_15
REMARK    6  A    between atoms: S_15  and  N_18
REMARK    7  A    between atoms: C_26  and  C_27
REMARK                            x       y       z     vdW  Elec       q    Type
REMARK                         _______ _______ _______ _____ _____    ______ ____
ROOT
ATOM      1  C   UNL     1       2.203   8.075  19.429  0.00  0.00    +0.000 C 
ATOM      2  O   UNL     1       2.069   8.329  18.235  0.00  0.00    +0.000 OA
ATOM      3  N   UNL     1       2.537   6.835  19.951  0.00  0.00    +0.000 N 
ATOM      4  H   UNL     1       2.430   6.663  20.948  0.00  0.00    +0.000 HD
ENDROOT
BRANCH   3   5
ATOM      5  C   UNL     1       2.794   5.693  19.166  0.00  0.00    +0.000 A 
ATOM      6  C   UNL     1       3.828   5.726  18.192  0.00  0.00    +0.000 A 
ATOM      7  C   UNL     1       4.029   4.636  17.347  0.00  0.00    +0.000 A 
ATOM      8  C   UNL     1       3.264   3.494  17.508  0.00  0.00    +0.000 A 
ATOM      9  C   UNL     1       2.241   3.446  18.477  0.00  0.00    +0.000 A 
ATOM     10  C   UNL     1       2.003   4.544  19.299  0.00  0.00    +0.000 A 
ATOM     11  C   UNL     1       0.816   4.422  20.225  0.00  0.00    +0.000 C 
BRANCH   7  12
ATOM     12  S   UNL     1       5.348   4.696  16.139  0.00  0.00    +0.000 S 
ATOM     13  O   UNL     1       5.756   3.321  15.850  0.00  0.00    +0.000 OA
ATOM     14  O   UNL     1       4.908   5.564  15.074  0.00  0.00    +0.000 OA
BRANCH  12  15
ATOM     15  N   UNL     1       6.666   5.472  16.947  0.00  0.00    +0.000 NA
ATOM     16  C   UNL     1       6.627   6.959  16.895  0.00  0.00    +0.000 C 
ATOM     17  C   UNL     1       7.870   7.590  17.514  0.00  0.00    +0.000 C 
ATOM     18  C   UNL     1       8.138   7.052  18.914  0.00  0.00    +0.000 C 
ATOM     19  C   UNL     1       8.239   5.533  18.892  0.00  0.00    +0.000 C 
ATOM     20  C   UNL     1       7.002   4.892  18.275  0.00  0.00    +0.000 C 
ENDBRANCH  12  15
ENDBRANCH   7  12
ENDBRANCH   3   5
BRANCH   1  23
ATOM     21  N   UNL     1      -0.276   9.808  20.011  0.00  0.00    +0.000 N 
ATOM     22  C   UNL     1       1.080  10.276  19.798  0.00  0.00    +0.000 C 
ATOM     23  C   UNL     1       1.922   9.186  20.432  0.00  0.00    +0.000 C 
ATOM     24  C   UNL     1       1.060   8.667  21.568  0.00  0.00    +0.000 C 
ATOM     25  C   UNL     1      -0.328   8.827  21.015  0.00  0.00    +0.000 C 
ATOM     26  O   UNL     1      -1.268   8.136  21.363  0.00  0.00    +0.000 OA
BRANCH  21  31
ATOM     27  C   UNL     1      -4.764  11.855  17.093  0.00  0.00    +0.000 C 
ATOM     28  C   UNL     1      -3.605  11.315  17.875  0.00  0.00    +0.000 A 
ATOM     29  C   UNL     1      -3.154  11.962  19.031  0.00  0.00    +0.000 A 
ATOM     30  C   UNL     1      -2.064  11.459  19.736  0.00  0.00    +0.000 A 
ATOM     31  C   UNL     1      -1.391  10.308  19.308  0.00  0.00    +0.000 A 
ATOM     32  C   UNL     1      -1.845   9.674  18.149  0.00  0.00    +0.000 A 
ATOM     33  C   UNL     1      -2.941  10.166  17.444  0.00  0.00    +0.000 A 
ENDBRANCH  21  31
ENDBRANCH   1  23
TORSDOF 5
ENDMDL
MODEL 5
REMARK VINA RESULT:      -8.6      4.401      8.257
REMARK  Name = 
REMARK  7 active torsions:
REMARK  status: ('A' for Active; 'I' for Inactive)
REMARK    1  A    between atoms: C_1  and  C_2
REMARK    2  A    between atoms: C_5  and  N_6
REMARK    3  A    between atoms: C_8  and  C_9
REMARK    4  A    between atoms: N_11  and  C_12
REMARK    5  A    between atoms: C_14  and  S_15
REMARK    6  A    between atoms: S_15  and  N_18
REMARK    7  A    between atoms: C_26  and  C_27
REMARK                            x       y       z     vdW  Elec       q    Type
REMARK                         _______ _______ _______ _____ _____    ______ ____
ROOT
ATOM      1  C   UNL     1      -0.953  12.790  20.933  0.00  0.00    +0.000 C 
ATOM      2  O   UNL     1      -0.747  11.801  21.631  0.00  0.00    +0.000 OA
ATOM      3  N   UNL     1      -1.972  13.709  21.127  0.00  0.00    +0.000 N 
ATOM      4  H   UNL     1      -2.193  14.379  20.393  0.00  0.00    +0.000 HD
ENDROOT
BRANCH   3   5
ATOM      5  C   UNL     1      -2.906  13.640  22.181  0.00  0.00    +0.000 A 
ATOM      6  C   UNL     1      -4.224  13.175  21.925  0.00  0.00    +0.000 A 
ATOM      7  C   UNL     1      -5.182  13.191  22.936  0.00  0.00    +0.000 A 
ATOM      8  C   UNL     1      -4.825  13.597  24.211  0.00  0.00    +0.000 A 
ATOM      9  C   UNL     1      -3.518  14.053  24.480  0.00  0.00    +0.000 A 
ATOM     10  C   UNL     1      -2.564  14.080  23.467  0.00  0.00    +0.000 A 
ATOM     11  C   UNL     1      -1.231  14.686  23.840  0.00  0.00    +0.000 C 
BRANCH   7  12
ATOM     12  S   UNL     1      -6.830  12.586  22.592  0.00  0.00    +0.000 S 
ATOM     13  O   UNL     1      -7.278  11.818  23.753  0.00  0.00    +0.000 OA
ATOM     14  O   UNL     1      -7.604  13.707  22.119  0.00  0.00    +0.000 OA
BRANCH  12  15
ATOM     15  N   UNL     1      -6.638  11.479  21.277  0.00  0.00    +0.000 NA
ATOM     16  C   UNL     1      -7.620  10.360  21.270  0.00  0.00    +0.000 C 
ATOM     17  C   UNL     1      -7.333   9.348  20.165  0.00  0.00    +0.000 C 
ATOM     18  C   UNL     1      -7.192  10.021  18.806  0.00  0.00    +0.000 C 
ATOM     19  C   UNL     1      -6.126  11.107  18.856  0.00  0.00    +0.000 C 
ATOM     20  C   UNL     1      -6.403  12.123  19.958  0.00  0.00    +0.000 C 
ENDBRANCH  12  15
ENDBRANCH   7  12
ENDBRANCH   3   5
BRANCH   1  23
ATOM     21  N   UNL     1       0.584  10.863  19.086  0.00  0.00    +0.000 N 
ATOM     22  C   UNL     1       1.113  12.044  19.742  0.00  0.00    +0.000 C 
ATOM     23  C   UNL     1      -0.061  13.004  19.717  0.00  0.00    +0.000 C 
ATOM     24  C   UNL     1      -0.807  12.642  18.445  0.00  0.00    +0.000 C 
ATOM     25  C   UNL     1      -0.573  11.161  18.347  0.00  0.00    +0.000 C 
ATOM     26  O   UNL     1      -1.337  10.401  17.781  0.00  0.00    +0.000 OA
BRANCH  21  31
ATOM     27  C   UNL     1       2.982   5.666  19.384  0.00  0.00    +0.000 C 
ATOM     28  C   UNL     1       2.372   7.034  19.321  0.00  0.00    +0.000 A 
ATOM     29  C   UNL     1       1.792   7.615  20.454  0.00  0.00    +0.000 A 
ATOM     30  C   UNL     1       1.212   8.878  20.375  0.00  0.00    +0.000 A 
ATOM     31  C   UNL     1       1.187   9.591  19.171  0.00  0.00    +0.000 A 
ATOM     32  C   UNL     1       1.762   9.000  18.044  0.00  0.00    +0.000 A 
ATOM     33  C   UNL     1       2.352   7.740  18.117  0.00  0.00    +0.000 A 
ENDBRANCH  21  31
ENDBRANCH   1  23
TORSDOF 5
ENDMDL
MODEL 6
REMARK VINA RESULT:      -8.6      2.802      9.659
REMARK  Name = 
REMARK  7 active torsions:
REMARK  status: ('A' for Active; 'I' for Inactive)
REMARK    1  A    between atoms: C_1  and  C_2
REMARK    2  A    between atoms: C_5  and  N_6
REMARK    3  A    between atoms: C_8  and  C_9
REMARK    4  A    between atoms: N_11  and  C_12
REMARK    5  A    between atoms: C_14  and  S_15
REMARK    6  A    between atoms: S_15  and  N_18
REMARK    7  A    between atoms: C_26  and  C_27
REMARK                            x       y       z     vdW  Elec       q    Type
REMARK                         _______ _______ _______ _____ _____    ______ ____
ROOT
ATOM      1  C   UNL     1       0.910   9.614  18.246  0.00  0.00    +0.000 C 
ATOM      2  O   UNL     1       0.020   8.888  17.811  0.00  0.00    +0.000 OA
ATOM      3  N   UNL     1       1.998   9.188  18.991  0.00  0.00    +0.000 N 
ATOM      4  H   UNL     1       2.574   9.872  19.478  0.00  0.00    +0.000 HD
ENDROOT
BRANCH   3   5
ATOM      5  C   UNL     1       2.242   7.842  19.332  0.00  0.00    +0.000 A 
ATOM      6  C   UNL     1       3.040   7.033  18.479  0.00  0.00    +0.000 A 
ATOM      7  C   UNL     1       3.210   5.678  18.757  0.00  0.00    +0.000 A 
ATOM      8  C   UNL     1       2.657   5.139  19.906  0.00  0.00    +0.000 A 
ATOM      9  C   UNL     1       1.871   5.934  20.764  0.00  0.00    +0.000 A 
ATOM     10  C   UNL     1       1.659   7.279  20.475  0.00  0.00    +0.000 A 
ATOM     11  C   UNL     1       0.715   8.007  21.403  0.00  0.00    +0.000 C 
BRANCH   7  12
ATOM     12  S   UNL     1       4.232   4.684  17.675  0.00  0.00    +0.000 S 
ATOM     13  O   UNL     1       4.253   3.321  18.204  0.00  0.00    +0.000 OA
ATOM     14  O   UNL     1       3.791   4.934  16.325  0.00  0.00    +0.000 OA
BRANCH  12  15
ATOM     15  N   UNL     1       5.828   5.331  17.841  0.00  0.00    +0.000 NA
ATOM     16  C   UNL     1       6.068   6.577  17.063  0.00  0.00    +0.000 C 
ATOM     17  C   UNL     1       7.520   7.037  17.145  0.00  0.00    +0.000 C 
ATOM     18  C   UNL     1       7.998   7.139  18.588  0.00  0.00    +0.000 C 
ATOM     19  C   UNL     1       7.793   5.815  19.313  0.00  0.00    +0.000 C 
ATOM     20  C   UNL     1       6.345   5.345  19.236  0.00  0.00    +0.000 C 
ENDBRANCH  12  15
ENDBRANCH   7  12
ENDBRANCH   3   5
BRANCH   1  23
ATOM     21  N   UNL     1      -0.182  11.935  19.951  0.00  0.00    +0.000 N 
ATOM     22  C   UNL     1      -0.518  11.639  18.570  0.00  0.00    +0.000 C 
ATOM     23  C   UNL     1       0.788  11.113  18.007  0.00  0.00    +0.000 C 
ATOM     24  C   UNL     1       1.855  11.860  18.786  0.00  0.00    +0.000 C 
ATOM     25  C   UNL     1       1.208  12.031  20.132  0.00  0.00    +0.000 C 
ATOM     26  O   UNL     1       1.839  12.143  21.166  0.00  0.00    +0.000 OA
BRANCH  21  31
ATOM     27  C   UNL     1      -4.122  12.645  24.052  0.00  0.00    +0.000 C 
ATOM     28  C   UNL     1      -3.085  12.483  22.982  0.00  0.00    +0.000 A 
ATOM     29  C   UNL     1      -3.206  13.150  21.758  0.00  0.00    +0.000 A 
ATOM     30  C   UNL     1      -2.244  12.974  20.766  0.00  0.00    +0.000 A 
ATOM     31  C   UNL     1      -1.146  12.128  20.961  0.00  0.00    +0.000 A 
ATOM     32  C   UNL     1      -1.039  11.462  22.184  0.00  0.00    +0.000 A 
ATOM     33  C   UNL     1      -1.991  11.640  23.184  0.00  0.00    +0.000 A 
ENDBRANCH  21  31
ENDBRANCH   1  23
TORSDOF 5
ENDMDL
MODEL 7
REMARK VINA RESULT:      -8.4      2.561      9.167
REMARK  Name = 
REMARK  7 active torsions:
REMARK  status: ('A' for Active; 'I' for Inactive)
REMARK    1  A    between atoms: C_1  and  C_2
REMARK    2  A    between atoms: C_5  and  N_6
REMARK    3  A    between atoms: C_8  and  C_9
REMARK    4  A    between atoms: N_11  and  C_12
REMARK    5  A    between atoms: C_14  and  S_15
REMARK    6  A    between atoms: S_15  and  N_18
REMARK    7  A    between atoms: C_26  and  C_27
REMARK                            x       y       z     vdW  Elec       q    Type
REMARK                         _______ _______ _______ _____ _____    ______ ____
ROOT
ATOM      1  C   UNL     1       1.776   7.610  20.442  0.00  0.00    +0.000 C 
ATOM      2  O   UNL     1       1.902   8.071  19.311  0.00  0.00    +0.000 OA
ATOM      3  N   UNL     1       2.189   6.351  20.844  0.00  0.00    +0.000 N 
ATOM      4  H   UNL     1       1.869   5.975  21.735  0.00  0.00    +0.000 HD
ENDROOT
BRANCH   3   5
ATOM      5  C   UNL     1       2.838   5.427  20.000  0.00  0.00    +0.000 A 
ATOM      6  C   UNL     1       4.109   5.747  19.450  0.00  0.00    +0.000 A 
ATOM      7  C   UNL     1       4.717   4.883  18.542  0.00  0.00    +0.000 A 
ATOM      8  C   UNL     1       4.110   3.679  18.230  0.00  0.00    +0.000 A 
ATOM      9  C   UNL     1       2.854   3.346  18.775  0.00  0.00    +0.000 A 
ATOM     10  C   UNL     1       2.217   4.220  19.652  0.00  0.00    +0.000 A 
ATOM     11  C   UNL     1       0.830   3.812  20.090  0.00  0.00    +0.000 C 
BRANCH   7  12
ATOM     12  S   UNL     1       6.324   5.302  17.875  0.00  0.00    +0.000 S 
ATOM     13  O   UNL     1       6.565   6.720  18.141  0.00  0.00    +0.000 OA
ATOM     14  O   UNL     1       7.253   4.305  18.348  0.00  0.00    +0.000 OA
BRANCH  12  15
ATOM     15  N   UNL     1       6.166   5.112  16.163  0.00  0.00    +0.000 NA
ATOM     16  C   UNL     1       7.461   5.048  15.432  0.00  0.00    +0.000 C 
ATOM     17  C   UNL     1       7.267   5.004  13.919  0.00  0.00    +0.000 C 
ATOM     18  C   UNL     1       6.298   3.903  13.506  0.00  0.00    +0.000 C 
ATOM     19  C   UNL     1       4.969   4.062  14.233  0.00  0.00    +0.000 C 
ATOM     20  C   UNL     1       5.152   4.108  15.746  0.00  0.00    +0.000 C 
ENDBRANCH  12  15
ENDBRANCH   7  12
ENDBRANCH   3   5
BRANCH   1  23
ATOM     21  N   UNL     1       0.871  10.554  20.495  0.00  0.00    +0.000 N 
ATOM     22  C   UNL     1       1.632   9.861  21.518  0.00  0.00    +0.000 C 
ATOM     23  C   UNL     1       1.056   8.459  21.482  0.00  0.00    +0.000 C 
ATOM     24  C   UNL     1      -0.394   8.665  21.083  0.00  0.00    +0.000 C 
ATOM     25  C   UNL     1      -0.309   9.861  20.177  0.00  0.00    +0.000 C 
ATOM     26  O   UNL     1      -1.112  10.083  19.289  0.00  0.00    +0.000 OA
BRANCH  21  31
ATOM     27  C   UNL     1       2.560  15.521  18.188  0.00  0.00    +0.000 C 
ATOM     28  C   UNL     1       2.095  14.229  18.790  0.00  0.00    +0.000 A 
ATOM     29  C   UNL     1       1.483  14.202  20.048  0.00  0.00    +0.000 A 
ATOM     30  C   UNL     1       1.074  12.992  20.603  0.00  0.00    +0.000 A 
ATOM     31  C   UNL     1       1.269  11.781  19.927  0.00  0.00    +0.000 A 
ATOM     32  C   UNL     1       1.887  11.818  18.675  0.00  0.00    +0.000 A 
ATOM     33  C   UNL     1       2.290  13.026  18.110  0.00  0.00    +0.000 A 
ENDBRANCH  21  31
ENDBRANCH   1  23
TORSDOF 5
ENDMDL
MODEL 8
REMARK VINA RESULT:      -8.3      3.783      6.441
REMARK  Name = 
REMARK  7 active torsions:
REMARK  status: ('A' for Active; 'I' for Inactive)
REMARK    1  A    between atoms: C_1  and  C_2
REMARK    2  A    between atoms: C_5  and  N_6
REMARK    3  A    between atoms: C_8  and  C_9
REMARK    4  A    between atoms: N_11  and  C_12
REMARK    5  A    between atoms: C_14  and  S_15
REMARK    6  A    between atoms: S_15  and  N_18
REMARK    7  A    between atoms: C_26  and  C_27
REMARK                            x       y       z     vdW  Elec       q    Type
REMARK                         _______ _______ _______ _____ _____    ______ ____
ROOT
ATOM      1  C   UNL     1      -0.484  10.507  19.902  0.00  0.00    +0.000 C 
ATOM      2  O   UNL     1      -1.099   9.609  20.472  0.00  0.00    +0.000 OA
ATOM      3  N   UNL     1      -1.043  11.440  19.043  0.00  0.00    +0.000 N 
ATOM      4  H   UNL     1      -0.437  12.016  18.462  0.00  0.00    +0.000 HD
ENDROOT
BRANCH   3   5
ATOM      5  C   UNL     1      -2.415  11.497  18.725  0.00  0.00    +0.000 A 
ATOM      6  C   UNL     1      -3.300  12.236  19.555  0.00  0.00    +0.000 A 
ATOM      7  C   UNL     1      -4.671  12.222  19.304  0.00  0.00    +0.000 A 
ATOM      8  C   UNL     1      -5.159  11.543  18.200  0.00  0.00    +0.000 A 
ATOM      9  C   UNL     1      -4.289  10.814  17.364  0.00  0.00    +0.000 A 
ATOM     10  C   UNL     1      -2.922  10.786  17.629  0.00  0.00    +0.000 A 
ATOM     11  C   UNL     1      -2.101   9.888  16.734  0.00  0.00    +0.000 C 
BRANCH   7  12
ATOM     12  S   UNL     1      -5.763  13.173  20.355  0.00  0.00    +0.000 S 
ATOM     13  O   UNL     1      -6.120  14.398  19.641  0.00  0.00    +0.000 OA
ATOM     14  O   UNL     1      -6.792  12.275  20.820  0.00  0.00    +0.000 OA
BRANCH  12  15
ATOM     15  N   UNL     1      -4.798  13.626  21.717  0.00  0.00    +0.000 NA
ATOM     16  C   UNL     1      -4.471  15.076  21.781  0.00  0.00    +0.000 C 
ATOM     17  C   UNL     1      -3.520  15.403  22.928  0.00  0.00    +0.000 C 
ATOM     18  C   UNL     1      -4.024  14.849  24.254  0.00  0.00    +0.000 C 
ATOM     19  C   UNL     1      -4.273  13.351  24.147  0.00  0.00    +0.000 C 
ATOM     20  C   UNL     1      -5.222  13.013  23.004  0.00  0.00    +0.000 C 
ENDBRANCH  12  15
ENDBRANCH   7  12
ENDBRANCH   3   5
BRANCH   1  23
ATOM     21  N   UNL     1       1.788   8.475  19.458  0.00  0.00    +0.000 N 
ATOM     22  C   UNL     1       1.549   9.263  20.652  0.00  0.00    +0.000 C 
ATOM     23  C   UNL     1       1.025  10.574  20.098  0.00  0.00    +0.000 C 
ATOM     24  C   UNL     1       1.725  10.716  18.759  0.00  0.00    +0.000 C 
ATOM     25  C   UNL     1       1.856   9.287  18.313  0.00  0.00    +0.000 C 
ATOM     26  O   UNL     1       1.919   8.957  17.143  0.00  0.00    +0.000 OA
BRANCH  21  31
ATOM     27  C   UNL     1       2.524   2.792  19.562  0.00  0.00    +0.000 C 
ATOM     28  C   UNL     1       2.315   4.276  19.517  0.00  0.00    +0.000 A 
ATOM     29  C   UNL     1       2.678   5.019  18.388  0.00  0.00    +0.000 A 
ATOM     30  C   UNL     1       2.495   6.399  18.369  0.00  0.00    +0.000 A 
ATOM     31  C   UNL     1       1.957   7.076  19.470  0.00  0.00    +0.000 A 
ATOM     32  C   UNL     1       1.604   6.326  20.594  0.00  0.00    +0.000 A 
ATOM     33  C   UNL     1       1.775   4.944  20.618  0.00  0.00    +0.000 A 
ENDBRANCH  21  31
ENDBRANCH   1  23
TORSDOF 5
ENDMDL
MODEL 9
REMARK VINA RESULT:      -8.3      3.061      8.654
REMARK  Name = 
REMARK  7 active torsions:
REMARK  status: ('A' for Active; 'I' for Inactive)
REMARK    1  A    between atoms: C_1  and  C_2
REMARK    2  A    between atoms: C_5  and  N_6
REMARK    3  A    between atoms: C_8  and  C_9
REMARK    4  A    between atoms: N_11  and  C_12
REMARK    5  A    between atoms: C_14  and  S_15
REMARK    6  A    between atoms: S_15  and  N_18
REMARK    7  A    between atoms: C_26  and  C_27
REMARK                            x       y       z     vdW  Elec       q    Type
REMARK                         _______ _______ _______ _____ _____    ______ ____
ROOT
ATOM      1  C   UNL     1       1.787   7.483  20.296  0.00  0.00    +0.000 C 
ATOM      2  O   UNL     1       1.989   8.072  19.237  0.00  0.00    +0.000 OA
ATOM      3  N   UNL     1       1.961   6.124  20.501  0.00  0.00    +0.000 N 
ATOM      4  H   UNL     1       1.582   5.689  21.340  0.00  0.00    +0.000 HD
ENDROOT
BRANCH   3   5
ATOM      5  C   UNL     1       2.420   5.229  19.514  0.00  0.00    +0.000 A 
ATOM      6  C   UNL     1       3.500   5.606  18.670  0.00  0.00    +0.000 A 
ATOM      7  C   UNL     1       3.901   4.769  17.630  0.00  0.00    +0.000 A 
ATOM      8  C   UNL     1       3.289   3.538  17.466  0.00  0.00    +0.000 A 
ATOM      9  C   UNL     1       2.223   3.150  18.303  0.00  0.00    +0.000 A 
ATOM     10  C   UNL     1       1.786   3.995  19.319  0.00  0.00    +0.000 A 
ATOM     11  C   UNL     1       0.571   3.526  20.083  0.00  0.00    +0.000 C 
BRANCH   7  12
ATOM     12  S   UNL     1       5.272   5.259  16.590  0.00  0.00    +0.000 S 
ATOM     13  O   UNL     1       6.043   4.059  16.269  0.00  0.00    +0.000 OA
ATOM     14  O   UNL     1       4.733   6.082  15.536  0.00  0.00    +0.000 OA
BRANCH  12  15
ATOM     15  N   UNL     1       6.263   6.261  17.594  0.00  0.00    +0.000 NA
ATOM     16  C   UNL     1       7.320   5.526  18.341  0.00  0.00    +0.000 C 
ATOM     17  C   UNL     1       8.084   6.433  19.301  0.00  0.00    +0.000 C 
ATOM     18  C   UNL     1       8.610   7.680  18.601  0.00  0.00    +0.000 C 
ATOM     19  C   UNL     1       7.474   8.427  17.915  0.00  0.00    +0.000 C 
ATOM     20  C   UNL     1       6.703   7.530  16.954  0.00  0.00    +0.000 C 
ENDBRANCH  12  15
ENDBRANCH   7  12
ENDBRANCH   3   5
BRANCH   1  23
ATOM     21  N   UNL     1       0.963  10.433  20.619  0.00  0.00    +0.000 N 
ATOM     22  C   UNL     1       1.851   9.680  21.485  0.00  0.00    +0.000 C 
ATOM     23  C   UNL     1       1.245   8.290  21.468  0.00  0.00    +0.000 C 
ATOM     24  C   UNL     1      -0.243   8.536  21.296  0.00  0.00    +0.000 C 
ATOM     25  C   UNL     1      -0.265   9.775  20.445  0.00  0.00    +0.000 C 
ATOM     26  O   UNL     1      -1.184  10.053  19.696  0.00  0.00    +0.000 OA
BRANCH  21  31
ATOM     27  C   UNL     1       2.264  15.527  18.337  0.00  0.00    +0.000 C 
ATOM     28  C   UNL     1       1.947  14.188  18.933  0.00  0.00    +0.000 A 
ATOM     29  C   UNL     1       2.081  13.017  18.179  0.00  0.00    +0.000 A 
ATOM     30  C   UNL     1       1.765  11.782  18.740  0.00  0.00    +0.000 A 
ATOM     31  C   UNL     1       1.301  11.681  20.057  0.00  0.00    +0.000 A 
ATOM     32  C   UNL     1       1.164  12.857  20.798  0.00  0.00    +0.000 A 
ATOM     33  C   UNL     1       1.487  14.095  20.247  0.00  0.00    +0.000 A 
ENDBRANCH  21  31
ENDBRANCH   1  23
TORSDOF 5
ENDMDL
