MODEL 1
REMARK VINA RESULT:      -8.4      0.000      0.000
REMARK  Name = 
REMARK  7 active torsions:
REMARK  status: ('A' for Active; 'I' for Inactive)
REMARK    1  A    between atoms: C_1  and  C_2
REMARK    2  A    between atoms: C_4  and  C_5
REMARK    3  A    between atoms: C_5  and  N_6
REMARK    4  A    between atoms: N_6  and  C_7
REMARK    5  A    between atoms: N_10  and  C_11
REMARK    6  A    between atoms: C_11  and  C_12
REMARK    7  A    between atoms: C_11  and  C_17
REMARK                            x       y       z     vdW  Elec       q    Type
REMARK                         _______ _______ _______ _____ _____    ______ ____
ROOT
ATOM      1  N   UNL     1       6.032   5.442  17.463  0.00  0.00    +0.000 N 
ATOM      2  C   UNL     1       6.716   6.549  18.125  0.00  0.00    +0.000 C 
ATOM      3  C   UNL     1       4.652   5.286  17.400  0.00  0.00    +0.000 C 
ATOM      4  O   UNL     1       4.116   4.363  16.787  0.00  0.00    +0.000 OA
ATOM      5  N   UNL     1       3.942   6.211  18.108  0.00  0.00    +0.000 N 
ATOM      6  H   UNL     1       4.454   6.705  18.812  0.00  0.00    +0.000 HD
ENDROOT
BRANCH   1   7
ATOM      7  C   UNL     1       6.882   4.386  16.909  0.00  0.00    +0.000 C 
BRANCH   7  11
ATOM      8  C   UNL     1       6.895   4.140  11.803  0.00  0.00    +0.000 C 
ATOM      9  C   UNL     1       7.041   4.492  13.234  0.00  0.00    +0.000 A 
ATOM     10  C   UNL     1       6.481   3.847  14.360  0.00  0.00    +0.000 A 
ATOM     11  C   UNL     1       7.000   4.528  15.437  0.00  0.00    +0.000 A 
ATOM     12  O   UNL     1       7.777   5.549  14.982  0.00  0.00    +0.000 OA
ATOM     13  N   UNL     1       7.804   5.530  13.599  0.00  0.00    +0.000 NA
ENDBRANCH   7  11
ENDBRANCH   1   7
BRANCH   5  14
ATOM     14  C   UNL     1       2.481   6.218  18.266  0.00  0.00    +0.000 C 
BRANCH  14  15
ATOM     15  C   UNL     1       1.998   5.169  19.296  0.00  0.00    +0.000 C 
ATOM     16  C   UNL     1       3.028   4.770  20.367  0.00  0.00    +0.000 C 
ATOM     17  C   UNL     1       2.333   3.976  21.482  0.00  0.00    +0.000 C 
ATOM     18  C   UNL     1       1.523   2.787  20.961  0.00  0.00    +0.000 C 
ATOM     19  C   UNL     1       0.637   3.133  19.764  0.00  0.00    +0.000 C 
ATOM     20  C   UNL     1       1.410   3.885  18.689  0.00  0.00    +0.000 C 
ENDBRANCH  14  15
BRANCH  14  21
ATOM     21  C   UNL     1       2.088   7.653  18.576  0.00  0.00    +0.000 A 
ATOM     22  C   UNL     1       2.026   8.754  17.734  0.00  0.00    +0.000 A 
ATOM     23  C   UNL     1       1.442   9.895  18.355  0.00  0.00    +0.000 A 
ATOM     24  C   UNL     1       1.146   9.662  19.678  0.00  0.00    +0.000 A 
ATOM     25  S   UNL     1       1.545   8.070  20.155  0.00  0.00    +0.000 S 
ENDBRANCH  14  21
ENDBRANCH   5  14
TORSDOF 5
ENDMDL
MODEL 2
REMARK VINA RESULT:      -8.2      1.432      3.811
REMARK  Name = 
REMARK  7 active torsions:
REMARK  status: ('A' for Active; 'I' for Inactive)
REMARK    1  A    between atoms: C_1  and  C_2
REMARK    2  A    between atoms: C_4  and  C_5
REMARK    3  A    between atoms: C_5  and  N_6
REMARK    4  A    between atoms: N_6  and  C_7
REMARK    5  A    between atoms: N_10  and  C_11
REMARK    6  A    between atoms: C_11  and  C_12
REMARK    7  A    between atoms: C_11  and  C_17
REMARK                            x       y       z     vdW  Elec       q    Type
REMARK                         _______ _______ _______ _____ _____    ______ ____
ROOT
ATOM      1  N   UNL     1       5.322   5.847  17.142  0.00  0.00    +0.000 N 
ATOM      2  C   UNL     1       4.880   6.812  16.140  0.00  0.00    +0.000 C 
ATOM      3  C   UNL     1       4.636   5.553  18.315  0.00  0.00    +0.000 C 
ATOM      4  O   UNL     1       5.018   4.694  19.109  0.00  0.00    +0.000 OA
ATOM      5  N   UNL     1       3.530   6.321  18.537  0.00  0.00    +0.000 N 
ATOM      6  H   UNL     1       3.487   7.178  18.020  0.00  0.00    +0.000 HD
ENDROOT
BRANCH   1   7
ATOM      7  C   UNL     1       6.627   5.222  16.918  0.00  0.00    +0.000 C 
BRANCH   7  11
ATOM      8  C   UNL     1       6.814   3.600  12.074  0.00  0.00    +0.000 C 
ATOM      9  C   UNL     1       6.959   4.300  13.371  0.00  0.00    +0.000 A 
ATOM     10  C   UNL     1       6.247   4.081  14.573  0.00  0.00    +0.000 A 
ATOM     11  C   UNL     1       6.830   4.939  15.476  0.00  0.00    +0.000 A 
ATOM     12  O   UNL     1       7.791   5.665  14.841  0.00  0.00    +0.000 OA
ATOM     13  N   UNL     1       7.873   5.266  13.518  0.00  0.00    +0.000 NA
ENDBRANCH   7  11
ENDBRANCH   1   7
BRANCH   5  14
ATOM     14  C   UNL     1       2.683   6.261  19.735  0.00  0.00    +0.000 C 
BRANCH  14  15
ATOM     15  C   UNL     1       1.700   7.454  19.817  0.00  0.00    +0.000 C 
ATOM     16  C   UNL     1       1.976   8.608  18.837  0.00  0.00    +0.000 C 
ATOM     17  C   UNL     1       0.774   9.562  18.810  0.00  0.00    +0.000 C 
ATOM     18  C   UNL     1       0.359  10.047  20.200  0.00  0.00    +0.000 C 
ATOM     19  C   UNL     1       0.270   8.925  21.234  0.00  0.00    +0.000 C 
ATOM     20  C   UNL     1       1.515   8.048  21.222  0.00  0.00    +0.000 C 
ENDBRANCH  14  15
BRANCH  14  21
ATOM     21  C   UNL     1       2.030   4.889  19.733  0.00  0.00    +0.000 A 
ATOM     22  C   UNL     1       1.438   4.194  18.688  0.00  0.00    +0.000 A 
ATOM     23  C   UNL     1       1.093   2.856  19.038  0.00  0.00    +0.000 A 
ATOM     24  C   UNL     1       1.357   2.589  20.361  0.00  0.00    +0.000 A 
ATOM     25  S   UNL     1       2.041   3.933  21.164  0.00  0.00    +0.000 S 
ENDBRANCH  14  21
ENDBRANCH   5  14
TORSDOF 5
ENDMDL
MODEL 3
REMARK VINA RESULT:      -8.1      1.485      3.639
REMARK  Name = 
REMARK  7 active torsions:
REMARK  status: ('A' for Active; 'I' for Inactive)
REMARK    1  A    between atoms: C_1  and  C_2
REMARK    2  A    between atoms: C_4  and  C_5
REMARK    3  A    between atoms: C_5  and  N_6
REMARK    4  A    between atoms: N_6  and  C_7
REMARK    5  A    between atoms: N_10  and  C_11
REMARK    6  A    between atoms: C_11  and  C_12
REMARK    7  A    between atoms: C_11  and  C_17
REMARK                            x       y       z     vdW  Elec       q    Type
REMARK                         _______ _______ _______ _____ _____    ______ ____
ROOT
ATOM      1  N   UNL     1       5.488   5.789  16.948  0.00  0.00    +0.000 N 
ATOM      2  C   UNL     1       4.948   6.727  15.968  0.00  0.00    +0.000 C 
ATOM      3  C   UNL     1       4.900   5.496  18.172  0.00  0.00    +0.000 C 
ATOM      4  O   UNL     1       5.362   4.659  18.947  0.00  0.00    +0.000 OA
ATOM      5  N   UNL     1       3.794   6.240  18.466  0.00  0.00    +0.000 N 
ATOM      6  H   UNL     1       3.690   7.087  17.943  0.00  0.00    +0.000 HD
ENDROOT
BRANCH   1   7
ATOM      7  C   UNL     1       6.789   5.194  16.635  0.00  0.00    +0.000 C 
BRANCH   7  11
ATOM      8  C   UNL     1       6.620   3.313  11.885  0.00  0.00    +0.000 C 
ATOM      9  C   UNL     1       6.839   4.094  13.124  0.00  0.00    +0.000 A 
ATOM     10  C   UNL     1       6.266   3.897  14.401  0.00  0.00    +0.000 A 
ATOM     11  C   UNL     1       6.870   4.843  15.196  0.00  0.00    +0.000 A 
ATOM     12  O   UNL     1       7.709   5.594  14.431  0.00  0.00    +0.000 OA
ATOM     13  N   UNL     1       7.691   5.127  13.128  0.00  0.00    +0.000 NA
ENDBRANCH   7  11
ENDBRANCH   1   7
BRANCH   5  14
ATOM     14  C   UNL     1       3.040   6.177  19.725  0.00  0.00    +0.000 C 
BRANCH  14  15
ATOM     15  C   UNL     1       2.228   7.469  19.986  0.00  0.00    +0.000 C 
ATOM     16  C   UNL     1       1.054   7.325  20.971  0.00  0.00    +0.000 C 
ATOM     17  C   UNL     1       0.540   8.716  21.369  0.00  0.00    +0.000 C 
ATOM     18  C   UNL     1       0.206   9.602  20.168  0.00  0.00    +0.000 C 
ATOM     19  C   UNL     1       1.289   9.597  19.089  0.00  0.00    +0.000 C 
ATOM     20  C   UNL     1       1.716   8.182  18.725  0.00  0.00    +0.000 C 
ENDBRANCH  14  15
BRANCH  14  21
ATOM     21  C   UNL     1       2.218   4.900  19.673  0.00  0.00    +0.000 A 
ATOM     22  C   UNL     1       1.504   4.352  18.617  0.00  0.00    +0.000 A 
ATOM     23  C   UNL     1       1.005   3.049  18.903  0.00  0.00    +0.000 A 
ATOM     24  C   UNL     1       1.282   2.667  20.195  0.00  0.00    +0.000 A 
ATOM     25  S   UNL     1       2.160   3.862  21.044  0.00  0.00    +0.000 S 
ENDBRANCH  14  21
ENDBRANCH   5  14
TORSDOF 5
ENDMDL
MODEL 4
REMARK VINA RESULT:      -8.0      3.498      7.663
REMARK  Name = 
REMARK  7 active torsions:
REMARK  status: ('A' for Active; 'I' for Inactive)
REMARK    1  A    between atoms: C_1  and  C_2
REMARK    2  A    between atoms: C_4  and  C_5
REMARK    3  A    between atoms: C_5  and  N_6
REMARK    4  A    between atoms: N_6  and  C_7
REMARK    5  A    between atoms: N_10  and  C_11
REMARK    6  A    between atoms: C_11  and  C_12
REMARK    7  A    between atoms: C_11  and  C_17
REMARK                            x       y       z     vdW  Elec       q    Type
REMARK                         _______ _______ _______ _____ _____    ______ ____
ROOT
ATOM      1  N   UNL     1       1.405   9.130  19.434  0.00  0.00    +0.000 N 
ATOM      2  C   UNL     1       1.105   8.641  20.776  0.00  0.00    +0.000 C 
ATOM      3  C   UNL     1       2.010   8.379  18.433  0.00  0.00    +0.000 C 
ATOM      4  O   UNL     1       2.199   8.815  17.299  0.00  0.00    +0.000 OA
ATOM      5  N   UNL     1       2.417   7.136  18.822  0.00  0.00    +0.000 N 
ATOM      6  H   UNL     1       2.511   6.999  19.809  0.00  0.00    +0.000 HD
ENDROOT
BRANCH   1   7
ATOM      7  C   UNL     1       1.122  10.544  19.175  0.00  0.00    +0.000 C 
BRANCH   7  11
ATOM      8  C   UNL     1      -3.680  10.765  17.435  0.00  0.00    +0.000 C 
ATOM      9  C   UNL     1      -2.406  10.878  18.181  0.00  0.00    +0.000 A 
ATOM     10  C   UNL     1      -1.183  10.211  17.939  0.00  0.00    +0.000 A 
ATOM     11  C   UNL     1      -0.316  10.740  18.867  0.00  0.00    +0.000 A 
ATOM     12  O   UNL     1      -0.992  11.626  19.650  0.00  0.00    +0.000 OA
ATOM     13  N   UNL     1      -2.305  11.714  19.222  0.00  0.00    +0.000 NA
ENDBRANCH   7  11
ENDBRANCH   1   7
BRANCH   5  14
ATOM     14  C   UNL     1       3.148   6.181  17.978  0.00  0.00    +0.000 C 
BRANCH  14  15
ATOM     15  C   UNL     1       4.679   6.268  18.186  0.00  0.00    +0.000 C 
ATOM     16  C   UNL     1       5.502   6.577  16.924  0.00  0.00    +0.000 C 
ATOM     17  C   UNL     1       6.942   6.936  17.319  0.00  0.00    +0.000 C 
ATOM     18  C   UNL     1       7.598   5.887  18.218  0.00  0.00    +0.000 C 
ATOM     19  C   UNL     1       6.706   5.429  19.372  0.00  0.00    +0.000 C 
ATOM     20  C   UNL     1       5.310   5.057  18.890  0.00  0.00    +0.000 C 
ENDBRANCH  14  15
BRANCH  14  21
ATOM     21  C   UNL     1       2.539   4.814  18.245  0.00  0.00    +0.000 A 
ATOM     22  C   UNL     1       2.529   3.680  17.446  0.00  0.00    +0.000 A 
ATOM     23  C   UNL     1       2.012   2.534  18.116  0.00  0.00    +0.000 A 
ATOM     24  C   UNL     1       1.567   2.839  19.381  0.00  0.00    +0.000 A 
ATOM     25  S   UNL     1       1.799   4.488  19.764  0.00  0.00    +0.000 S 
ENDBRANCH  14  21
ENDBRANCH   5  14
TORSDOF 5
ENDMDL
MODEL 5
REMARK VINA RESULT:      -8.0      2.265      4.932
REMARK  Name = 
REMARK  7 active torsions:
REMARK  status: ('A' for Active; 'I' for Inactive)
REMARK    1  A    between atoms: C_1  and  C_2
REMARK    2  A    between atoms: C_4  and  C_5
REMARK    3  A    between atoms: C_5  and  N_6
REMARK    4  A    between atoms: N_6  and  C_7
REMARK    5  A    between atoms: N_10  and  C_11
REMARK    6  A    between atoms: C_11  and  C_12
REMARK    7  A    between atoms: C_11  and  C_17
REMARK                            x       y       z     vdW  Elec       q    Type
REMARK                         _______ _______ _______ _____ _____    ______ ____
ROOT
ATOM      1  N   UNL     1       5.779   5.523  17.402  0.00  0.00    +0.000 N 
ATOM      2  C   UNL     1       5.149   5.492  16.086  0.00  0.00    +0.000 C 
ATOM      3  C   UNL     1       5.093   5.610  18.608  0.00  0.00    +0.000 C 
ATOM      4  O   UNL     1       5.662   5.581  19.699  0.00  0.00    +0.000 OA
ATOM      5  N   UNL     1       3.744   5.774  18.485  0.00  0.00    +0.000 N 
ATOM      6  H   UNL     1       3.426   6.101  17.593  0.00  0.00    +0.000 HD
ENDROOT
BRANCH   1   7
ATOM      7  C   UNL     1       7.243   5.552  17.426  0.00  0.00    +0.000 C 
BRANCH   7  11
ATOM      8  C   UNL     1       9.129   9.941  19.247  0.00  0.00    +0.000 C 
ATOM      9  C   UNL     1       8.531   8.843  18.453  0.00  0.00    +0.000 A 
ATOM     10  C   UNL     1       8.454   7.468  18.772  0.00  0.00    +0.000 A 
ATOM     11  C   UNL     1       7.734   6.917  17.738  0.00  0.00    +0.000 A 
ATOM     12  O   UNL     1       7.445   7.891  16.831  0.00  0.00    +0.000 OA
ATOM     13  N   UNL     1       7.946   9.101  17.277  0.00  0.00    +0.000 NA
ENDBRANCH   7  11
ENDBRANCH   1   7
BRANCH   5  14
ATOM     14  C   UNL     1       2.808   5.970  19.601  0.00  0.00    +0.000 C 
BRANCH  14  15
ATOM     15  C   UNL     1       1.933   7.233  19.416  0.00  0.00    +0.000 C 
ATOM     16  C   UNL     1       2.390   8.199  18.309  0.00  0.00    +0.000 C 
ATOM     17  C   UNL     1       1.284   9.227  18.030  0.00  0.00    +0.000 C 
ATOM     18  C   UNL     1       0.801   9.948  19.289  0.00  0.00    +0.000 C 
ATOM     19  C   UNL     1       0.529   9.008  20.463  0.00  0.00    +0.000 C 
ATOM     20  C   UNL     1       1.687   8.047  20.696  0.00  0.00    +0.000 C 
ENDBRANCH  14  15
BRANCH  14  21
ATOM     21  C   UNL     1       2.038   4.669  19.751  0.00  0.00    +0.000 A 
ATOM     22  C   UNL     1       1.326   3.949  18.801  0.00  0.00    +0.000 A 
ATOM     23  C   UNL     1       0.886   2.683  19.282  0.00  0.00    +0.000 A 
ATOM     24  C   UNL     1       1.202   2.500  20.608  0.00  0.00    +0.000 A 
ATOM     25  S   UNL     1       2.047   3.836  21.256  0.00  0.00    +0.000 S 
ENDBRANCH  14  21
ENDBRANCH   5  14
TORSDOF 5
ENDMDL
MODEL 6
REMARK VINA RESULT:      -7.8      1.590      3.693
REMARK  Name = 
REMARK  7 active torsions:
REMARK  status: ('A' for Active; 'I' for Inactive)
REMARK    1  A    between atoms: C_1  and  C_2
REMARK    2  A    between atoms: C_4  and  C_5
REMARK    3  A    between atoms: C_5  and  N_6
REMARK    4  A    between atoms: N_6  and  C_7
REMARK    5  A    between atoms: N_10  and  C_11
REMARK    6  A    between atoms: C_11  and  C_12
REMARK    7  A    between atoms: C_11  and  C_17
REMARK                            x       y       z     vdW  Elec       q    Type
REMARK                         _______ _______ _______ _____ _____    ______ ____
ROOT
ATOM      1  N   UNL     1       5.583   5.819  16.425  0.00  0.00    +0.000 N 
ATOM      2  C   UNL     1       4.947   6.776  15.524  0.00  0.00    +0.000 C 
ATOM      3  C   UNL     1       5.093   5.459  17.674  0.00  0.00    +0.000 C 
ATOM      4  O   UNL     1       5.635   4.609  18.380  0.00  0.00    +0.000 OA
ATOM      5  N   UNL     1       3.990   6.155  18.075  0.00  0.00    +0.000 N 
ATOM      6  H   UNL     1       3.823   7.018  17.595  0.00  0.00    +0.000 HD
ENDROOT
BRANCH   1   7
ATOM      7  C   UNL     1       6.876   5.278  15.997  0.00  0.00    +0.000 C 
BRANCH   7  11
ATOM      8  C   UNL     1       6.088   2.698  11.655  0.00  0.00    +0.000 C 
ATOM      9  C   UNL     1       6.478   3.649  12.722  0.00  0.00    +0.000 A 
ATOM     10  C   UNL     1       6.050   3.683  14.069  0.00  0.00    +0.000 A 
ATOM     11  C   UNL     1       6.777   4.705  14.632  0.00  0.00    +0.000 A 
ATOM     12  O   UNL     1       7.550   5.281  13.671  0.00  0.00    +0.000 OA
ATOM     13  N   UNL     1       7.363   4.621  12.469  0.00  0.00    +0.000 NA
ENDBRANCH   7  11
ENDBRANCH   1   7
BRANCH   5  14
ATOM     14  C   UNL     1       3.330   6.019  19.381  0.00  0.00    +0.000 C 
BRANCH  14  15
ATOM     15  C   UNL     1       2.495   7.270  19.748  0.00  0.00    +0.000 C 
ATOM     16  C   UNL     1       1.368   7.037  20.769  0.00  0.00    +0.000 C 
ATOM     17  C   UNL     1       0.833   8.388  21.266  0.00  0.00    +0.000 C 
ATOM     18  C   UNL     1       0.426   9.329  20.132  0.00  0.00    +0.000 C 
ATOM     19  C   UNL     1       1.462   9.417  19.012  0.00  0.00    +0.000 C 
ATOM     20  C   UNL     1       1.912   8.037  18.551  0.00  0.00    +0.000 C 
ENDBRANCH  14  15
BRANCH  14  21
ATOM     21  C   UNL     1       2.550   4.716  19.337  0.00  0.00    +0.000 A 
ATOM     22  C   UNL     1       2.381   3.753  20.323  0.00  0.00    +0.000 A 
ATOM     23  C   UNL     1       1.433   2.753  19.964  0.00  0.00    +0.000 A 
ATOM     24  C   UNL     1       0.961   2.931  18.684  0.00  0.00    +0.000 A 
ATOM     25  S   UNL     1       1.637   4.310  17.936  0.00  0.00    +0.000 S 
ENDBRANCH  14  21
ENDBRANCH   5  14
TORSDOF 5
ENDMDL
MODEL 7
REMARK VINA RESULT:      -7.8      3.355      7.422
REMARK  Name = 
REMARK  7 active torsions:
REMARK  status: ('A' for Active; 'I' for Inactive)
REMARK    1  A    between atoms: C_1  and  C_2
REMARK    2  A    between atoms: C_4  and  C_5
REMARK    3  A    between atoms: C_5  and  N_6
REMARK    4  A    between atoms: N_6  and  C_7
REMARK    5  A    between atoms: N_10  and  C_11
REMARK    6  A    between atoms: C_11  and  C_12
REMARK    7  A    between atoms: C_11  and  C_17
REMARK                            x       y       z     vdW  Elec       q    Type
REMARK                         _______ _______ _______ _____ _____    ______ ____
ROOT
ATOM      1  N   UNL     1       1.852   8.508  19.196  0.00  0.00    +0.000 N 
ATOM      2  C   UNL     1       1.533   7.923  20.495  0.00  0.00    +0.000 C 
ATOM      3  C   UNL     1       2.492   7.839  18.160  0.00  0.00    +0.000 C 
ATOM      4  O   UNL     1       2.697   8.355  17.062  0.00  0.00    +0.000 OA
ATOM      5  N   UNL     1       2.916   6.579  18.472  0.00  0.00    +0.000 N 
ATOM      6  H   UNL     1       2.992   6.377  19.450  0.00  0.00    +0.000 HD
ENDROOT
BRANCH   1   7
ATOM      7  C   UNL     1       1.545   9.930  19.027  0.00  0.00    +0.000 C 
BRANCH   7  11
ATOM      8  C   UNL     1      -3.206  10.193  17.159  0.00  0.00    +0.000 C 
ATOM      9  C   UNL     1      -1.958  10.269  17.953  0.00  0.00    +0.000 A 
ATOM     10  C   UNL     1      -0.712   9.654  17.694  0.00  0.00    +0.000 A 
ATOM     11  C   UNL     1       0.113  10.120  18.692  0.00  0.00    +0.000 A 
ATOM     12  O   UNL     1      -0.609  10.918  19.526  0.00  0.00    +0.000 OA
ATOM     13  N   UNL     1      -1.910  11.013  19.065  0.00  0.00    +0.000 NA
ENDBRANCH   7  11
ENDBRANCH   1   7
BRANCH   5  14
ATOM     14  C   UNL     1       3.684   5.698  17.582  0.00  0.00    +0.000 C 
BRANCH  14  15
ATOM     15  C   UNL     1       5.208   5.800  17.830  0.00  0.00    +0.000 C 
ATOM     16  C   UNL     1       5.652   5.648  19.295  0.00  0.00    +0.000 C 
ATOM     17  C   UNL     1       7.175   5.462  19.358  0.00  0.00    +0.000 C 
ATOM     18  C   UNL     1       7.946   6.551  18.611  0.00  0.00    +0.000 C 
ATOM     19  C   UNL     1       7.388   6.846  17.220  0.00  0.00    +0.000 C 
ATOM     20  C   UNL     1       5.879   7.055  17.250  0.00  0.00    +0.000 C 
ENDBRANCH  14  15
BRANCH  14  21
ATOM     21  C   UNL     1       3.097   4.306  17.742  0.00  0.00    +0.000 A 
ATOM     22  C   UNL     1       3.677   3.069  17.494  0.00  0.00    +0.000 A 
ATOM     23  C   UNL     1       2.870   1.981  17.933  0.00  0.00    +0.000 A 
ATOM     24  C   UNL     1       1.662   2.409  18.433  0.00  0.00    +0.000 A 
ATOM     25  S   UNL     1       1.518   4.110  18.396  0.00  0.00    +0.000 S 
ENDBRANCH  14  21
ENDBRANCH   5  14
TORSDOF 5
ENDMDL
MODEL 8
REMARK VINA RESULT:      -7.8      3.397      7.892
REMARK  Name = 
REMARK  7 active torsions:
REMARK  status: ('A' for Active; 'I' for Inactive)
REMARK    1  A    between atoms: C_1  and  C_2
REMARK    2  A    between atoms: C_4  and  C_5
REMARK    3  A    between atoms: C_5  and  N_6
REMARK    4  A    between atoms: N_6  and  C_7
REMARK    5  A    between atoms: N_10  and  C_11
REMARK    6  A    between atoms: C_11  and  C_12
REMARK    7  A    between atoms: C_11  and  C_17
REMARK                            x       y       z     vdW  Elec       q    Type
REMARK                         _______ _______ _______ _____ _____    ______ ____
ROOT
ATOM      1  N   UNL     1       1.372   9.404  19.324  0.00  0.00    +0.000 N 
ATOM      2  C   UNL     1       0.987   9.013  20.677  0.00  0.00    +0.000 C 
ATOM      3  C   UNL     1       1.935   8.552  18.382  0.00  0.00    +0.000 C 
ATOM      4  O   UNL     1       2.197   8.911  17.235  0.00  0.00    +0.000 OA
ATOM      5  N   UNL     1       2.216   7.298  18.844  0.00  0.00    +0.000 N 
ATOM      6  H   UNL     1       2.267   7.204  19.839  0.00  0.00    +0.000 HD
ENDROOT
BRANCH   1   7
ATOM      7  C   UNL     1       1.225  10.822  18.987  0.00  0.00    +0.000 C 
BRANCH   7  11
ATOM      8  C   UNL     1      -3.438  12.637  20.030  0.00  0.00    +0.000 C 
ATOM      9  C   UNL     1      -2.232  11.987  19.468  0.00  0.00    +0.000 A 
ATOM     10  C   UNL     1      -0.889  12.110  19.892  0.00  0.00    +0.000 A 
ATOM     11  C   UNL     1      -0.195  11.238  19.085  0.00  0.00    +0.000 A 
ATOM     12  O   UNL     1      -1.060  10.672  18.199  0.00  0.00    +0.000 OA
ATOM     13  N   UNL     1      -2.340  11.142  18.436  0.00  0.00    +0.000 NA
ENDBRANCH   7  11
ENDBRANCH   1   7
BRANCH   5  14
ATOM     14  C   UNL     1       2.882   6.240  18.072  0.00  0.00    +0.000 C 
BRANCH  14  15
ATOM     15  C   UNL     1       4.422   6.292  18.217  0.00  0.00    +0.000 C 
ATOM     16  C   UNL     1       5.191   6.714  16.953  0.00  0.00    +0.000 C 
ATOM     17  C   UNL     1       6.652   7.018  17.314  0.00  0.00    +0.000 C 
ATOM     18  C   UNL     1       7.334   5.881  18.076  0.00  0.00    +0.000 C 
ATOM     19  C   UNL     1       6.488   5.322  19.220  0.00  0.00    +0.000 C 
ATOM     20  C   UNL     1       5.067   5.012  18.771  0.00  0.00    +0.000 C 
ENDBRANCH  14  15
BRANCH  14  21
ATOM     21  C   UNL     1       2.240   4.929  18.494  0.00  0.00    +0.000 A 
ATOM     22  C   UNL     1       1.972   3.795  17.741  0.00  0.00    +0.000 A 
ATOM     23  C   UNL     1       1.522   2.699  18.532  0.00  0.00    +0.000 A 
ATOM     24  C   UNL     1       1.382   3.046  19.855  0.00  0.00    +0.000 A 
ATOM     25  S   UNL     1       1.817   4.673  20.142  0.00  0.00    +0.000 S 
ENDBRANCH  14  21
ENDBRANCH   5  14
TORSDOF 5
ENDMDL
MODEL 9
REMARK VINA RESULT:      -7.7      3.616      7.086
REMARK  Name = 
REMARK  7 active torsions:
REMARK  status: ('A' for Active; 'I' for Inactive)
REMARK    1  A    between atoms: C_1  and  C_2
REMARK    2  A    between atoms: C_4  and  C_5
REMARK    3  A    between atoms: C_5  and  N_6
REMARK    4  A    between atoms: N_6  and  C_7
REMARK    5  A    between atoms: N_10  and  C_11
REMARK    6  A    between atoms: C_11  and  C_12
REMARK    7  A    between atoms: C_11  and  C_17
REMARK                            x       y       z     vdW  Elec       q    Type
REMARK                         _______ _______ _______ _____ _____    ______ ____
ROOT
ATOM      1  N   UNL     1       1.247   9.223  19.194  0.00  0.00    +0.000 N 
ATOM      2  C   UNL     1       1.576   9.688  17.850  0.00  0.00    +0.000 C 
ATOM      3  C   UNL     1       1.805   8.108  19.807  0.00  0.00    +0.000 C 
ATOM      4  O   UNL     1       1.536   7.780  20.962  0.00  0.00    +0.000 OA
ATOM      5  N   UNL     1       2.640   7.379  19.011  0.00  0.00    +0.000 N 
ATOM      6  H   UNL     1       2.545   7.533  18.026  0.00  0.00    +0.000 HD
ENDROOT
BRANCH   1   7
ATOM      7  C   UNL     1       0.184   9.949  19.895  0.00  0.00    +0.000 C 
BRANCH   7  11
ATOM      8  C   UNL     1      -3.379  11.023  16.390  0.00  0.00    +0.000 C 
ATOM      9  C   UNL     1      -2.326  11.032  17.432  0.00  0.00    +0.000 A 
ATOM     10  C   UNL     1      -1.801   9.941  18.161  0.00  0.00    +0.000 A 
ATOM     11  C   UNL     1      -0.802  10.492  18.929  0.00  0.00    +0.000 A 
ATOM     12  O   UNL     1      -0.769  11.836  18.714  0.00  0.00    +0.000 OA
ATOM     13  N   UNL     1      -1.726  12.178  17.775  0.00  0.00    +0.000 NA
ENDBRANCH   7  11
ENDBRANCH   1   7
BRANCH   5  14
ATOM     14  C   UNL     1       3.292   6.119  19.394  0.00  0.00    +0.000 C 
BRANCH  14  15
ATOM     15  C   UNL     1       2.289   4.943  19.475  0.00  0.00    +0.000 C 
ATOM     16  C   UNL     1       2.351   4.108  20.766  0.00  0.00    +0.000 C 
ATOM     17  C   UNL     1       1.123   3.190  20.849  0.00  0.00    +0.000 C 
ATOM     18  C   UNL     1       0.925   2.336  19.595  0.00  0.00    +0.000 C 
ATOM     19  C   UNL     1       1.055   3.127  18.294  0.00  0.00    +0.000 C 
ATOM     20  C   UNL     1       2.315   3.982  18.277  0.00  0.00    +0.000 C 
ENDBRANCH  14  15
BRANCH  14  21
ATOM     21  C   UNL     1       4.444   5.917  18.424  0.00  0.00    +0.000 A 
ATOM     22  C   UNL     1       4.612   6.409  17.137  0.00  0.00    +0.000 A 
ATOM     23  C   UNL     1       5.909   6.146  16.609  0.00  0.00    +0.000 A 
ATOM     24  C   UNL     1       6.669   5.392  17.472  0.00  0.00    +0.000 A 
ATOM     25  S   UNL     1       5.833   5.030  18.917  0.00  0.00    +0.000 S 
ENDBRANCH  14  21
ENDBRANCH   5  14
TORSDOF 5
ENDMDL
