MODEL 1
REMARK VINA RESULT:      -7.4      0.000      0.000
REMARK  Name = 
REMARK  7 active torsions:
REMARK  status: ('A' for Active; 'I' for Inactive)
REMARK    1  A    between atoms: C_1  and  C_2
REMARK    2  A    between atoms: C_2  and  N_3
REMARK    3  A    between atoms: N_3  and  C_4
REMARK    4  A    between atoms: N_3  and  S_12
REMARK    5  A    between atoms: C_4  and  C_5
REMARK    6  A    between atoms: C_5  and  C_6
REMARK    7  A    between atoms: S_12  and  C_15
REMARK                            x       y       z     vdW  Elec       q    Type
REMARK                         _______ _______ _______ _____ _____    ______ ____
ROOT
ATOM      1  S   UNL     1       5.515   5.245  17.890  0.00  0.00    +0.000 S 
ATOM      2  O   UNL     1       5.856   4.465  19.062  0.00  0.00    +0.000 OA
ATOM      3  O   UNL     1       6.502   6.079  17.236  0.00  0.00    +0.000 OA
ENDROOT
BRANCH   1   4
ATOM      4  C   UNL     1       4.151   6.293  18.361  0.00  0.00    +0.000 A 
ATOM      5  C   UNL     1       3.457   6.038  19.562  0.00  0.00    +0.000 A 
ATOM      6  C   UNL     1       2.379   6.850  19.929  0.00  0.00    +0.000 A 
ATOM      7  C   UNL     1       2.044   7.896  19.098  0.00  0.00    +0.000 A 
ATOM      8  C   UNL     1       2.739   8.154  17.935  0.00  0.00    +0.000 A 
ATOM      9  C   UNL     1       3.802   7.369  17.536  0.00  0.00    +0.000 A 
ATOM     10  O   UNL     1       2.260   9.238  17.271  0.00  0.00    +0.000 OA
ATOM     11  C   UNL     1       1.166   9.623  18.130  0.00  0.00    +0.000 C 
ATOM     12  O   UNL     1       1.028   8.781  19.292  0.00  0.00    +0.000 OA
ENDBRANCH   1   4
BRANCH   1  13
ATOM     13  N   UNL     1       4.894   4.172  16.671  0.00  0.00    +0.000 NA
BRANCH  13  15
ATOM     14  C   UNL     1       5.601   4.271  14.234  0.00  0.00    +0.000 C 
ATOM     15  C   UNL     1       5.938   3.809  15.645  0.00  0.00    +0.000 C 
ENDBRANCH  13  15
BRANCH  13  16
ATOM     16  C   UNL     1       4.280   2.912  17.281  0.00  0.00    +0.000 C 
BRANCH  16  17
ATOM     17  C   UNL     1       2.751   2.908  17.414  0.00  0.00    +0.000 C 
BRANCH  17  18
ATOM     18  C   UNL     1       2.355   2.881  18.876  0.00  0.00    +0.000 A 
ATOM     19  C   UNL     1       1.069   3.244  19.275  0.00  0.00    +0.000 A 
ATOM     20  C   UNL     1       0.759   3.253  20.634  0.00  0.00    +0.000 A 
ATOM     21  C   UNL     1       1.729   2.891  21.558  0.00  0.00    +0.000 A 
ATOM     22  C   UNL     1       2.975   2.526  21.079  0.00  0.00    +0.000 A 
ATOM     23  N   UNL     1       3.309   2.515  19.770  0.00  0.00    +0.000 NA
ENDBRANCH  17  18
ENDBRANCH  16  17
ENDBRANCH  13  16
ENDBRANCH   1  13
TORSDOF 6
ENDMDL
MODEL 2
REMARK VINA RESULT:      -7.3      2.519      5.364
REMARK  Name = 
REMARK  7 active torsions:
REMARK  status: ('A' for Active; 'I' for Inactive)
REMARK    1  A    between atoms: C_1  and  C_2
REMARK    2  A    between atoms: C_2  and  N_3
REMARK    3  A    between atoms: N_3  and  C_4
REMARK    4  A    between atoms: N_3  and  S_12
REMARK    5  A    between atoms: C_4  and  C_5
REMARK    6  A    between atoms: C_5  and  C_6
REMARK    7  A    between atoms: S_12  and  C_15
REMARK                            x       y       z     vdW  Elec       q    Type
REMARK                         _______ _______ _______ _____ _____    ______ ____
ROOT
ATOM      1  S   UNL     1       3.928   2.706  18.968  0.00  0.00    +0.000 S 
ATOM      2  O   UNL     1       4.804   2.211  20.010  0.00  0.00    +0.000 OA
ATOM      3  O   UNL     1       3.450   1.833  17.918  0.00  0.00    +0.000 OA
ENDROOT
BRANCH   1   4
ATOM      4  C   UNL     1       4.784   4.064  18.192  0.00  0.00    +0.000 A 
ATOM      5  C   UNL     1       4.401   4.486  16.901  0.00  0.00    +0.000 A 
ATOM      6  C   UNL     1       5.078   5.543  16.284  0.00  0.00    +0.000 A 
ATOM      7  C   UNL     1       6.099   6.152  16.980  0.00  0.00    +0.000 A 
ATOM      8  C   UNL     1       6.456   5.750  18.250  0.00  0.00    +0.000 A 
ATOM      9  C   UNL     1       5.817   4.705  18.887  0.00  0.00    +0.000 A 
ATOM     10  O   UNL     1       7.471   6.491  18.765  0.00  0.00    +0.000 OA
ATOM     11  C   UNL     1       7.736   7.392  17.668  0.00  0.00    +0.000 C 
ATOM     12  O   UNL     1       6.865   7.186  16.538  0.00  0.00    +0.000 OA
ENDBRANCH   1   4
BRANCH   1  13
ATOM     13  N   UNL     1       2.516   3.397  19.712  0.00  0.00    +0.000 NA
BRANCH  13  15
ATOM     14  C   UNL     1       1.539   2.554  21.900  0.00  0.00    +0.000 C 
ATOM     15  C   UNL     1       2.607   3.399  21.217  0.00  0.00    +0.000 C 
ENDBRANCH  13  15
BRANCH  13  16
ATOM     16  C   UNL     1       2.227   4.804  19.191  0.00  0.00    +0.000 C 
BRANCH  16  17
ATOM     17  C   UNL     1       2.297   5.932  20.229  0.00  0.00    +0.000 C 
BRANCH  17  18
ATOM     18  C   UNL     1       2.034   7.268  19.567  0.00  0.00    +0.000 A 
ATOM     19  C   UNL     1       2.446   7.508  18.256  0.00  0.00    +0.000 A 
ATOM     20  C   UNL     1       2.229   8.768  17.699  0.00  0.00    +0.000 A 
ATOM     21  C   UNL     1       1.601   9.749  18.452  0.00  0.00    +0.000 A 
ATOM     22  C   UNL     1       1.207   9.425  19.738  0.00  0.00    +0.000 A 
ATOM     23  N   UNL     1       1.410   8.216  20.310  0.00  0.00    +0.000 NA
ENDBRANCH  17  18
ENDBRANCH  16  17
ENDBRANCH  13  16
ENDBRANCH   1  13
TORSDOF 6
ENDMDL
MODEL 3
REMARK VINA RESULT:      -7.1      2.592      5.790
REMARK  Name = 
REMARK  7 active torsions:
REMARK  status: ('A' for Active; 'I' for Inactive)
REMARK    1  A    between atoms: C_1  and  C_2
REMARK    2  A    between atoms: C_2  and  N_3
REMARK    3  A    between atoms: N_3  and  C_4
REMARK    4  A    between atoms: N_3  and  S_12
REMARK    5  A    between atoms: C_4  and  C_5
REMARK    6  A    between atoms: C_5  and  C_6
REMARK    7  A    between atoms: S_12  and  C_15
REMARK                            x       y       z     vdW  Elec       q    Type
REMARK                         _______ _______ _______ _____ _____    ______ ____
ROOT
ATOM      1  S   UNL     1       4.104   3.096  18.585  0.00  0.00    +0.000 S 
ATOM      2  O   UNL     1       4.724   3.155  19.893  0.00  0.00    +0.000 OA
ATOM      3  O   UNL     1       3.670   1.835  18.022  0.00  0.00    +0.000 OA
ENDROOT
BRANCH   1   4
ATOM      4  C   UNL     1       5.263   3.825  17.444  0.00  0.00    +0.000 A 
ATOM      5  C   UNL     1       6.342   4.590  17.938  0.00  0.00    +0.000 A 
ATOM      6  C   UNL     1       7.247   5.174  17.046  0.00  0.00    +0.000 A 
ATOM      7  C   UNL     1       7.057   4.960  15.698  0.00  0.00    +0.000 A 
ATOM      8  C   UNL     1       6.014   4.194  15.222  0.00  0.00    +0.000 A 
ATOM      9  C   UNL     1       5.096   3.611  16.071  0.00  0.00    +0.000 A 
ATOM     10  O   UNL     1       6.017   4.095  13.867  0.00  0.00    +0.000 OA
ATOM     11  C   UNL     1       7.165   4.906  13.536  0.00  0.00    +0.000 C 
ATOM     12  O   UNL     1       7.832   5.451  14.692  0.00  0.00    +0.000 OA
ENDBRANCH   1   4
BRANCH   1  13
ATOM     13  N   UNL     1       2.712   4.139  18.584  0.00  0.00    +0.000 NA
BRANCH  13  15
ATOM     14  C   UNL     1       1.051   4.202  20.503  0.00  0.00    +0.000 C 
ATOM     15  C   UNL     1       1.516   3.495  19.237  0.00  0.00    +0.000 C 
ENDBRANCH  13  15
BRANCH  13  16
ATOM     16  C   UNL     1       3.013   5.491  19.230  0.00  0.00    +0.000 C 
BRANCH  16  17
ATOM     17  C   UNL     1       3.112   6.685  18.272  0.00  0.00    +0.000 C 
BRANCH  17  18
ATOM     18  C   UNL     1       2.259   7.831  18.776  0.00  0.00    +0.000 A 
ATOM     19  C   UNL     1       1.843   7.880  20.107  0.00  0.00    +0.000 A 
ATOM     20  C   UNL     1       1.018   8.925  20.520  0.00  0.00    +0.000 A 
ATOM     21  C   UNL     1       0.638   9.897  19.605  0.00  0.00    +0.000 A 
ATOM     22  C   UNL     1       1.108   9.786  18.309  0.00  0.00    +0.000 A 
ATOM     23  N   UNL     1       1.902   8.781  17.875  0.00  0.00    +0.000 NA
ENDBRANCH  17  18
ENDBRANCH  16  17
ENDBRANCH  13  16
ENDBRANCH   1  13
TORSDOF 6
ENDMDL
MODEL 4
REMARK VINA RESULT:      -7.1      2.633      5.756
REMARK  Name = 
REMARK  7 active torsions:
REMARK  status: ('A' for Active; 'I' for Inactive)
REMARK    1  A    between atoms: C_1  and  C_2
REMARK    2  A    between atoms: C_2  and  N_3
REMARK    3  A    between atoms: N_3  and  C_4
REMARK    4  A    between atoms: N_3  and  S_12
REMARK    5  A    between atoms: C_4  and  C_5
REMARK    6  A    between atoms: C_5  and  C_6
REMARK    7  A    between atoms: S_12  and  C_15
REMARK                            x       y       z     vdW  Elec       q    Type
REMARK                         _______ _______ _______ _____ _____    ______ ____
ROOT
ATOM      1  S   UNL     1       3.761   3.276  18.828  0.00  0.00    +0.000 S 
ATOM      2  O   UNL     1       4.457   2.872  20.032  0.00  0.00    +0.000 OA
ATOM      3  O   UNL     1       2.933   2.341  18.096  0.00  0.00    +0.000 OA
ENDROOT
BRANCH   1   4
ATOM      4  C   UNL     1       5.006   3.886  17.707  0.00  0.00    +0.000 A 
ATOM      5  C   UNL     1       6.207   4.421  18.220  0.00  0.00    +0.000 A 
ATOM      6  C   UNL     1       7.182   4.911  17.345  0.00  0.00    +0.000 A 
ATOM      7  C   UNL     1       6.934   4.834  15.992  0.00  0.00    +0.000 A 
ATOM      8  C   UNL     1       5.769   4.290  15.494  0.00  0.00    +0.000 A 
ATOM      9  C   UNL     1       4.780   3.806  16.327  0.00  0.00    +0.000 A 
ATOM     10  O   UNL     1       5.730   4.294  14.137  0.00  0.00    +0.000 OA
ATOM     11  C   UNL     1       6.992   4.924  13.829  0.00  0.00    +0.000 C 
ATOM     12  O   UNL     1       7.762   5.263  15.000  0.00  0.00    +0.000 OA
ENDBRANCH   1   4
BRANCH   1  13
ATOM     13  N   UNL     1       2.748   4.639  19.203  0.00  0.00    +0.000 NA
BRANCH  13  15
ATOM     14  C   UNL     1       0.913   3.445  20.490  0.00  0.00    +0.000 C 
ATOM     15  C   UNL     1       2.035   4.474  20.520  0.00  0.00    +0.000 C 
ENDBRANCH  13  15
BRANCH  13  16
ATOM     16  C   UNL     1       3.528   5.953  19.176  0.00  0.00    +0.000 C 
BRANCH  16  17
ATOM     17  C   UNL     1       3.127   6.949  18.080  0.00  0.00    +0.000 C 
BRANCH  17  18
ATOM     18  C   UNL     1       2.185   7.993  18.643  0.00  0.00    +0.000 A 
ATOM     19  C   UNL     1       1.639   8.980  17.823  0.00  0.00    +0.000 A 
ATOM     20  C   UNL     1       0.815   9.952  18.390  0.00  0.00    +0.000 A 
ATOM     21  C   UNL     1       0.546   9.910  19.750  0.00  0.00    +0.000 A 
ATOM     22  C   UNL     1       1.111   8.886  20.491  0.00  0.00    +0.000 A 
ATOM     23  N   UNL     1       1.920   7.935  19.973  0.00  0.00    +0.000 NA
ENDBRANCH  17  18
ENDBRANCH  16  17
ENDBRANCH  13  16
ENDBRANCH   1  13
TORSDOF 6
ENDMDL
MODEL 5
REMARK VINA RESULT:      -7.0      2.521      5.306
REMARK  Name = 
REMARK  7 active torsions:
REMARK  status: ('A' for Active; 'I' for Inactive)
REMARK    1  A    between atoms: C_1  and  C_2
REMARK    2  A    between atoms: C_2  and  N_3
REMARK    3  A    between atoms: N_3  and  C_4
REMARK    4  A    between atoms: N_3  and  S_12
REMARK    5  A    between atoms: C_4  and  C_5
REMARK    6  A    between atoms: C_5  and  C_6
REMARK    7  A    between atoms: S_12  and  C_15
REMARK                            x       y       z     vdW  Elec       q    Type
REMARK                         _______ _______ _______ _____ _____    ______ ____
ROOT
ATOM      1  S   UNL     1       3.895   2.706  18.950  0.00  0.00    +0.000 S 
ATOM      2  O   UNL     1       4.762   2.226  20.006  0.00  0.00    +0.000 OA
ATOM      3  O   UNL     1       3.449   1.825  17.893  0.00  0.00    +0.000 OA
ENDROOT
BRANCH   1   4
ATOM      4  C   UNL     1       4.742   4.078  18.188  0.00  0.00    +0.000 A 
ATOM      5  C   UNL     1       4.334   4.530  16.915  0.00  0.00    +0.000 A 
ATOM      6  C   UNL     1       5.003   5.598  16.308  0.00  0.00    +0.000 A 
ATOM      7  C   UNL     1       6.039   6.188  16.997  0.00  0.00    +0.000 A 
ATOM      8  C   UNL     1       6.420   5.757  18.250  0.00  0.00    +0.000 A 
ATOM      9  C   UNL     1       5.791   4.700  18.876  0.00  0.00    +0.000 A 
ATOM     10  O   UNL     1       7.449   6.482  18.760  0.00  0.00    +0.000 OA
ATOM     11  C   UNL     1       7.695   7.406  17.679  0.00  0.00    +0.000 C 
ATOM     12  O   UNL     1       6.801   7.229  16.562  0.00  0.00    +0.000 OA
ENDBRANCH   1   4
BRANCH   1  13
ATOM     13  N   UNL     1       2.460   3.373  19.671  0.00  0.00    +0.000 NA
BRANCH  13  15
ATOM     14  C   UNL     1       1.401   2.496  21.806  0.00  0.00    +0.000 C 
ATOM     15  C   UNL     1       2.506   3.333  21.177  0.00  0.00    +0.000 C 
ENDBRANCH  13  15
BRANCH  13  16
ATOM     16  C   UNL     1       2.183   4.794  19.181  0.00  0.00    +0.000 C 
BRANCH  16  17
ATOM     17  C   UNL     1       2.540   5.922  20.158  0.00  0.00    +0.000 C 
BRANCH  17  18
ATOM     18  C   UNL     1       2.188   7.266  19.554  0.00  0.00    +0.000 A 
ATOM     19  C   UNL     1       1.445   8.201  20.275  0.00  0.00    +0.000 A 
ATOM     20  C   UNL     1       1.100   9.406  19.666  0.00  0.00    +0.000 A 
ATOM     21  C   UNL     1       1.510   9.655  18.364  0.00  0.00    +0.000 A 
ATOM     22  C   UNL     1       2.261   8.684  17.724  0.00  0.00    +0.000 A 
ATOM     23  N   UNL     1       2.604   7.503  18.284  0.00  0.00    +0.000 NA
ENDBRANCH  17  18
ENDBRANCH  16  17
ENDBRANCH  13  16
ENDBRANCH   1  13
TORSDOF 6
ENDMDL
MODEL 6
REMARK VINA RESULT:      -6.8      1.027      1.689
REMARK  Name = 
REMARK  7 active torsions:
REMARK  status: ('A' for Active; 'I' for Inactive)
REMARK    1  A    between atoms: C_1  and  C_2
REMARK    2  A    between atoms: C_2  and  N_3
REMARK    3  A    between atoms: N_3  and  C_4
REMARK    4  A    between atoms: N_3  and  S_12
REMARK    5  A    between atoms: C_4  and  C_5
REMARK    6  A    between atoms: C_5  and  C_6
REMARK    7  A    between atoms: S_12  and  C_15
REMARK                            x       y       z     vdW  Elec       q    Type
REMARK                         _______ _______ _______ _____ _____    ______ ____
ROOT
ATOM      1  S   UNL     1       4.906   5.925  18.063  0.00  0.00    +0.000 S 
ATOM      2  O   UNL     1       5.127   5.093  19.227  0.00  0.00    +0.000 OA
ATOM      3  O   UNL     1       5.972   6.731  17.509  0.00  0.00    +0.000 OA
ENDROOT
BRANCH   1   4
ATOM      4  C   UNL     1       3.560   7.020  18.475  0.00  0.00    +0.000 A 
ATOM      5  C   UNL     1       3.130   7.981  17.536  0.00  0.00    +0.000 A 
ATOM      6  C   UNL     1       2.083   8.851  17.860  0.00  0.00    +0.000 A 
ATOM      7  C   UNL     1       1.490   8.718  19.097  0.00  0.00    +0.000 A 
ATOM      8  C   UNL     1       1.900   7.762  20.002  0.00  0.00    +0.000 A 
ATOM      9  C   UNL     1       2.936   6.894  19.722  0.00  0.00    +0.000 A 
ATOM     10  O   UNL     1       1.176   7.788  21.151  0.00  0.00    +0.000 OA
ATOM     11  C   UNL     1       0.277   8.886  20.883  0.00  0.00    +0.000 C 
ATOM     12  O   UNL     1       0.467   9.474  19.580  0.00  0.00    +0.000 OA
ENDBRANCH   1   4
BRANCH   1  13
ATOM     13  N   UNL     1       4.325   4.922  16.767  0.00  0.00    +0.000 NA
BRANCH  13  15
ATOM     14  C   UNL     1       6.038   3.877  15.210  0.00  0.00    +0.000 C 
ATOM     15  C   UNL     1       5.149   5.075  15.513  0.00  0.00    +0.000 C 
ENDBRANCH  13  15
BRANCH  13  16
ATOM     16  C   UNL     1       4.243   3.452  17.177  0.00  0.00    +0.000 C 
BRANCH  16  17
ATOM     17  C   UNL     1       2.828   2.883  17.356  0.00  0.00    +0.000 C 
BRANCH  17  18
ATOM     18  C   UNL     1       2.388   3.023  18.799  0.00  0.00    +0.000 A 
ATOM     19  C   UNL     1       1.237   3.739  19.129  0.00  0.00    +0.000 A 
ATOM     20  C   UNL     1       0.894   3.885  20.472  0.00  0.00    +0.000 A 
ATOM     21  C   UNL     1       1.694   3.309  21.448  0.00  0.00    +0.000 A 
ATOM     22  C   UNL     1       2.808   2.599  21.037  0.00  0.00    +0.000 A 
ATOM     23  N   UNL     1       3.173   2.446  19.744  0.00  0.00    +0.000 NA
ENDBRANCH  17  18
ENDBRANCH  16  17
ENDBRANCH  13  16
ENDBRANCH   1  13
TORSDOF 6
ENDMDL
MODEL 7
REMARK VINA RESULT:      -6.8      2.616      5.663
REMARK  Name = 
REMARK  7 active torsions:
REMARK  status: ('A' for Active; 'I' for Inactive)
REMARK    1  A    between atoms: C_1  and  C_2
REMARK    2  A    between atoms: C_2  and  N_3
REMARK    3  A    between atoms: N_3  and  C_4
REMARK    4  A    between atoms: N_3  and  S_12
REMARK    5  A    between atoms: C_4  and  C_5
REMARK    6  A    between atoms: C_5  and  C_6
REMARK    7  A    between atoms: S_12  and  C_15
REMARK                            x       y       z     vdW  Elec       q    Type
REMARK                         _______ _______ _______ _____ _____    ______ ____
ROOT
ATOM      1  S   UNL     1       3.936   2.740  19.081  0.00  0.00    +0.000 S 
ATOM      2  O   UNL     1       4.693   2.500  20.292  0.00  0.00    +0.000 OA
ATOM      3  O   UNL     1       3.365   1.644  18.328  0.00  0.00    +0.000 OA
ENDROOT
BRANCH   1   4
ATOM      4  C   UNL     1       5.013   3.645  17.985  0.00  0.00    +0.000 A 
ATOM      5  C   UNL     1       5.891   4.615  18.512  0.00  0.00    +0.000 A 
ATOM      6  C   UNL     1       6.729   5.336  17.654  0.00  0.00    +0.000 A 
ATOM      7  C   UNL     1       6.676   5.050  16.307  0.00  0.00    +0.000 A 
ATOM      8  C   UNL     1       5.832   4.085  15.800  0.00  0.00    +0.000 A 
ATOM      9  C   UNL     1       4.984   3.362  16.614  0.00  0.00    +0.000 A 
ATOM     10  O   UNL     1       5.947   3.948  14.453  0.00  0.00    +0.000 OA
ATOM     11  C   UNL     1       6.942   4.953  14.160  0.00  0.00    +0.000 C 
ATOM     12  O   UNL     1       7.412   5.650  15.332  0.00  0.00    +0.000 OA
ENDBRANCH   1   4
BRANCH   1  13
ATOM     13  N   UNL     1       2.621   3.816  19.453  0.00  0.00    +0.000 NA
BRANCH  13  15
ATOM     14  C   UNL     1       1.543   2.672  21.448  0.00  0.00    +0.000 C 
ATOM     15  C   UNL     1       1.417   3.083  19.987  0.00  0.00    +0.000 C 
ENDBRANCH  13  15
BRANCH  13  16
ATOM     16  C   UNL     1       3.047   4.922  20.419  0.00  0.00    +0.000 C 
BRANCH  16  17
ATOM     17  C   UNL     1       1.988   5.992  20.723  0.00  0.00    +0.000 C 
BRANCH  17  18
ATOM     18  C   UNL     1       2.053   7.098  19.690  0.00  0.00    +0.000 A 
ATOM     19  C   UNL     1       2.812   6.948  18.529  0.00  0.00    +0.000 A 
ATOM     20  C   UNL     1       2.885   8.008  17.627  0.00  0.00    +0.000 A 
ATOM     21  C   UNL     1       2.196   9.182  17.895  0.00  0.00    +0.000 A 
ATOM     22  C   UNL     1       1.450   9.243  19.060  0.00  0.00    +0.000 A 
ATOM     23  N   UNL     1       1.366   8.237  19.958  0.00  0.00    +0.000 NA
ENDBRANCH  17  18
ENDBRANCH  16  17
ENDBRANCH  13  16
ENDBRANCH   1  13
TORSDOF 6
ENDMDL
MODEL 8
REMARK VINA RESULT:      -6.6      2.883      5.866
REMARK  Name = 
REMARK  7 active torsions:
REMARK  status: ('A' for Active; 'I' for Inactive)
REMARK    1  A    between atoms: C_1  and  C_2
REMARK    2  A    between atoms: C_2  and  N_3
REMARK    3  A    between atoms: N_3  and  C_4
REMARK    4  A    between atoms: N_3  and  S_12
REMARK    5  A    between atoms: C_4  and  C_5
REMARK    6  A    between atoms: C_5  and  C_6
REMARK    7  A    between atoms: S_12  and  C_15
REMARK                            x       y       z     vdW  Elec       q    Type
REMARK                         _______ _______ _______ _____ _____    ______ ____
ROOT
ATOM      1  S   UNL     1       6.832   5.142  18.837  0.00  0.00    +0.000 S 
ATOM      2  O   UNL     1       7.431   4.030  18.128  0.00  0.00    +0.000 OA
ATOM      3  O   UNL     1       7.306   5.532  20.148  0.00  0.00    +0.000 OA
ENDROOT
BRANCH   1   4
ATOM      4  C   UNL     1       5.094   4.770  18.980  0.00  0.00    +0.000 A 
ATOM      5  C   UNL     1       4.200   5.770  19.417  0.00  0.00    +0.000 A 
ATOM      6  C   UNL     1       2.837   5.480  19.542  0.00  0.00    +0.000 A 
ATOM      7  C   UNL     1       2.412   4.212  19.210  0.00  0.00    +0.000 A 
ATOM      8  C   UNL     1       3.287   3.245  18.763  0.00  0.00    +0.000 A 
ATOM      9  C   UNL     1       4.640   3.491  18.636  0.00  0.00    +0.000 A 
ATOM     10  O   UNL     1       2.665   2.072  18.474  0.00  0.00    +0.000 OA
ATOM     11  C   UNL     1       1.299   2.397  18.813  0.00  0.00    +0.000 C 
ATOM     12  O   UNL     1       1.132   3.753  19.273  0.00  0.00    +0.000 OA
ENDBRANCH   1   4
BRANCH   1  13
ATOM     13  N   UNL     1       6.937   6.560  17.836  0.00  0.00    +0.000 NA
BRANCH  13  15
ATOM     14  C   UNL     1       7.906   8.905  17.748  0.00  0.00    +0.000 C 
ATOM     15  C   UNL     1       8.051   7.480  18.264  0.00  0.00    +0.000 C 
ENDBRANCH  13  15
BRANCH  13  16
ATOM     16  C   UNL     1       7.075   6.203  16.356  0.00  0.00    +0.000 C 
BRANCH  16  17
ATOM     17  C   UNL     1       5.841   5.568  15.701  0.00  0.00    +0.000 C 
BRANCH  17  18
ATOM     18  C   UNL     1       6.225   4.915  14.390  0.00  0.00    +0.000 A 
ATOM     19  C   UNL     1       7.394   5.282  13.724  0.00  0.00    +0.000 A 
ATOM     20  C   UNL     1       7.687   4.691  12.495  0.00  0.00    +0.000 A 
ATOM     21  C   UNL     1       6.818   3.747  11.967  0.00  0.00    +0.000 A 
ATOM     22  C   UNL     1       5.689   3.424  12.700  0.00  0.00    +0.000 A 
ATOM     23  N   UNL     1       5.373   3.984  13.889  0.00  0.00    +0.000 NA
ENDBRANCH  17  18
ENDBRANCH  16  17
ENDBRANCH  13  16
ENDBRANCH   1  13
TORSDOF 6
ENDMDL
MODEL 9
REMARK VINA RESULT:      -6.5      1.002      1.880
REMARK  Name = 
REMARK  7 active torsions:
REMARK  status: ('A' for Active; 'I' for Inactive)
REMARK    1  A    between atoms: C_1  and  C_2
REMARK    2  A    between atoms: C_2  and  N_3
REMARK    3  A    between atoms: N_3  and  C_4
REMARK    4  A    between atoms: N_3  and  S_12
REMARK    5  A    between atoms: C_4  and  C_5
REMARK    6  A    between atoms: C_5  and  C_6
REMARK    7  A    between atoms: S_12  and  C_15
REMARK                            x       y       z     vdW  Elec       q    Type
REMARK                         _______ _______ _______ _____ _____    ______ ____
ROOT
ATOM      1  S   UNL     1       5.297   5.644  17.647  0.00  0.00    +0.000 S 
ATOM      2  O   UNL     1       5.687   4.818  18.770  0.00  0.00    +0.000 OA
ATOM      3  O   UNL     1       6.254   6.509  16.989  0.00  0.00    +0.000 OA
ENDROOT
BRANCH   1   4
ATOM      4  C   UNL     1       3.950   6.665  18.215  0.00  0.00    +0.000 A 
ATOM      5  C   UNL     1       3.503   7.740  17.418  0.00  0.00    +0.000 A 
ATOM      6  C   UNL     1       2.454   8.550  17.865  0.00  0.00    +0.000 A 
ATOM      7  C   UNL     1       1.877   8.250  19.080  0.00  0.00    +0.000 A 
ATOM      8  C   UNL     1       2.304   7.185  19.845  0.00  0.00    +0.000 A 
ATOM      9  C   UNL     1       3.341   6.370  19.441  0.00  0.00    +0.000 A 
ATOM     10  O   UNL     1       1.593   7.053  20.995  0.00  0.00    +0.000 OA
ATOM     11  C   UNL     1       0.684   8.170  20.885  0.00  0.00    +0.000 C 
ATOM     12  O   UNL     1       0.855   8.928  19.671  0.00  0.00    +0.000 OA
ENDBRANCH   1   4
BRANCH   1  13
ATOM     13  N   UNL     1       4.631   4.620  16.409  0.00  0.00    +0.000 NA
BRANCH  13  15
ATOM     14  C   UNL     1       6.169   3.929  14.510  0.00  0.00    +0.000 C 
ATOM     15  C   UNL     1       5.632   3.615  15.900  0.00  0.00    +0.000 C 
ENDBRANCH  13  15
BRANCH  13  16
ATOM     16  C   UNL     1       3.357   3.918  16.876  0.00  0.00    +0.000 C 
BRANCH  16  17
ATOM     17  C   UNL     1       3.558   2.678  17.758  0.00  0.00    +0.000 C 
BRANCH  17  18
ATOM     18  C   UNL     1       2.805   2.836  19.062  0.00  0.00    +0.000 A 
ATOM     19  C   UNL     1       3.420   2.550  20.281  0.00  0.00    +0.000 A 
ATOM     20  C   UNL     1       2.677   2.662  21.456  0.00  0.00    +0.000 A 
ATOM     21  C   UNL     1       1.351   3.065  21.390  0.00  0.00    +0.000 A 
ATOM     22  C   UNL     1       0.822   3.349  20.143  0.00  0.00    +0.000 A 
ATOM     23  N   UNL     1       1.513   3.242  18.986  0.00  0.00    +0.000 NA
ENDBRANCH  17  18
ENDBRANCH  16  17
ENDBRANCH  13  16
ENDBRANCH   1  13
TORSDOF 6
ENDMDL
