MODEL 1
REMARK VINA RESULT:      -7.4      0.000      0.000
REMARK  Name = 
REMARK  4 active torsions:
REMARK  status: ('A' for Active; 'I' for Inactive)
REMARK    1  A    between atoms: C_1  and  C_2
REMARK    2  A    between atoms: C_2  and  C_3
REMARK    3  A    between atoms: C_3  and  C_4
REMARK    4  A    between atoms: N_7  and  C_8
REMARK                            x       y       z     vdW  Elec       q    Type
REMARK                         _______ _______ _______ _____ _____    ______ ____
ROOT
ATOM      1  C   UNL     1       2.435   3.078  20.261  0.00  0.00    +0.000 C 
ATOM      2  C   UNL     1       2.862   2.672  21.677  0.00  0.00    +0.000 C 
ATOM      3  C   UNL     1       3.590   2.774  19.283  0.00  0.00    +0.000 C 
ATOM      4  O   UNL     1       4.005   1.641  19.074  0.00  0.00    +0.000 OA
ATOM      5  N   UNL     1       4.034   4.002  18.753  0.00  0.00    +0.000 N 
ATOM      6  C   UNL     1       3.278   5.068  19.289  0.00  0.00    +0.000 A 
ATOM      7  N   UNL     1       3.362   6.374  18.990  0.00  0.00    +0.000 NA
ATOM      8  C   UNL     1       2.481   7.197  19.607  0.00  0.00    +0.000 A 
ATOM      9  C   UNL     1       1.507   6.773  20.504  0.00  0.00    +0.000 A 
ATOM     10  C   UNL     1       1.423   5.418  20.795  0.00  0.00    +0.000 A 
ATOM     11  C   UNL     1       2.326   4.571  20.171  0.00  0.00    +0.000 A 
ENDROOT
BRANCH   5  12
ATOM     12  C   UNL     1       5.026   4.166  17.742  0.00  0.00    +0.000 A 
ATOM     13  C   UNL     1       4.699   4.010  16.384  0.00  0.00    +0.000 A 
ATOM     14  C   UNL     1       5.639   4.234  15.369  0.00  0.00    +0.000 A 
ATOM     15  C   UNL     1       6.939   4.604  15.689  0.00  0.00    +0.000 A 
ATOM     16  C   UNL     1       7.302   4.726  17.024  0.00  0.00    +0.000 A 
ATOM     17  C   UNL     1       6.358   4.504  18.034  0.00  0.00    +0.000 A 
ENDBRANCH   5  12
BRANCH   1  19
ATOM     18  C   UNL     1       0.674   2.662  18.412  0.00  0.00    +0.000 C 
ATOM     19  C   UNL     1       1.143   2.352  19.834  0.00  0.00    +0.000 C 
ENDBRANCH   1  19
TORSDOF 2
ENDMDL
MODEL 2
REMARK VINA RESULT:      -7.4      1.666      5.397
REMARK  Name = 
REMARK  4 active torsions:
REMARK  status: ('A' for Active; 'I' for Inactive)
REMARK    1  A    between atoms: C_1  and  C_2
REMARK    2  A    between atoms: C_2  and  C_3
REMARK    3  A    between atoms: C_3  and  C_4
REMARK    4  A    between atoms: N_7  and  C_8
REMARK                            x       y       z     vdW  Elec       q    Type
REMARK                         _______ _______ _______ _____ _____    ______ ____
ROOT
ATOM      1  C   UNL     1       5.361   4.732  16.319  0.00  0.00    +0.000 C 
ATOM      2  C   UNL     1       5.013   5.958  15.466  0.00  0.00    +0.000 C 
ATOM      3  C   UNL     1       4.083   4.237  17.030  0.00  0.00    +0.000 C 
ATOM      4  O   UNL     1       3.104   3.817  16.426  0.00  0.00    +0.000 OA
ATOM      5  N   UNL     1       4.281   4.392  18.416  0.00  0.00    +0.000 N 
ATOM      6  C   UNL     1       5.560   4.935  18.671  0.00  0.00    +0.000 A 
ATOM      7  N   UNL     1       6.135   5.176  19.860  0.00  0.00    +0.000 NA
ATOM      8  C   UNL     1       7.402   5.653  19.837  0.00  0.00    +0.000 A 
ATOM      9  C   UNL     1       8.130   5.890  18.677  0.00  0.00    +0.000 A 
ATOM     10  C   UNL     1       7.528   5.625  17.455  0.00  0.00    +0.000 A 
ATOM     11  C   UNL     1       6.229   5.142  17.471  0.00  0.00    +0.000 A 
ENDROOT
BRANCH   5  12
ATOM     12  C   UNL     1       3.382   3.973  19.441  0.00  0.00    +0.000 A 
ATOM     13  C   UNL     1       2.210   4.702  19.710  0.00  0.00    +0.000 A 
ATOM     14  C   UNL     1       1.277   4.273  20.663  0.00  0.00    +0.000 A 
ATOM     15  C   UNL     1       1.502   3.108  21.386  0.00  0.00    +0.000 A 
ATOM     16  C   UNL     1       2.669   2.388  21.170  0.00  0.00    +0.000 A 
ATOM     17  C   UNL     1       3.597   2.820  20.214  0.00  0.00    +0.000 A 
ENDBRANCH   5  12
BRANCH   1  19
ATOM     18  C   UNL     1       6.298   4.008  14.018  0.00  0.00    +0.000 C 
ATOM     19  C   UNL     1       5.987   3.612  15.462  0.00  0.00    +0.000 C 
ENDBRANCH   1  19
TORSDOF 2
ENDMDL
MODEL 3
REMARK VINA RESULT:      -7.4      0.065      1.100
REMARK  Name = 
REMARK  4 active torsions:
REMARK  status: ('A' for Active; 'I' for Inactive)
REMARK    1  A    between atoms: C_1  and  C_2
REMARK    2  A    between atoms: C_2  and  C_3
REMARK    3  A    between atoms: C_3  and  C_4
REMARK    4  A    between atoms: N_7  and  C_8
REMARK                            x       y       z     vdW  Elec       q    Type
REMARK                         _______ _______ _______ _____ _____    ______ ____
ROOT
ATOM      1  C   UNL     1       2.439   3.067  20.252  0.00  0.00    +0.000 C 
ATOM      2  C   UNL     1       2.877   2.649  21.661  0.00  0.00    +0.000 C 
ATOM      3  C   UNL     1       3.592   2.787  19.265  0.00  0.00    +0.000 C 
ATOM      4  O   UNL     1       4.019   1.662  19.040  0.00  0.00    +0.000 OA
ATOM      5  N   UNL     1       4.018   4.026  18.747  0.00  0.00    +0.000 N 
ATOM      6  C   UNL     1       3.253   5.077  19.300  0.00  0.00    +0.000 A 
ATOM      7  N   UNL     1       3.321   6.388  19.015  0.00  0.00    +0.000 NA
ATOM      8  C   UNL     1       2.434   7.193  19.647  0.00  0.00    +0.000 A 
ATOM      9  C   UNL     1       1.470   6.747  20.543  0.00  0.00    +0.000 A 
ATOM     10  C   UNL     1       1.403   5.389  20.819  0.00  0.00    +0.000 A 
ATOM     11  C   UNL     1       2.312   4.559  20.180  0.00  0.00    +0.000 A 
ENDROOT
BRANCH   5  12
ATOM     12  C   UNL     1       5.003   4.213  17.733  0.00  0.00    +0.000 A 
ATOM     13  C   UNL     1       6.334   4.517  18.073  0.00  0.00    +0.000 A 
ATOM     14  C   UNL     1       7.334   4.638  17.099  0.00  0.00    +0.000 A 
ATOM     15  C   UNL     1       7.024   4.474  15.755  0.00  0.00    +0.000 A 
ATOM     16  C   UNL     1       5.711   4.213  15.387  0.00  0.00    +0.000 A 
ATOM     17  C   UNL     1       4.716   4.091  16.364  0.00  0.00    +0.000 A 
ENDBRANCH   5  12
BRANCH   1  19
ATOM     18  C   UNL     1       0.642   2.692  18.428  0.00  0.00    +0.000 C 
ATOM     19  C   UNL     1       1.152   2.331  19.824  0.00  0.00    +0.000 C 
ENDBRANCH   1  19
TORSDOF 2
ENDMDL
MODEL 4
REMARK VINA RESULT:      -7.4      1.690      5.438
REMARK  Name = 
REMARK  4 active torsions:
REMARK  status: ('A' for Active; 'I' for Inactive)
REMARK    1  A    between atoms: C_1  and  C_2
REMARK    2  A    between atoms: C_2  and  C_3
REMARK    3  A    between atoms: C_3  and  C_4
REMARK    4  A    between atoms: N_7  and  C_8
REMARK                            x       y       z     vdW  Elec       q    Type
REMARK                         _______ _______ _______ _____ _____    ______ ____
ROOT
ATOM      1  C   UNL     1       5.371   4.728  16.309  0.00  0.00    +0.000 C 
ATOM      2  C   UNL     1       5.017   5.956  15.461  0.00  0.00    +0.000 C 
ATOM      3  C   UNL     1       4.094   4.220  17.011  0.00  0.00    +0.000 C 
ATOM      4  O   UNL     1       3.121   3.795  16.400  0.00  0.00    +0.000 OA
ATOM      5  N   UNL     1       4.284   4.368  18.399  0.00  0.00    +0.000 N 
ATOM      6  C   UNL     1       5.557   4.920  18.663  0.00  0.00    +0.000 A 
ATOM      7  N   UNL     1       6.124   5.159  19.856  0.00  0.00    +0.000 NA
ATOM      8  C   UNL     1       7.387   5.647  19.842  0.00  0.00    +0.000 A 
ATOM      9  C   UNL     1       8.119   5.897  18.686  0.00  0.00    +0.000 A 
ATOM     10  C   UNL     1       7.525   5.633  17.460  0.00  0.00    +0.000 A 
ATOM     11  C   UNL     1       6.230   5.140  17.467  0.00  0.00    +0.000 A 
ENDROOT
BRANCH   5  12
ATOM     12  C   UNL     1       3.383   3.936  19.417  0.00  0.00    +0.000 A 
ATOM     13  C   UNL     1       3.668   2.795  20.188  0.00  0.00    +0.000 A 
ATOM     14  C   UNL     1       2.834   2.390  21.240  0.00  0.00    +0.000 A 
ATOM     15  C   UNL     1       1.682   3.108  21.535  0.00  0.00    +0.000 A 
ATOM     16  C   UNL     1       1.355   4.216  20.764  0.00  0.00    +0.000 A 
ATOM     17  C   UNL     1       2.193   4.618  19.717  0.00  0.00    +0.000 A 
ENDBRANCH   5  12
BRANCH   1  19
ATOM     18  C   UNL     1       6.267   4.005  13.992  0.00  0.00    +0.000 C 
ATOM     19  C   UNL     1       6.010   3.619  15.449  0.00  0.00    +0.000 C 
ENDBRANCH   1  19
TORSDOF 2
ENDMDL
MODEL 5
REMARK VINA RESULT:      -7.4      2.127      5.441
REMARK  Name = 
REMARK  4 active torsions:
REMARK  status: ('A' for Active; 'I' for Inactive)
REMARK    1  A    between atoms: C_1  and  C_2
REMARK    2  A    between atoms: C_2  and  C_3
REMARK    3  A    between atoms: C_3  and  C_4
REMARK    4  A    between atoms: N_7  and  C_8
REMARK                            x       y       z     vdW  Elec       q    Type
REMARK                         _______ _______ _______ _____ _____    ______ ____
ROOT
ATOM      1  C   UNL     1       5.031   4.864  17.157  0.00  0.00    +0.000 C 
ATOM      2  C   UNL     1       6.252   4.461  17.993  0.00  0.00    +0.000 C 
ATOM      3  C   UNL     1       4.605   6.294  17.551  0.00  0.00    +0.000 C 
ATOM      4  O   UNL     1       5.320   7.273  17.385  0.00  0.00    +0.000 OA
ATOM      5  N   UNL     1       3.319   6.212  18.121  0.00  0.00    +0.000 N 
ATOM      6  C   UNL     1       2.872   4.872  18.131  0.00  0.00    +0.000 A 
ATOM      7  N   UNL     1       1.684   4.399  18.540  0.00  0.00    +0.000 NA
ATOM      8  C   UNL     1       1.477   3.069  18.396  0.00  0.00    +0.000 A 
ATOM      9  C   UNL     1       2.401   2.186  17.849  0.00  0.00    +0.000 A 
ATOM     10  C   UNL     1       3.621   2.690  17.419  0.00  0.00    +0.000 A 
ATOM     11  C   UNL     1       3.841   4.050  17.569  0.00  0.00    +0.000 A 
ENDROOT
BRANCH   5  12
ATOM     12  C   UNL     1       2.517   7.316  18.538  0.00  0.00    +0.000 A 
ATOM     13  C   UNL     1       2.117   7.445  19.880  0.00  0.00    +0.000 A 
ATOM     14  C   UNL     1       1.388   8.555  20.328  0.00  0.00    +0.000 A 
ATOM     15  C   UNL     1       1.026   9.559  19.438  0.00  0.00    +0.000 A 
ATOM     16  C   UNL     1       1.373   9.439  18.099  0.00  0.00    +0.000 A 
ATOM     17  C   UNL     1       2.104   8.329  17.658  0.00  0.00    +0.000 A 
ENDBRANCH   5  12
BRANCH   1  19
ATOM     18  C   UNL     1       6.815   4.677  15.292  0.00  0.00    +0.000 C 
ATOM     19  C   UNL     1       5.331   4.772  15.647  0.00  0.00    +0.000 C 
ENDBRANCH   1  19
TORSDOF 2
ENDMDL
MODEL 6
REMARK VINA RESULT:      -7.4      2.134      5.364
REMARK  Name = 
REMARK  4 active torsions:
REMARK  status: ('A' for Active; 'I' for Inactive)
REMARK    1  A    between atoms: C_1  and  C_2
REMARK    2  A    between atoms: C_2  and  C_3
REMARK    3  A    between atoms: C_3  and  C_4
REMARK    4  A    between atoms: N_7  and  C_8
REMARK                            x       y       z     vdW  Elec       q    Type
REMARK                         _______ _______ _______ _____ _____    ______ ____
ROOT
ATOM      1  C   UNL     1       4.981   4.859  17.127  0.00  0.00    +0.000 C 
ATOM      2  C   UNL     1       6.211   4.423  17.932  0.00  0.00    +0.000 C 
ATOM      3  C   UNL     1       4.598   6.297  17.538  0.00  0.00    +0.000 C 
ATOM      4  O   UNL     1       5.334   7.260  17.359  0.00  0.00    +0.000 OA
ATOM      5  N   UNL     1       3.325   6.244  18.138  0.00  0.00    +0.000 N 
ATOM      6  C   UNL     1       2.846   4.915  18.153  0.00  0.00    +0.000 A 
ATOM      7  N   UNL     1       1.657   4.469  18.588  0.00  0.00    +0.000 NA
ATOM      8  C   UNL     1       1.415   3.144  18.443  0.00  0.00    +0.000 A 
ATOM      9  C   UNL     1       2.304   2.242  17.870  0.00  0.00    +0.000 A 
ATOM     10  C   UNL     1       3.524   2.719  17.413  0.00  0.00    +0.000 A 
ATOM     11  C   UNL     1       3.781   4.073  17.564  0.00  0.00    +0.000 A 
ENDROOT
BRANCH   5  12
ATOM     12  C   UNL     1       2.561   7.364  18.578  0.00  0.00    +0.000 A 
ATOM     13  C   UNL     1       2.188   8.377  17.677  0.00  0.00    +0.000 A 
ATOM     14  C   UNL     1       1.379   9.453  18.070  0.00  0.00    +0.000 A 
ATOM     15  C   UNL     1       0.936   9.551  19.383  0.00  0.00    +0.000 A 
ATOM     16  C   UNL     1       1.322   8.587  20.304  0.00  0.00    +0.000 A 
ATOM     17  C   UNL     1       2.128   7.513  19.906  0.00  0.00    +0.000 A 
ENDBRANCH   5  12
BRANCH   1  19
ATOM     18  C   UNL     1       6.686   4.444  15.226  0.00  0.00    +0.000 C 
ATOM     19  C   UNL     1       5.242   4.768  15.609  0.00  0.00    +0.000 C 
ENDBRANCH   1  19
TORSDOF 2
ENDMDL
MODEL 7
REMARK VINA RESULT:      -7.3      2.237      5.879
REMARK  Name = 
REMARK  4 active torsions:
REMARK  status: ('A' for Active; 'I' for Inactive)
REMARK    1  A    between atoms: C_1  and  C_2
REMARK    2  A    between atoms: C_2  and  C_3
REMARK    3  A    between atoms: C_3  and  C_4
REMARK    4  A    between atoms: N_7  and  C_8
REMARK                            x       y       z     vdW  Elec       q    Type
REMARK                         _______ _______ _______ _____ _____    ______ ____
ROOT
ATOM      1  C   UNL     1       6.711   5.872  17.707  0.00  0.00    +0.000 C 
ATOM      2  C   UNL     1       8.002   5.398  18.387  0.00  0.00    +0.000 C 
ATOM      3  C   UNL     1       5.502   5.313  18.485  0.00  0.00    +0.000 C 
ATOM      4  O   UNL     1       5.262   5.610  19.649  0.00  0.00    +0.000 OA
ATOM      5  N   UNL     1       4.811   4.436  17.626  0.00  0.00    +0.000 N 
ATOM      6  C   UNL     1       5.453   4.376  16.369  0.00  0.00    +0.000 A 
ATOM      7  N   UNL     1       5.069   3.698  15.275  0.00  0.00    +0.000 NA
ATOM      8  C   UNL     1       5.834   3.848  14.168  0.00  0.00    +0.000 A 
ATOM      9  C   UNL     1       6.963   4.656  14.098  0.00  0.00    +0.000 A 
ATOM     10  C   UNL     1       7.341   5.360  15.232  0.00  0.00    +0.000 A 
ATOM     11  C   UNL     1       6.566   5.207  16.371  0.00  0.00    +0.000 A 
ENDROOT
BRANCH   5  12
ATOM     12  C   UNL     1       3.581   3.775  17.918  0.00  0.00    +0.000 A 
ATOM     13  C   UNL     1       3.572   2.438  18.354  0.00  0.00    +0.000 A 
ATOM     14  C   UNL     1       2.384   1.788  18.713  0.00  0.00    +0.000 A 
ATOM     15  C   UNL     1       1.168   2.457  18.629  0.00  0.00    +0.000 A 
ATOM     16  C   UNL     1       1.143   3.764  18.164  0.00  0.00    +0.000 A 
ATOM     17  C   UNL     1       2.334   4.410  17.809  0.00  0.00    +0.000 A 
ENDBRANCH   5  12
BRANCH   1  19
ATOM     18  C   UNL     1       7.999   8.114  17.807  0.00  0.00    +0.000 C 
ATOM     19  C   UNL     1       6.654   7.411  17.624  0.00  0.00    +0.000 C 
ENDBRANCH   1  19
TORSDOF 2
ENDMDL
MODEL 8
REMARK VINA RESULT:      -7.1      2.202      5.840
REMARK  Name = 
REMARK  4 active torsions:
REMARK  status: ('A' for Active; 'I' for Inactive)
REMARK    1  A    between atoms: C_1  and  C_2
REMARK    2  A    between atoms: C_2  and  C_3
REMARK    3  A    between atoms: C_3  and  C_4
REMARK    4  A    between atoms: N_7  and  C_8
REMARK                            x       y       z     vdW  Elec       q    Type
REMARK                         _______ _______ _______ _____ _____    ______ ____
ROOT
ATOM      1  C   UNL     1       6.841   5.689  17.697  0.00  0.00    +0.000 C 
ATOM      2  C   UNL     1       8.131   5.122  18.302  0.00  0.00    +0.000 C 
ATOM      3  C   UNL     1       5.637   5.183  18.521  0.00  0.00    +0.000 C 
ATOM      4  O   UNL     1       5.472   5.463  19.701  0.00  0.00    +0.000 OA
ATOM      5  N   UNL     1       4.854   4.372  17.675  0.00  0.00    +0.000 N 
ATOM      6  C   UNL     1       5.431   4.307  16.388  0.00  0.00    +0.000 A 
ATOM      7  N   UNL     1       4.955   3.683  15.298  0.00  0.00    +0.000 NA
ATOM      8  C   UNL     1       5.674   3.817  14.159  0.00  0.00    +0.000 A 
ATOM      9  C   UNL     1       6.845   4.558  14.052  0.00  0.00    +0.000 A 
ATOM     10  C   UNL     1       7.320   5.207  15.183  0.00  0.00    +0.000 A 
ATOM     11  C   UNL     1       6.592   5.070  16.354  0.00  0.00    +0.000 A 
ENDROOT
BRANCH   5  12
ATOM     12  C   UNL     1       3.602   3.778  18.012  0.00  0.00    +0.000 A 
ATOM     13  C   UNL     1       2.399   4.473  17.799  0.00  0.00    +0.000 A 
ATOM     14  C   UNL     1       1.152   3.885  18.057  0.00  0.00    +0.000 A 
ATOM     15  C   UNL     1       1.080   2.588  18.551  0.00  0.00    +0.000 A 
ATOM     16  C   UNL     1       2.254   1.893  18.809  0.00  0.00    +0.000 A 
ATOM     17  C   UNL     1       3.496   2.484  18.547  0.00  0.00    +0.000 A 
ENDBRANCH   5  12
BRANCH   1  19
ATOM     18  C   UNL     1       8.164   7.860  18.178  0.00  0.00    +0.000 C 
ATOM     19  C   UNL     1       6.872   7.231  17.654  0.00  0.00    +0.000 C 
ENDBRANCH   1  19
TORSDOF 2
ENDMDL
MODEL 9
REMARK VINA RESULT:      -6.9      2.099      5.090
REMARK  Name = 
REMARK  4 active torsions:
REMARK  status: ('A' for Active; 'I' for Inactive)
REMARK    1  A    between atoms: C_1  and  C_2
REMARK    2  A    between atoms: C_2  and  C_3
REMARK    3  A    between atoms: C_3  and  C_4
REMARK    4  A    between atoms: N_7  and  C_8
REMARK                            x       y       z     vdW  Elec       q    Type
REMARK                         _______ _______ _______ _____ _____    ______ ____
ROOT
ATOM      1  C   UNL     1       4.359   4.661  18.133  0.00  0.00    +0.000 C 
ATOM      2  C   UNL     1       5.747   4.502  18.766  0.00  0.00    +0.000 C 
ATOM      3  C   UNL     1       4.005   6.162  18.072  0.00  0.00    +0.000 C 
ATOM      4  O   UNL     1       4.644   6.971  17.412  0.00  0.00    +0.000 OA
ATOM      5  N   UNL     1       2.886   6.369  18.902  0.00  0.00    +0.000 N 
ATOM      6  C   UNL     1       2.480   5.150  19.490  0.00  0.00    +0.000 A 
ATOM      7  N   UNL     1       1.427   4.929  20.293  0.00  0.00    +0.000 NA
ATOM      8  C   UNL     1       1.220   3.649  20.685  0.00  0.00    +0.000 A 
ATOM      9  C   UNL     1       2.012   2.573  20.301  0.00  0.00    +0.000 A 
ATOM     10  C   UNL     1       3.090   2.814  19.462  0.00  0.00    +0.000 A 
ATOM     11  C   UNL     1       3.311   4.123  19.061  0.00  0.00    +0.000 A 
ENDROOT
BRANCH   5  12
ATOM     12  C   UNL     1       2.179   7.597  19.061  0.00  0.00    +0.000 A 
ATOM     13  C   UNL     1       1.874   8.398  17.947  0.00  0.00    +0.000 A 
ATOM     14  C   UNL     1       1.120   9.574  18.068  0.00  0.00    +0.000 A 
ATOM     15  C   UNL     1       0.667   9.988  19.315  0.00  0.00    +0.000 A 
ATOM     16  C   UNL     1       0.988   9.238  20.438  0.00  0.00    +0.000 A 
ATOM     17  C   UNL     1       1.738   8.062  20.311  0.00  0.00    +0.000 A 
ENDBRANCH   5  12
BRANCH   1  19
ATOM     18  C   UNL     1       5.660   3.907  16.027  0.00  0.00    +0.000 C 
ATOM     19  C   UNL     1       4.307   4.022  16.730  0.00  0.00    +0.000 C 
ENDBRANCH   1  19
TORSDOF 2
ENDMDL
