MODEL 1
REMARK VINA RESULT:      -5.4      0.000      0.000
REMARK  Name = 
REMARK  10 active torsions:
REMARK  status: ('A' for Active; 'I' for Inactive)
REMARK    1  A    between atoms: C_2  and  C_3
REMARK    2  A    between atoms: C_2  and  C_12
REMARK    3  A    between atoms: C_3  and  C_4
REMARK    4  A    between atoms: C_4  and  N_5
REMARK    5  A    between atoms: N_5  and  C_6
REMARK    6  A    between atoms: N_5  and  C_9
REMARK    7  A    between atoms: C_6  and  C_7
REMARK    8  A    between atoms: C_7  and  O_8
REMARK    9  A    between atoms: C_9  and  C_10
REMARK   10  A    between atoms: C_10  and  O_11
REMARK                            x       y       z     vdW  Elec       q    Type
REMARK                         _______ _______ _______ _____ _____    ______ ____
ROOT
ATOM      1  C   UNL     1       4.636   5.433  17.178  0.00  0.00    +0.000 C 
ENDROOT
BRANCH   1   2
ATOM      2  C   UNL     1       4.453   3.915  17.299  0.00  0.00    +0.000 C 
BRANCH   2   4
ATOM      3  O   UNL     1       5.282   3.409  19.507  0.00  0.00    +0.000 OA
ATOM      4  C   UNL     1       4.305   3.493  18.758  0.00  0.00    +0.000 C 
BRANCH   4   5
ATOM      5  C   UNL     1       2.952   3.235  19.207  0.00  0.00    +0.000 A 
ATOM      6  C   UNL     1       1.767   3.126  18.502  0.00  0.00    +0.000 A 
ATOM      7  C   UNL     1       0.753   2.850  19.450  0.00  0.00    +0.000 A 
ATOM      8  C   UNL     1       1.375   2.815  20.676  0.00  0.00    +0.000 A 
ATOM      9  O   UNL     1       2.706   3.045  20.539  0.00  0.00    +0.000 OA
ENDBRANCH   4   5
ENDBRANCH   2   4
ENDBRANCH   1   2
BRANCH   1  10
ATOM     10  N   UNL     1       5.977   5.895  16.712  0.00  0.00    +0.000 NA
BRANCH  10  11
ATOM     11  C   UNL     1       6.691   6.594  17.822  0.00  0.00    +0.000 C 
BRANCH  11  12
ATOM     12  C   UNL     1       7.722   5.757  18.604  0.00  0.00    +0.000 C 
BRANCH  12  13
ATOM     13  O   UNL     1       7.221   5.397  19.886  0.00  0.00    +0.000 OA
ATOM     14  H   UNL     1       7.701   4.588  20.141  0.00  0.00    +0.000 HD
ENDBRANCH  12  13
ENDBRANCH  11  12
ENDBRANCH  10  11
BRANCH  10  15
ATOM     15  C   UNL     1       6.777   4.717  16.260  0.00  0.00    +0.000 C 
BRANCH  15  16
ATOM     16  C   UNL     1       6.970   4.596  14.737  0.00  0.00    +0.000 C 
BRANCH  16  17
ATOM     17  O   UNL     1       6.314   3.432  14.241  0.00  0.00    +0.000 OA
ATOM     18  H   UNL     1       5.913   3.004  15.022  0.00  0.00    +0.000 HD
ENDBRANCH  16  17
ENDBRANCH  15  16
ENDBRANCH  10  15
ENDBRANCH   1  10
TORSDOF 10
ENDMDL
MODEL 2
REMARK VINA RESULT:      -5.4      1.264      1.400
REMARK  Name = 
REMARK  10 active torsions:
REMARK  status: ('A' for Active; 'I' for Inactive)
REMARK    1  A    between atoms: C_2  and  C_3
REMARK    2  A    between atoms: C_2  and  C_12
REMARK    3  A    between atoms: C_3  and  C_4
REMARK    4  A    between atoms: C_4  and  N_5
REMARK    5  A    between atoms: N_5  and  C_6
REMARK    6  A    between atoms: N_5  and  C_9
REMARK    7  A    between atoms: C_6  and  C_7
REMARK    8  A    between atoms: C_7  and  O_8
REMARK    9  A    between atoms: C_9  and  C_10
REMARK   10  A    between atoms: C_10  and  O_11
REMARK                            x       y       z     vdW  Elec       q    Type
REMARK                         _______ _______ _______ _____ _____    ______ ____
ROOT
ATOM      1  C   UNL     1       4.510   5.745  18.370  0.00  0.00    +0.000 C 
ENDROOT
BRANCH   1   2
ATOM      2  C   UNL     1       3.415   4.929  17.671  0.00  0.00    +0.000 C 
BRANCH   2   4
ATOM      3  O   UNL     1       3.944   2.576  17.598  0.00  0.00    +0.000 OA
ATOM      4  C   UNL     1       3.378   3.496  18.195  0.00  0.00    +0.000 C 
BRANCH   4   5
ATOM      5  C   UNL     1       2.669   3.298  19.443  0.00  0.00    +0.000 A 
ATOM      6  C   UNL     1       1.359   3.564  19.796  0.00  0.00    +0.000 A 
ATOM      7  C   UNL     1       1.208   3.156  21.142  0.00  0.00    +0.000 A 
ATOM      8  C   UNL     1       2.434   2.673  21.535  0.00  0.00    +0.000 A 
ATOM      9  O   UNL     1       3.325   2.754  20.513  0.00  0.00    +0.000 OA
ENDBRANCH   4   5
ENDBRANCH   2   4
ENDBRANCH   1   2
BRANCH   1  10
ATOM     10  N   UNL     1       5.774   5.938  17.599  0.00  0.00    +0.000 NA
BRANCH  10  11
ATOM     11  C   UNL     1       6.881   5.159  18.230  0.00  0.00    +0.000 C 
BRANCH  11  12
ATOM     12  C   UNL     1       7.864   5.959  19.107  0.00  0.00    +0.000 C 
BRANCH  12  13
ATOM     13  O   UNL     1       7.894   5.450  20.435  0.00  0.00    +0.000 OA
ATOM     14  H   UNL     1       7.876   6.229  21.019  0.00  0.00    +0.000 HD
ENDBRANCH  12  13
ENDBRANCH  11  12
ENDBRANCH  10  11
BRANCH  10  15
ATOM     15  C   UNL     1       5.572   5.478  16.192  0.00  0.00    +0.000 C 
BRANCH  15  16
ATOM     16  C   UNL     1       6.687   4.581  15.625  0.00  0.00    +0.000 C 
BRANCH  16  17
ATOM     17  O   UNL     1       7.566   5.338  14.797  0.00  0.00    +0.000 OA
ATOM     18  H   UNL     1       7.487   6.261  15.106  0.00  0.00    +0.000 HD
ENDBRANCH  16  17
ENDBRANCH  15  16
ENDBRANCH  10  15
ENDBRANCH   1  10
TORSDOF 10
ENDMDL
MODEL 3
REMARK VINA RESULT:      -5.3      2.026      3.124
REMARK  Name = 
REMARK  10 active torsions:
REMARK  status: ('A' for Active; 'I' for Inactive)
REMARK    1  A    between atoms: C_2  and  C_3
REMARK    2  A    between atoms: C_2  and  C_12
REMARK    3  A    between atoms: C_3  and  C_4
REMARK    4  A    between atoms: C_4  and  N_5
REMARK    5  A    between atoms: N_5  and  C_6
REMARK    6  A    between atoms: N_5  and  C_9
REMARK    7  A    between atoms: C_6  and  C_7
REMARK    8  A    between atoms: C_7  and  O_8
REMARK    9  A    between atoms: C_9  and  C_10
REMARK   10  A    between atoms: C_10  and  O_11
REMARK                            x       y       z     vdW  Elec       q    Type
REMARK                         _______ _______ _______ _____ _____    ______ ____
ROOT
ATOM      1  C   UNL     1       4.708   5.342  19.134  0.00  0.00    +0.000 C 
ENDROOT
BRANCH   1   2
ATOM      2  C   UNL     1       3.396   5.993  18.676  0.00  0.00    +0.000 C 
BRANCH   2   4
ATOM      3  O   UNL     1       2.000   7.202  20.228  0.00  0.00    +0.000 OA
ATOM      4  C   UNL     1       2.406   6.107  19.833  0.00  0.00    +0.000 C 
BRANCH   4   5
ATOM      5  C   UNL     1       1.957   4.854  20.405  0.00  0.00    +0.000 A 
ATOM      6  C   UNL     1       0.972   3.972  19.999  0.00  0.00    +0.000 A 
ATOM      7  C   UNL     1       0.976   2.903  20.926  0.00  0.00    +0.000 A 
ATOM      8  C   UNL     1       1.955   3.197  21.846  0.00  0.00    +0.000 A 
ATOM      9  O   UNL     1       2.556   4.375  21.538  0.00  0.00    +0.000 OA
ENDBRANCH   4   5
ENDBRANCH   2   4
ENDBRANCH   1   2
BRANCH   1  10
ATOM     10  N   UNL     1       5.190   4.194  18.310  0.00  0.00    +0.000 NA
BRANCH  10  11
ATOM     11  C   UNL     1       4.065   3.251  18.039  0.00  0.00    +0.000 C 
BRANCH  11  12
ATOM     12  C   UNL     1       3.976   2.016  18.958  0.00  0.00    +0.000 C 
BRANCH  12  13
ATOM     13  O   UNL     1       5.127   1.912  19.788  0.00  0.00    +0.000 OA
ATOM     14  H   UNL     1       5.587   2.768  19.712  0.00  0.00    +0.000 HD
ENDBRANCH  12  13
ENDBRANCH  11  12
ENDBRANCH  10  11
BRANCH  10  15
ATOM     15  C   UNL     1       5.740   4.707  17.019  0.00  0.00    +0.000 C 
BRANCH  15  16
ATOM     16  C   UNL     1       7.266   4.909  16.987  0.00  0.00    +0.000 C 
BRANCH  16  17
ATOM     17  O   UNL     1       7.905   4.044  17.921  0.00  0.00    +0.000 OA
ATOM     18  H   UNL     1       8.390   3.389  17.383  0.00  0.00    +0.000 HD
ENDBRANCH  16  17
ENDBRANCH  15  16
ENDBRANCH  10  15
ENDBRANCH   1  10
TORSDOF 10
ENDMDL
MODEL 4
REMARK VINA RESULT:      -5.3      2.006      5.301
REMARK  Name = 
REMARK  10 active torsions:
REMARK  status: ('A' for Active; 'I' for Inactive)
REMARK    1  A    between atoms: C_2  and  C_3
REMARK    2  A    between atoms: C_2  and  C_12
REMARK    3  A    between atoms: C_3  and  C_4
REMARK    4  A    between atoms: C_4  and  N_5
REMARK    5  A    between atoms: N_5  and  C_6
REMARK    6  A    between atoms: N_5  and  C_9
REMARK    7  A    between atoms: C_6  and  C_7
REMARK    8  A    between atoms: C_7  and  O_8
REMARK    9  A    between atoms: C_9  and  C_10
REMARK   10  A    between atoms: C_10  and  O_11
REMARK                            x       y       z     vdW  Elec       q    Type
REMARK                         _______ _______ _______ _____ _____    ______ ____
ROOT
ATOM      1  C   UNL     1       4.870   6.323  17.161  0.00  0.00    +0.000 C 
ENDROOT
BRANCH   1   2
ATOM      2  C   UNL     1       6.367   6.364  17.494  0.00  0.00    +0.000 C 
BRANCH   2   4
ATOM      3  O   UNL     1       7.690   4.376  17.841  0.00  0.00    +0.000 OA
ATOM      4  C   UNL     1       7.065   5.082  17.045  0.00  0.00    +0.000 C 
BRANCH   4   5
ATOM      5  C   UNL     1       6.918   4.741  15.645  0.00  0.00    +0.000 A 
ATOM      6  C   UNL     1       6.117   3.804  15.018  0.00  0.00    +0.000 A 
ATOM      7  C   UNL     1       6.370   3.914  13.631  0.00  0.00    +0.000 A 
ATOM      8  C   UNL     1       7.315   4.903  13.491  0.00  0.00    +0.000 A 
ATOM      9  O   UNL     1       7.652   5.411  14.705  0.00  0.00    +0.000 OA
ENDBRANCH   4   5
ENDBRANCH   2   4
ENDBRANCH   1   2
BRANCH   1  10
ATOM     10  N   UNL     1       4.010   5.553  18.109  0.00  0.00    +0.000 NA
BRANCH  10  11
ATOM     11  C   UNL     1       2.778   6.334  18.430  0.00  0.00    +0.000 C 
BRANCH  11  12
ATOM     12  C   UNL     1       2.388   6.410  19.919  0.00  0.00    +0.000 C 
BRANCH  12  13
ATOM     13  O   UNL     1       2.935   5.316  20.646  0.00  0.00    +0.000 OA
ATOM     14  H   UNL     1       3.863   5.552  20.824  0.00  0.00    +0.000 HD
ENDBRANCH  12  13
ENDBRANCH  11  12
ENDBRANCH  10  11
BRANCH  10  15
ATOM     15  C   UNL     1       3.634   4.248  17.488  0.00  0.00    +0.000 C 
BRANCH  15  16
ATOM     16  C   UNL     1       4.135   2.996  18.231  0.00  0.00    +0.000 C 
BRANCH  16  17
ATOM     17  O   UNL     1       5.056   3.358  19.256  0.00  0.00    +0.000 OA
ATOM     18  H   UNL     1       5.936   3.356  18.831  0.00  0.00    +0.000 HD
ENDBRANCH  16  17
ENDBRANCH  15  16
ENDBRANCH  10  15
ENDBRANCH   1  10
TORSDOF 10
ENDMDL
MODEL 5
REMARK VINA RESULT:      -5.3      1.078      1.263
REMARK  Name = 
REMARK  10 active torsions:
REMARK  status: ('A' for Active; 'I' for Inactive)
REMARK    1  A    between atoms: C_2  and  C_3
REMARK    2  A    between atoms: C_2  and  C_12
REMARK    3  A    between atoms: C_3  and  C_4
REMARK    4  A    between atoms: C_4  and  N_5
REMARK    5  A    between atoms: N_5  and  C_6
REMARK    6  A    between atoms: N_5  and  C_9
REMARK    7  A    between atoms: C_6  and  C_7
REMARK    8  A    between atoms: C_7  and  O_8
REMARK    9  A    between atoms: C_9  and  C_10
REMARK   10  A    between atoms: C_10  and  O_11
REMARK                            x       y       z     vdW  Elec       q    Type
REMARK                         _______ _______ _______ _____ _____    ______ ____
ROOT
ATOM      1  C   UNL     1       4.385   5.072  17.280  0.00  0.00    +0.000 C 
ENDROOT
BRANCH   1   2
ATOM      2  C   UNL     1       4.497   3.565  17.548  0.00  0.00    +0.000 C 
BRANCH   2   4
ATOM      3  O   UNL     1       5.238   3.021  19.778  0.00  0.00    +0.000 OA
ATOM      4  C   UNL     1       4.287   3.254  19.028  0.00  0.00    +0.000 C 
BRANCH   4   5
ATOM      5  C   UNL     1       2.915   3.283  19.491  0.00  0.00    +0.000 A 
ATOM      6  C   UNL     1       2.348   3.850  20.618  0.00  0.00    +0.000 A 
ATOM      7  C   UNL     1       0.961   3.583  20.555  0.00  0.00    +0.000 A 
ATOM      8  C   UNL     1       0.761   2.863  19.400  0.00  0.00    +0.000 A 
ATOM      9  O   UNL     1       1.938   2.678  18.748  0.00  0.00    +0.000 OA
ENDBRANCH   4   5
ENDBRANCH   2   4
ENDBRANCH   1   2
BRANCH   1  10
ATOM     10  N   UNL     1       5.622   5.741  16.779  0.00  0.00    +0.000 NA
BRANCH  10  11
ATOM     11  C   UNL     1       6.824   5.160  17.450  0.00  0.00    +0.000 C 
BRANCH  11  12
ATOM     12  C   UNL     1       7.390   5.955  18.643  0.00  0.00    +0.000 C 
BRANCH  12  13
ATOM     13  O   UNL     1       7.018   5.357  19.879  0.00  0.00    +0.000 OA
ATOM     14  H   UNL     1       7.687   4.669  20.053  0.00  0.00    +0.000 HD
ENDBRANCH  12  13
ENDBRANCH  11  12
ENDBRANCH  10  11
BRANCH  10  15
ATOM     15  C   UNL     1       5.727   5.548  15.302  0.00  0.00    +0.000 C 
BRANCH  15  16
ATOM     16  C   UNL     1       6.920   4.697  14.831  0.00  0.00    +0.000 C 
BRANCH  16  17
ATOM     17  O   UNL     1       7.780   5.462  13.991  0.00  0.00    +0.000 OA
ATOM     18  H   UNL     1       8.661   5.419  14.410  0.00  0.00    +0.000 HD
ENDBRANCH  16  17
ENDBRANCH  15  16
ENDBRANCH  10  15
ENDBRANCH   1  10
TORSDOF 10
ENDMDL
MODEL 6
REMARK VINA RESULT:      -5.3      1.407      3.324
REMARK  Name = 
REMARK  10 active torsions:
REMARK  status: ('A' for Active; 'I' for Inactive)
REMARK    1  A    between atoms: C_2  and  C_3
REMARK    2  A    between atoms: C_2  and  C_12
REMARK    3  A    between atoms: C_3  and  C_4
REMARK    4  A    between atoms: C_4  and  N_5
REMARK    5  A    between atoms: N_5  and  C_6
REMARK    6  A    between atoms: N_5  and  C_9
REMARK    7  A    between atoms: C_6  and  C_7
REMARK    8  A    between atoms: C_7  and  O_8
REMARK    9  A    between atoms: C_9  and  C_10
REMARK   10  A    between atoms: C_10  and  O_11
REMARK                            x       y       z     vdW  Elec       q    Type
REMARK                         _______ _______ _______ _____ _____    ______ ____
ROOT
ATOM      1  C   UNL     1       4.284   4.311  17.033  0.00  0.00    +0.000 C 
ENDROOT
BRANCH   1   2
ATOM      2  C   UNL     1       3.280   5.173  17.811  0.00  0.00    +0.000 C 
BRANCH   2   4
ATOM      3  O   UNL     1       1.156   4.209  17.198  0.00  0.00    +0.000 OA
ATOM      4  C   UNL     1       1.991   4.403  18.085  0.00  0.00    +0.000 C 
BRANCH   4   5
ATOM      5  C   UNL     1       1.833   3.894  19.432  0.00  0.00    +0.000 A 
ATOM      6  C   UNL     1       0.951   2.966  19.955  0.00  0.00    +0.000 A 
ATOM      7  C   UNL     1       1.258   2.841  21.330  0.00  0.00    +0.000 A 
ATOM      8  C   UNL     1       2.302   3.704  21.569  0.00  0.00    +0.000 A 
ATOM      9  O   UNL     1       2.659   4.345  20.426  0.00  0.00    +0.000 OA
ENDBRANCH   4   5
ENDBRANCH   2   4
ENDBRANCH   1   2
BRANCH   1  10
ATOM     10  N   UNL     1       5.708   4.414  17.468  0.00  0.00    +0.000 NA
BRANCH  10  11
ATOM     11  C   UNL     1       6.611   4.348  16.280  0.00  0.00    +0.000 C 
BRANCH  11  12
ATOM     12  C   UNL     1       5.935   4.494  14.902  0.00  0.00    +0.000 C 
BRANCH  12  13
ATOM     13  O   UNL     1       6.283   3.414  14.045  0.00  0.00    +0.000 OA
ATOM     14  H   UNL     1       5.607   2.728  14.193  0.00  0.00    +0.000 HD
ENDBRANCH  12  13
ENDBRANCH  11  12
ENDBRANCH  10  11
BRANCH  10  15
ATOM     15  C   UNL     1       5.915   5.706  18.187  0.00  0.00    +0.000 C 
BRANCH  15  16
ATOM     16  C   UNL     1       7.330   5.925  18.755  0.00  0.00    +0.000 C 
BRANCH  16  17
ATOM     17  O   UNL     1       7.435   5.372  20.064  0.00  0.00    +0.000 OA
ATOM     18  H   UNL     1       6.525   5.362  20.418  0.00  0.00    +0.000 HD
ENDBRANCH  16  17
ENDBRANCH  15  16
ENDBRANCH  10  15
ENDBRANCH   1  10
TORSDOF 10
ENDMDL
MODEL 7
REMARK VINA RESULT:      -5.3      1.822      3.082
REMARK  Name = 
REMARK  10 active torsions:
REMARK  status: ('A' for Active; 'I' for Inactive)
REMARK    1  A    between atoms: C_2  and  C_3
REMARK    2  A    between atoms: C_2  and  C_12
REMARK    3  A    between atoms: C_3  and  C_4
REMARK    4  A    between atoms: C_4  and  N_5
REMARK    5  A    between atoms: N_5  and  C_6
REMARK    6  A    between atoms: N_5  and  C_9
REMARK    7  A    between atoms: C_6  and  C_7
REMARK    8  A    between atoms: C_7  and  O_8
REMARK    9  A    between atoms: C_9  and  C_10
REMARK   10  A    between atoms: C_10  and  O_11
REMARK                            x       y       z     vdW  Elec       q    Type
REMARK                         _______ _______ _______ _____ _____    ______ ____
ROOT
ATOM      1  C   UNL     1       3.975   5.795  17.521  0.00  0.00    +0.000 C 
ENDROOT
BRANCH   1   2
ATOM      2  C   UNL     1       2.625   6.020  18.216  0.00  0.00    +0.000 C 
BRANCH   2   4
ATOM      3  O   UNL     1       1.258   4.294  17.229  0.00  0.00    +0.000 OA
ATOM      4  C   UNL     1       1.802   4.735  18.245  0.00  0.00    +0.000 C 
BRANCH   4   5
ATOM      5  C   UNL     1       1.731   4.059  19.525  0.00  0.00    +0.000 A 
ATOM      6  C   UNL     1       1.023   2.940  19.923  0.00  0.00    +0.000 A 
ATOM      7  C   UNL     1       1.343   2.718  21.283  0.00  0.00    +0.000 A 
ATOM      8  C   UNL     1       2.220   3.717  21.639  0.00  0.00    +0.000 A 
ATOM      9  O   UNL     1       2.462   4.533  20.580  0.00  0.00    +0.000 OA
ENDBRANCH   4   5
ENDBRANCH   2   4
ENDBRANCH   1   2
BRANCH   1  10
ATOM     10  N   UNL     1       4.477   4.389  17.508  0.00  0.00    +0.000 NA
BRANCH  10  11
ATOM     11  C   UNL     1       5.296   4.150  16.282  0.00  0.00    +0.000 C 
BRANCH  11  12
ATOM     12  C   UNL     1       5.771   5.405  15.525  0.00  0.00    +0.000 C 
BRANCH  12  13
ATOM     13  O   UNL     1       7.166   5.617  15.711  0.00  0.00    +0.000 OA
ATOM     14  H   UNL     1       7.591   4.760  15.525  0.00  0.00    +0.000 HD
ENDBRANCH  12  13
ENDBRANCH  11  12
ENDBRANCH  10  11
BRANCH  10  15
ATOM     15  C   UNL     1       5.309   4.149  18.725  0.00  0.00    +0.000 C 
BRANCH  15  16
ATOM     16  C   UNL     1       6.260   5.297  19.110  0.00  0.00    +0.000 C 
BRANCH  16  17
ATOM     17  O   UNL     1       7.596   4.995  18.715  0.00  0.00    +0.000 OA
ATOM     18  H   UNL     1       8.142   5.128  19.514  0.00  0.00    +0.000 HD
ENDBRANCH  16  17
ENDBRANCH  15  16
ENDBRANCH  10  15
ENDBRANCH   1  10
TORSDOF 10
ENDMDL
MODEL 8
REMARK VINA RESULT:      -5.3      2.025      5.387
REMARK  Name = 
REMARK  10 active torsions:
REMARK  status: ('A' for Active; 'I' for Inactive)
REMARK    1  A    between atoms: C_2  and  C_3
REMARK    2  A    between atoms: C_2  and  C_12
REMARK    3  A    between atoms: C_3  and  C_4
REMARK    4  A    between atoms: C_4  and  N_5
REMARK    5  A    between atoms: N_5  and  C_6
REMARK    6  A    between atoms: N_5  and  C_9
REMARK    7  A    between atoms: C_6  and  C_7
REMARK    8  A    between atoms: C_7  and  O_8
REMARK    9  A    between atoms: C_9  and  C_10
REMARK   10  A    between atoms: C_10  and  O_11
REMARK                            x       y       z     vdW  Elec       q    Type
REMARK                         _______ _______ _______ _____ _____    ______ ____
ROOT
ATOM      1  C   UNL     1       5.220   4.302  19.316  0.00  0.00    +0.000 C 
ENDROOT
BRANCH   1   2
ATOM      2  C   UNL     1       5.734   5.290  18.261  0.00  0.00    +0.000 C 
BRANCH   2   4
ATOM      3  O   UNL     1       7.972   4.404  18.095  0.00  0.00    +0.000 OA
ATOM      4  C   UNL     1       6.932   4.717  17.508  0.00  0.00    +0.000 C 
BRANCH   4   5
ATOM      5  C   UNL     1       6.755   4.537  16.082  0.00  0.00    +0.000 A 
ATOM      6  C   UNL     1       5.901   3.714  15.370  0.00  0.00    +0.000 A 
ATOM      7  C   UNL     1       6.147   3.961  13.999  0.00  0.00    +0.000 A 
ATOM      8  C   UNL     1       7.140   4.912  13.953  0.00  0.00    +0.000 A 
ATOM      9  O   UNL     1       7.513   5.268  15.209  0.00  0.00    +0.000 OA
ENDBRANCH   4   5
ENDBRANCH   2   4
ENDBRANCH   1   2
BRANCH   1  10
ATOM     10  N   UNL     1       3.744   4.081  19.342  0.00  0.00    +0.000 NA
BRANCH  10  11
ATOM     11  C   UNL     1       3.049   5.326  19.789  0.00  0.00    +0.000 C 
BRANCH  11  12
ATOM     12  C   UNL     1       1.743   5.128  20.583  0.00  0.00    +0.000 C 
BRANCH  12  13
ATOM     13  O   UNL     1       1.700   3.840  21.185  0.00  0.00    +0.000 OA
ATOM     14  H   UNL     1       0.804   3.497  21.015  0.00  0.00    +0.000 HD
ENDBRANCH  12  13
ENDBRANCH  11  12
ENDBRANCH  10  11
BRANCH  10  15
ATOM     15  C   UNL     1       3.275   3.705  17.975  0.00  0.00    +0.000 C 
BRANCH  15  16
ATOM     16  C   UNL     1       2.857   2.233  17.803  0.00  0.00    +0.000 C 
BRANCH  16  17
ATOM     17  O   UNL     1       3.964   1.368  18.041  0.00  0.00    +0.000 OA
ATOM     18  H   UNL     1       4.757   1.883  17.796  0.00  0.00    +0.000 HD
ENDBRANCH  16  17
ENDBRANCH  15  16
ENDBRANCH  10  15
ENDBRANCH   1  10
TORSDOF 10
ENDMDL
MODEL 9
REMARK VINA RESULT:      -5.2      2.133      5.469
REMARK  Name = 
REMARK  10 active torsions:
REMARK  status: ('A' for Active; 'I' for Inactive)
REMARK    1  A    between atoms: C_2  and  C_3
REMARK    2  A    between atoms: C_2  and  C_12
REMARK    3  A    between atoms: C_3  and  C_4
REMARK    4  A    between atoms: C_4  and  N_5
REMARK    5  A    between atoms: N_5  and  C_6
REMARK    6  A    between atoms: N_5  and  C_9
REMARK    7  A    between atoms: C_6  and  C_7
REMARK    8  A    between atoms: C_7  and  O_8
REMARK    9  A    between atoms: C_9  and  C_10
REMARK   10  A    between atoms: C_10  and  O_11
REMARK                            x       y       z     vdW  Elec       q    Type
REMARK                         _______ _______ _______ _____ _____    ______ ____
ROOT
ATOM      1  C   UNL     1       4.662   4.702  18.227  0.00  0.00    +0.000 C 
ENDROOT
BRANCH   1   2
ATOM      2  C   UNL     1       6.014   5.397  18.434  0.00  0.00    +0.000 C 
BRANCH   2   4
ATOM      3  O   UNL     1       8.140   4.286  18.175  0.00  0.00    +0.000 OA
ATOM      4  C   UNL     1       7.115   4.706  17.632  0.00  0.00    +0.000 C 
BRANCH   4   5
ATOM      5  C   UNL     1       6.860   4.550  16.215  0.00  0.00    +0.000 A 
ATOM      6  C   UNL     1       6.034   3.677  15.531  0.00  0.00    +0.000 A 
ATOM      7  C   UNL     1       6.168   3.982  14.156  0.00  0.00    +0.000 A 
ATOM      8  C   UNL     1       7.073   5.015  14.079  0.00  0.00    +0.000 A 
ATOM      9  O   UNL     1       7.496   5.367  15.320  0.00  0.00    +0.000 OA
ENDBRANCH   4   5
ENDBRANCH   2   4
ENDBRANCH   1   2
BRANCH   1  10
ATOM     10  N   UNL     1       3.937   4.300  19.469  0.00  0.00    +0.000 NA
BRANCH  10  11
ATOM     11  C   UNL     1       2.516   4.754  19.401  0.00  0.00    +0.000 C 
BRANCH  11  12
ATOM     12  C   UNL     1       1.999   5.170  18.010  0.00  0.00    +0.000 C 
BRANCH  12  13
ATOM     13  O   UNL     1       1.161   4.164  17.454  0.00  0.00    +0.000 OA
ATOM     14  H   UNL     1       1.134   4.340  16.496  0.00  0.00    +0.000 HD
ENDBRANCH  12  13
ENDBRANCH  11  12
ENDBRANCH  10  11
BRANCH  10  15
ATOM     15  C   UNL     1       3.985   2.814  19.611  0.00  0.00    +0.000 C 
BRANCH  15  16
ATOM     16  C   UNL     1       3.794   2.020  18.306  0.00  0.00    +0.000 C 
BRANCH  16  17
ATOM     17  O   UNL     1       2.450   1.560  18.192  0.00  0.00    +0.000 OA
ATOM     18  H   UNL     1       2.046   2.103  17.488  0.00  0.00    +0.000 HD
ENDBRANCH  16  17
ENDBRANCH  15  16
ENDBRANCH  10  15
ENDBRANCH   1  10
TORSDOF 10
ENDMDL
