MODEL 1
REMARK VINA RESULT:      -6.6      0.000      0.000
REMARK  Name = 
REMARK  12 active torsions:
REMARK  status: ('A' for Active; 'I' for Inactive)
REMARK    1  A    between atoms: N_1  and  C_2
REMARK    2  A    between atoms: C_2  and  C_3
REMARK    3  A    between atoms: C_3  and  C_4
REMARK    4  A    between atoms: C_4  and  C_5
REMARK    5  A    between atoms: C_5  and  N_6
REMARK    6  A    between atoms: C_5  and  C_7
REMARK    7  A    between atoms: C_5  and  C_22
REMARK    8  A    between atoms: C_7  and  O_9
REMARK    9  A    between atoms: O_9  and  C_10
REMARK   10  A    between atoms: C_10  and  C_11
REMARK   11  A    between atoms: C_11  and  C_12
REMARK   12  A    between atoms: C_12  and  N_13
REMARK                            x       y       z     vdW  Elec       q    Type
REMARK                         _______ _______ _______ _____ _____    ______ ____
ROOT
ATOM      1  C   UNL     1       7.802   5.945  17.395  0.00  0.00    +0.000 C 
ENDROOT
BRANCH   1   2
ATOM      2  O   UNL     1       7.695   4.746  16.611  0.00  0.00    +0.000 OA
BRANCH   2   3
ATOM      3  C   UNL     1       7.325   4.927  15.307  0.00  0.00    +0.000 C 
ATOM      4  O   UNL     1       7.983   5.561  14.490  0.00  0.00    +0.000 OA
BRANCH   3   5
ATOM      5  C   UNL     1       6.062   4.128  14.956  0.00  0.00    +0.000 C 
BRANCH   5   6
ATOM      6  N   UNL     1       5.899   2.963  15.887  0.00  0.00    +0.000 NA
ATOM      7  H   UNL     1       4.929   2.651  15.876  0.00  0.00    +0.000 HD
ATOM      8  H   UNL     1       6.112   3.267  16.840  0.00  0.00    +0.000 HD
ENDBRANCH   5   6
BRANCH   5   9
ATOM      9  C   UNL     1       4.881   5.114  15.078  0.00  0.00    +0.000 C 
ATOM     10  F   UNL     1       4.467   5.172  16.376  0.00  0.00    +0.000 F 
ATOM     11  F   UNL     1       5.268   6.381  14.753  0.00  0.00    +0.000 F 
ENDBRANCH   5   9
BRANCH   5  12
ATOM     12  C   UNL     1       6.206   3.567  13.515  0.00  0.00    +0.000 C 
BRANCH  12  13
ATOM     13  C   UNL     1       4.958   3.729  12.631  0.00  0.00    +0.000 C 
BRANCH  13  14
ATOM     14  C   UNL     1       4.913   2.739  11.465  0.00  0.00    +0.000 C 
BRANCH  14  15
ATOM     15  N   UNL     1       5.858   1.649  11.662  0.00  0.00    +0.000 NA
ATOM     16  H   UNL     1       6.788   1.948  11.366  0.00  0.00    +0.000 HD
ATOM     17  H   UNL     1       5.613   0.861  11.062  0.00  0.00    +0.000 HD
ENDBRANCH  14  15
ENDBRANCH  13  14
ENDBRANCH  12  13
ENDBRANCH   5  12
ENDBRANCH   3   5
ENDBRANCH   2   3
ENDBRANCH   1   2
BRANCH   1  18
ATOM     18  C   UNL     1       7.815   5.637  18.892  0.00  0.00    +0.000 C 
BRANCH  18  19
ATOM     19  C   UNL     1       6.395   5.478  19.431  0.00  0.00    +0.000 C 
BRANCH  19  20
ATOM     20  N   UNL     1       5.766   4.272  18.946  0.00  0.00    +0.000 N 
ATOM     21  C   UNL     1       4.450   3.992  19.226  0.00  0.00    +0.000 A 
ATOM     22  N   UNL     1       3.714   4.872  19.889  0.00  0.00    +0.000 NA
ATOM     23  C   UNL     1       2.445   4.549  20.059  0.00  0.00    +0.000 A 
ATOM     24  N   UNL     1       1.648   5.443  20.746  0.00  0.00    +0.000 N 
ATOM     25  N   UNL     1       1.886   3.430  19.634  0.00  0.00    +0.000 NA
ATOM     26  C   UNL     1       2.704   2.612  18.995  0.00  0.00    +0.000 A 
ATOM     27  N   UNL     1       2.159   1.454  18.467  0.00  0.00    +0.000 N 
ATOM     28  N   UNL     1       3.988   2.838  18.768  0.00  0.00    +0.000 NA
ATOM     29  H   UNL     1       6.309   3.466  18.676  0.00  0.00    +0.000 HD
ATOM     30  H   UNL     1       2.210   6.043  21.343  0.00  0.00    +0.000 HD
ATOM     31  H   UNL     1       0.871   4.969  21.181  0.00  0.00    +0.000 HD
ATOM     32  H   UNL     1       1.168   1.593  18.319  0.00  0.00    +0.000 HD
ATOM     33  H   UNL     1       2.701   1.162  17.666  0.00  0.00    +0.000 HD
ENDBRANCH  19  20
ENDBRANCH  18  19
ENDBRANCH   1  18
TORSDOF 12
ENDMDL
MODEL 2
REMARK VINA RESULT:      -6.6      2.226      4.196
REMARK  Name = 
REMARK  12 active torsions:
REMARK  status: ('A' for Active; 'I' for Inactive)
REMARK    1  A    between atoms: N_1  and  C_2
REMARK    2  A    between atoms: C_2  and  C_3
REMARK    3  A    between atoms: C_3  and  C_4
REMARK    4  A    between atoms: C_4  and  C_5
REMARK    5  A    between atoms: C_5  and  N_6
REMARK    6  A    between atoms: C_5  and  C_7
REMARK    7  A    between atoms: C_5  and  C_22
REMARK    8  A    between atoms: C_7  and  O_9
REMARK    9  A    between atoms: O_9  and  C_10
REMARK   10  A    between atoms: C_10  and  C_11
REMARK   11  A    between atoms: C_11  and  C_12
REMARK   12  A    between atoms: C_12  and  N_13
REMARK                            x       y       z     vdW  Elec       q    Type
REMARK                         _______ _______ _______ _____ _____    ______ ____
ROOT
ATOM      1  C   UNL     1       3.909   7.490  17.719  0.00  0.00    +0.000 C 
ENDROOT
BRANCH   1   2
ATOM      2  O   UNL     1       4.649   6.277  17.509  0.00  0.00    +0.000 OA
BRANCH   2   3
ATOM      3  C   UNL     1       5.225   6.146  16.276  0.00  0.00    +0.000 C 
ATOM      4  O   UNL     1       5.257   7.039  15.436  0.00  0.00    +0.000 OA
BRANCH   3   5
ATOM      5  C   UNL     1       5.944   4.799  16.122  0.00  0.00    +0.000 C 
BRANCH   5   6
ATOM      6  N   UNL     1       5.183   3.712  16.823  0.00  0.00    +0.000 NA
ATOM      7  H   UNL     1       5.832   2.995  17.144  0.00  0.00    +0.000 HD
ATOM      8  H   UNL     1       4.544   3.271  16.158  0.00  0.00    +0.000 HD
ENDBRANCH   5   6
BRANCH   5   9
ATOM      9  C   UNL     1       6.035   4.531  14.605  0.00  0.00    +0.000 C 
ATOM     10  F   UNL     1       6.802   3.426  14.381  0.00  0.00    +0.000 F 
ATOM     11  F   UNL     1       4.807   4.246  14.085  0.00  0.00    +0.000 F 
ENDBRANCH   5   9
BRANCH   5  12
ATOM     12  C   UNL     1       7.345   4.898  16.782  0.00  0.00    +0.000 C 
BRANCH  12  13
ATOM     13  C   UNL     1       7.543   6.114  17.703  0.00  0.00    +0.000 C 
BRANCH  13  14
ATOM     14  C   UNL     1       7.663   5.738  19.181  0.00  0.00    +0.000 C 
BRANCH  14  15
ATOM     15  N   UNL     1       6.442   5.109  19.666  0.00  0.00    +0.000 NA
ATOM     16  H   UNL     1       6.651   4.164  19.986  0.00  0.00    +0.000 HD
ATOM     17  H   UNL     1       5.775   5.006  18.901  0.00  0.00    +0.000 HD
ENDBRANCH  14  15
ENDBRANCH  13  14
ENDBRANCH  12  13
ENDBRANCH   5  12
ENDBRANCH   3   5
ENDBRANCH   2   3
ENDBRANCH   1   2
BRANCH   1  18
ATOM     18  C   UNL     1       2.445   7.204  18.049  0.00  0.00    +0.000 C 
BRANCH  18  19
ATOM     19  C   UNL     1       2.106   5.734  17.811  0.00  0.00    +0.000 C 
BRANCH  19  20
ATOM     20  N   UNL     1       1.459   5.138  18.956  0.00  0.00    +0.000 N 
ATOM     21  C   UNL     1       2.056   4.120  19.662  0.00  0.00    +0.000 A 
ATOM     22  N   UNL     1       3.278   3.721  19.340  0.00  0.00    +0.000 NA
ATOM     23  C   UNL     1       3.797   2.782  20.110  0.00  0.00    +0.000 A 
ATOM     24  N   UNL     1       5.070   2.341  19.804  0.00  0.00    +0.000 N 
ATOM     25  N   UNL     1       3.185   2.224  21.140  0.00  0.00    +0.000 NA
ATOM     26  C   UNL     1       1.968   2.681  21.372  0.00  0.00    +0.000 A 
ATOM     27  N   UNL     1       1.304   2.182  22.480  0.00  0.00    +0.000 N 
ATOM     28  N   UNL     1       1.355   3.619  20.667  0.00  0.00    +0.000 NA
ATOM     29  H   UNL     1       0.462   5.202  19.091  0.00  0.00    +0.000 HD
ATOM     30  H   UNL     1       5.289   2.522  18.829  0.00  0.00    +0.000 HD
ATOM     31  H   UNL     1       5.211   1.399  20.135  0.00  0.00    +0.000 HD
ATOM     32  H   UNL     1       1.984   1.839  23.146  0.00  0.00    +0.000 HD
ATOM     33  H   UNL     1       0.645   2.871  22.816  0.00  0.00    +0.000 HD
ENDBRANCH  19  20
ENDBRANCH  18  19
ENDBRANCH   1  18
TORSDOF 12
ENDMDL
MODEL 3
REMARK VINA RESULT:      -6.6      2.677      6.177
REMARK  Name = 
REMARK  12 active torsions:
REMARK  status: ('A' for Active; 'I' for Inactive)
REMARK    1  A    between atoms: N_1  and  C_2
REMARK    2  A    between atoms: C_2  and  C_3
REMARK    3  A    between atoms: C_3  and  C_4
REMARK    4  A    between atoms: C_4  and  C_5
REMARK    5  A    between atoms: C_5  and  N_6
REMARK    6  A    between atoms: C_5  and  C_7
REMARK    7  A    between atoms: C_5  and  C_22
REMARK    8  A    between atoms: C_7  and  O_9
REMARK    9  A    between atoms: O_9  and  C_10
REMARK   10  A    between atoms: C_10  and  C_11
REMARK   11  A    between atoms: C_11  and  C_12
REMARK   12  A    between atoms: C_12  and  N_13
REMARK                            x       y       z     vdW  Elec       q    Type
REMARK                         _______ _______ _______ _____ _____    ______ ____
ROOT
ATOM      1  C   UNL     1       4.096   3.330  16.280  0.00  0.00    +0.000 C 
ENDROOT
BRANCH   1   2
ATOM      2  O   UNL     1       4.077   3.958  17.571  0.00  0.00    +0.000 OA
BRANCH   2   3
ATOM      3  C   UNL     1       2.958   4.692  17.852  0.00  0.00    +0.000 C 
ATOM      4  O   UNL     1       1.843   4.439  17.406  0.00  0.00    +0.000 OA
BRANCH   3   5
ATOM      5  C   UNL     1       3.236   5.780  18.897  0.00  0.00    +0.000 C 
BRANCH   5   6
ATOM      6  N   UNL     1       4.542   5.524  19.590  0.00  0.00    +0.000 NA
ATOM      7  H   UNL     1       5.194   5.090  18.938  0.00  0.00    +0.000 HD
ATOM      8  H   UNL     1       4.389   4.862  20.354  0.00  0.00    +0.000 HD
ENDBRANCH   5   6
BRANCH   5   9
ATOM      9  C   UNL     1       3.261   7.118  18.129  0.00  0.00    +0.000 C 
ATOM     10  F   UNL     1       3.985   6.973  16.982  0.00  0.00    +0.000 F 
ATOM     11  F   UNL     1       2.006   7.477  17.735  0.00  0.00    +0.000 F 
ENDBRANCH   5   9
BRANCH   5  12
ATOM     12  C   UNL     1       2.115   5.746  19.971  0.00  0.00    +0.000 C 
BRANCH  12  13
ATOM     13  C   UNL     1       2.388   4.809  21.161  0.00  0.00    +0.000 C 
BRANCH  13  14
ATOM     14  C   UNL     1       1.530   3.543  21.140  0.00  0.00    +0.000 C 
BRANCH  14  15
ATOM     15  N   UNL     1       2.149   2.473  21.909  0.00  0.00    +0.000 NA
ATOM     16  H   UNL     1       1.509   1.680  21.965  0.00  0.00    +0.000 HD
ATOM     17  H   UNL     1       2.303   2.777  22.871  0.00  0.00    +0.000 HD
ENDBRANCH  14  15
ENDBRANCH  13  14
ENDBRANCH  12  13
ENDBRANCH   5  12
ENDBRANCH   3   5
ENDBRANCH   2   3
ENDBRANCH   1   2
BRANCH   1  18
ATOM     18  C   UNL     1       4.686   4.254  15.215  0.00  0.00    +0.000 C 
BRANCH  18  19
ATOM     19  C   UNL     1       6.212   4.190  15.219  0.00  0.00    +0.000 C 
BRANCH  19  20
ATOM     20  N   UNL     1       6.736   3.920  16.537  0.00  0.00    +0.000 N 
ATOM     21  C   UNL     1       7.245   4.928  17.322  0.00  0.00    +0.000 A 
ATOM     22  N   UNL     1       7.192   6.183  16.901  0.00  0.00    +0.000 NA
ATOM     23  C   UNL     1       7.647   7.091  17.745  0.00  0.00    +0.000 A 
ATOM     24  N   UNL     1       7.607   8.411  17.340  0.00  0.00    +0.000 N 
ATOM     25  N   UNL     1       8.150   6.831  18.939  0.00  0.00    +0.000 NA
ATOM     26  C   UNL     1       8.170   5.549  19.261  0.00  0.00    +0.000 A 
ATOM     27  N   UNL     1       8.624   5.221  20.528  0.00  0.00    +0.000 N 
ATOM     28  N   UNL     1       7.739   4.560  18.494  0.00  0.00    +0.000 NA
ATOM     29  H   UNL     1       7.042   2.997  16.804  0.00  0.00    +0.000 HD
ATOM     30  H   UNL     1       7.583   8.477  16.327  0.00  0.00    +0.000 HD
ATOM     31  H   UNL     1       8.315   8.952  17.814  0.00  0.00    +0.000 HD
ATOM     32  H   UNL     1       8.508   6.020  21.137  0.00  0.00    +0.000 HD
ATOM     33  H   UNL     1       8.193   4.357  20.826  0.00  0.00    +0.000 HD
ENDBRANCH  19  20
ENDBRANCH  18  19
ENDBRANCH   1  18
TORSDOF 12
ENDMDL
MODEL 4
REMARK VINA RESULT:      -6.4      2.694      6.550
REMARK  Name = 
REMARK  12 active torsions:
REMARK  status: ('A' for Active; 'I' for Inactive)
REMARK    1  A    between atoms: N_1  and  C_2
REMARK    2  A    between atoms: C_2  and  C_3
REMARK    3  A    between atoms: C_3  and  C_4
REMARK    4  A    between atoms: C_4  and  C_5
REMARK    5  A    between atoms: C_5  and  N_6
REMARK    6  A    between atoms: C_5  and  C_7
REMARK    7  A    between atoms: C_5  and  C_22
REMARK    8  A    between atoms: C_7  and  O_9
REMARK    9  A    between atoms: O_9  and  C_10
REMARK   10  A    between atoms: C_10  and  C_11
REMARK   11  A    between atoms: C_11  and  C_12
REMARK   12  A    between atoms: C_12  and  N_13
REMARK                            x       y       z     vdW  Elec       q    Type
REMARK                         _______ _______ _______ _____ _____    ______ ____
ROOT
ATOM      1  C   UNL     1       5.091   6.720  16.971  0.00  0.00    +0.000 C 
ENDROOT
BRANCH   1   2
ATOM      2  O   UNL     1       4.147   5.651  16.803  0.00  0.00    +0.000 OA
BRANCH   2   3
ATOM      3  C   UNL     1       3.194   5.549  17.779  0.00  0.00    +0.000 C 
ATOM      4  O   UNL     1       2.500   6.485  18.159  0.00  0.00    +0.000 OA
BRANCH   3   5
ATOM      5  C   UNL     1       3.004   4.098  18.241  0.00  0.00    +0.000 C 
BRANCH   5   6
ATOM      6  N   UNL     1       3.326   3.144  17.128  0.00  0.00    +0.000 NA
ATOM      7  H   UNL     1       2.848   3.439  16.277  0.00  0.00    +0.000 HD
ATOM      8  H   UNL     1       2.970   2.217  17.371  0.00  0.00    +0.000 HD
ENDBRANCH   5   6
BRANCH   5   9
ATOM      9  C   UNL     1       3.953   3.901  19.442  0.00  0.00    +0.000 C 
ATOM     10  F   UNL     1       5.175   3.490  18.996  0.00  0.00    +0.000 F 
ATOM     11  F   UNL     1       4.169   5.080  20.091  0.00  0.00    +0.000 F 
ENDBRANCH   5   9
BRANCH   5  12
ATOM     12  C   UNL     1       1.517   3.884  18.632  0.00  0.00    +0.000 C 
BRANCH  12  13
ATOM     13  C   UNL     1       1.271   2.756  19.649  0.00  0.00    +0.000 C 
BRANCH  13  14
ATOM     14  C   UNL     1       1.104   3.263  21.083  0.00  0.00    +0.000 C 
BRANCH  14  15
ATOM     15  N   UNL     1       1.855   2.444  22.023  0.00  0.00    +0.000 NA
ATOM     16  H   UNL     1       1.823   2.873  22.948  0.00  0.00    +0.000 HD
ATOM     17  H   UNL     1       2.840   2.422  21.758  0.00  0.00    +0.000 HD
ENDBRANCH  14  15
ENDBRANCH  13  14
ENDBRANCH  12  13
ENDBRANCH   5  12
ENDBRANCH   3   5
ENDBRANCH   2   3
ENDBRANCH   1   2
BRANCH   1  18
ATOM     18  C   UNL     1       6.253   6.304  17.873  0.00  0.00    +0.000 C 
BRANCH  18  19
ATOM     19  C   UNL     1       7.278   5.476  17.100  0.00  0.00    +0.000 C 
BRANCH  19  20
ATOM     20  N   UNL     1       6.645   4.504  16.239  0.00  0.00    +0.000 N 
ATOM     21  C   UNL     1       6.832   4.531  14.877  0.00  0.00    +0.000 A 
ATOM     22  N   UNL     1       7.663   5.413  14.341  0.00  0.00    +0.000 NA
ATOM     23  C   UNL     1       7.828   5.326  13.033  0.00  0.00    +0.000 A 
ATOM     24  N   UNL     1       8.687   6.230  12.441  0.00  0.00    +0.000 N 
ATOM     25  N   UNL     1       7.224   4.450  12.251  0.00  0.00    +0.000 NA
ATOM     26  C   UNL     1       6.407   3.622  12.878  0.00  0.00    +0.000 A 
ATOM     27  N   UNL     1       5.797   2.638  12.118  0.00  0.00    +0.000 N 
ATOM     28  N   UNL     1       6.170   3.620  14.180  0.00  0.00    +0.000 NA
ATOM     29  H   UNL     1       5.826   3.994  16.531  0.00  0.00    +0.000 HD
ATOM     30  H   UNL     1       8.789   7.062  13.015  0.00  0.00    +0.000 HD
ATOM     31  H   UNL     1       8.444   6.373  11.472  0.00  0.00    +0.000 HD
ATOM     32  H   UNL     1       6.354   2.464  11.292  0.00  0.00    +0.000 HD
ATOM     33  H   UNL     1       5.592   1.839  12.704  0.00  0.00    +0.000 HD
ENDBRANCH  19  20
ENDBRANCH  18  19
ENDBRANCH   1  18
TORSDOF 12
ENDMDL
MODEL 5
REMARK VINA RESULT:      -6.4      2.782      6.215
REMARK  Name = 
REMARK  12 active torsions:
REMARK  status: ('A' for Active; 'I' for Inactive)
REMARK    1  A    between atoms: N_1  and  C_2
REMARK    2  A    between atoms: C_2  and  C_3
REMARK    3  A    between atoms: C_3  and  C_4
REMARK    4  A    between atoms: C_4  and  C_5
REMARK    5  A    between atoms: C_5  and  N_6
REMARK    6  A    between atoms: C_5  and  C_7
REMARK    7  A    between atoms: C_5  and  C_22
REMARK    8  A    between atoms: C_7  and  O_9
REMARK    9  A    between atoms: O_9  and  C_10
REMARK   10  A    between atoms: C_10  and  C_11
REMARK   11  A    between atoms: C_11  and  C_12
REMARK   12  A    between atoms: C_12  and  N_13
REMARK                            x       y       z     vdW  Elec       q    Type
REMARK                         _______ _______ _______ _____ _____    ______ ____
ROOT
ATOM      1  C   UNL     1       6.547   5.263  19.371  0.00  0.00    +0.000 C 
ENDROOT
BRANCH   1   2
ATOM      2  O   UNL     1       5.222   4.921  18.933  0.00  0.00    +0.000 OA
BRANCH   2   3
ATOM      3  C   UNL     1       4.857   3.617  19.126  0.00  0.00    +0.000 C 
ATOM      4  O   UNL     1       5.156   2.962  20.118  0.00  0.00    +0.000 OA
BRANCH   3   5
ATOM      5  C   UNL     1       3.917   3.118  18.021  0.00  0.00    +0.000 C 
BRANCH   5   6
ATOM      6  N   UNL     1       4.704   2.589  16.858  0.00  0.00    +0.000 NA
ATOM      7  H   UNL     1       4.360   1.663  16.607  0.00  0.00    +0.000 HD
ATOM      8  H   UNL     1       5.682   2.485  17.138  0.00  0.00    +0.000 HD
ENDBRANCH   5   6
BRANCH   5   9
ATOM      9  C   UNL     1       3.049   2.014  18.661  0.00  0.00    +0.000 C 
ATOM     10  F   UNL     1       1.866   1.916  17.990  0.00  0.00    +0.000 F 
ATOM     11  F   UNL     1       3.648   0.795  18.544  0.00  0.00    +0.000 F 
ENDBRANCH   5   9
BRANCH   5  12
ATOM     12  C   UNL     1       3.062   4.309  17.511  0.00  0.00    +0.000 C 
BRANCH  12  13
ATOM     13  C   UNL     1       2.400   5.150  18.616  0.00  0.00    +0.000 C 
BRANCH  13  14
ATOM     14  C   UNL     1       2.224   6.620  18.230  0.00  0.00    +0.000 C 
BRANCH  14  15
ATOM     15  N   UNL     1       3.509   7.256  17.975  0.00  0.00    +0.000 NA
ATOM     16  H   UNL     1       4.159   6.567  17.597  0.00  0.00    +0.000 HD
ATOM     17  H   UNL     1       3.919   7.578  18.851  0.00  0.00    +0.000 HD
ENDBRANCH  14  15
ENDBRANCH  13  14
ENDBRANCH  12  13
ENDBRANCH   5  12
ENDBRANCH   3   5
ENDBRANCH   2   3
ENDBRANCH   1   2
BRANCH   1  18
ATOM     18  C   UNL     1       7.554   5.187  18.224  0.00  0.00    +0.000 C 
BRANCH  18  19
ATOM     19  C   UNL     1       6.968   5.770  16.940  0.00  0.00    +0.000 C 
BRANCH  19  20
ATOM     20  N   UNL     1       6.398   4.746  16.095  0.00  0.00    +0.000 N 
ATOM     21  C   UNL     1       6.698   4.680  14.755  0.00  0.00    +0.000 A 
ATOM     22  N   UNL     1       7.579   5.520  14.233  0.00  0.00    +0.000 NA
ATOM     23  C   UNL     1       7.852   5.345  12.953  0.00  0.00    +0.000 A 
ATOM     24  N   UNL     1       8.767   6.203  12.375  0.00  0.00    +0.000 N 
ATOM     25  N   UNL     1       7.305   4.422  12.182  0.00  0.00    +0.000 NA
ATOM     26  C   UNL     1       6.430   3.642  12.792  0.00  0.00    +0.000 A 
ATOM     27  N   UNL     1       5.875   2.612  12.051  0.00  0.00    +0.000 N 
ATOM     28  N   UNL     1       6.086   3.728  14.067  0.00  0.00    +0.000 NA
ATOM     29  H   UNL     1       5.553   4.260  16.352  0.00  0.00    +0.000 HD
ATOM     30  H   UNL     1       8.829   7.071  12.900  0.00  0.00    +0.000 HD
ATOM     31  H   UNL     1       8.607   6.282  11.382  0.00  0.00    +0.000 HD
ATOM     32  H   UNL     1       6.497   2.381  11.288  0.00  0.00    +0.000 HD
ATOM     33  H   UNL     1       5.613   1.856  12.669  0.00  0.00    +0.000 HD
ENDBRANCH  19  20
ENDBRANCH  18  19
ENDBRANCH   1  18
TORSDOF 12
ENDMDL
MODEL 6
REMARK VINA RESULT:      -6.3      3.037      6.383
REMARK  Name = 
REMARK  12 active torsions:
REMARK  status: ('A' for Active; 'I' for Inactive)
REMARK    1  A    between atoms: N_1  and  C_2
REMARK    2  A    between atoms: C_2  and  C_3
REMARK    3  A    between atoms: C_3  and  C_4
REMARK    4  A    between atoms: C_4  and  C_5
REMARK    5  A    between atoms: C_5  and  N_6
REMARK    6  A    between atoms: C_5  and  C_7
REMARK    7  A    between atoms: C_5  and  C_22
REMARK    8  A    between atoms: C_7  and  O_9
REMARK    9  A    between atoms: O_9  and  C_10
REMARK   10  A    between atoms: C_10  and  C_11
REMARK   11  A    between atoms: C_11  and  C_12
REMARK   12  A    between atoms: C_12  and  N_13
REMARK                            x       y       z     vdW  Elec       q    Type
REMARK                         _______ _______ _______ _____ _____    ______ ____
ROOT
ATOM      1  C   UNL     1       4.343   4.344  15.594  0.00  0.00    +0.000 C 
ENDROOT
BRANCH   1   2
ATOM      2  O   UNL     1       4.143   4.999  16.856  0.00  0.00    +0.000 OA
BRANCH   2   3
ATOM      3  C   UNL     1       3.765   4.184  17.888  0.00  0.00    +0.000 C 
ATOM      4  O   UNL     1       4.508   3.371  18.427  0.00  0.00    +0.000 OA
BRANCH   3   5
ATOM      5  C   UNL     1       2.347   4.506  18.379  0.00  0.00    +0.000 C 
BRANCH   5   6
ATOM      6  N   UNL     1       1.323   3.955  17.430  0.00  0.00    +0.000 NA
ATOM      7  H   UNL     1       1.152   2.974  17.645  0.00  0.00    +0.000 HD
ATOM      8  H   UNL     1       1.694   3.999  16.478  0.00  0.00    +0.000 HD
ENDBRANCH   5   6
BRANCH   5   9
ATOM      9  C   UNL     1       2.220   3.864  19.777  0.00  0.00    +0.000 C 
ATOM     10  F   UNL     1       0.991   4.141  20.297  0.00  0.00    +0.000 F 
ATOM     11  F   UNL     1       2.295   2.505  19.697  0.00  0.00    +0.000 F 
ENDBRANCH   5   9
BRANCH   5  12
ATOM     12  C   UNL     1       2.168   6.047  18.427  0.00  0.00    +0.000 C 
BRANCH  12  13
ATOM     13  C   UNL     1       2.569   6.704  19.759  0.00  0.00    +0.000 C 
BRANCH  13  14
ATOM     14  C   UNL     1       1.652   7.861  20.160  0.00  0.00    +0.000 C 
BRANCH  14  15
ATOM     15  N   UNL     1       1.726   8.120  21.591  0.00  0.00    +0.000 NA
ATOM     16  H   UNL     1       0.982   8.765  21.858  0.00  0.00    +0.000 HD
ATOM     17  H   UNL     1       2.602   8.594  21.815  0.00  0.00    +0.000 HD
ENDBRANCH  14  15
ENDBRANCH  13  14
ENDBRANCH  12  13
ENDBRANCH   5  12
ENDBRANCH   3   5
ENDBRANCH   2   3
ENDBRANCH   1   2
BRANCH   1  18
ATOM     18  C   UNL     1       5.448   5.018  14.781  0.00  0.00    +0.000 C 
BRANCH  18  19
ATOM     19  C   UNL     1       6.772   4.273  14.934  0.00  0.00    +0.000 C 
BRANCH  19  20
ATOM     20  N   UNL     1       7.079   3.999  16.318  0.00  0.00    +0.000 N 
ATOM     21  C   UNL     1       7.446   5.005  17.179  0.00  0.00    +0.000 A 
ATOM     22  N   UNL     1       7.452   6.263  16.762  0.00  0.00    +0.000 NA
ATOM     23  C   UNL     1       7.757   7.169  17.672  0.00  0.00    +0.000 A 
ATOM     24  N   UNL     1       7.772   8.491  17.273  0.00  0.00    +0.000 N 
ATOM     25  N   UNL     1       8.062   6.905  18.930  0.00  0.00    +0.000 NA
ATOM     26  C   UNL     1       8.041   5.622  19.245  0.00  0.00    +0.000 A 
ATOM     27  N   UNL     1       8.287   5.290  20.567  0.00  0.00    +0.000 N 
ATOM     28  N   UNL     1       7.747   4.634  18.414  0.00  0.00    +0.000 NA
ATOM     29  H   UNL     1       7.345   3.076  16.627  0.00  0.00    +0.000 HD
ATOM     30  H   UNL     1       7.911   8.563  16.269  0.00  0.00    +0.000 HD
ATOM     31  H   UNL     1       8.389   9.035  17.857  0.00  0.00    +0.000 HD
ATOM     32  H   UNL     1       8.068   6.084  21.154  0.00  0.00    +0.000 HD
ATOM     33  H   UNL     1       7.822   4.420  20.787  0.00  0.00    +0.000 HD
ENDBRANCH  19  20
ENDBRANCH  18  19
ENDBRANCH   1  18
TORSDOF 12
ENDMDL
MODEL 7
REMARK VINA RESULT:      -6.3      3.557      6.104
REMARK  Name = 
REMARK  12 active torsions:
REMARK  status: ('A' for Active; 'I' for Inactive)
REMARK    1  A    between atoms: N_1  and  C_2
REMARK    2  A    between atoms: C_2  and  C_3
REMARK    3  A    between atoms: C_3  and  C_4
REMARK    4  A    between atoms: C_4  and  C_5
REMARK    5  A    between atoms: C_5  and  N_6
REMARK    6  A    between atoms: C_5  and  C_7
REMARK    7  A    between atoms: C_5  and  C_22
REMARK    8  A    between atoms: C_7  and  O_9
REMARK    9  A    between atoms: O_9  and  C_10
REMARK   10  A    between atoms: C_10  and  C_11
REMARK   11  A    between atoms: C_11  and  C_12
REMARK   12  A    between atoms: C_12  and  N_13
REMARK                            x       y       z     vdW  Elec       q    Type
REMARK                         _______ _______ _______ _____ _____    ______ ____
ROOT
ATOM      1  C   UNL     1       2.225   7.107  19.909  0.00  0.00    +0.000 C 
ENDROOT
BRANCH   1   2
ATOM      2  O   UNL     1       2.058   5.749  20.345  0.00  0.00    +0.000 OA
BRANCH   2   3
ATOM      3  C   UNL     1       3.090   4.904  20.044  0.00  0.00    +0.000 C 
ATOM      4  O   UNL     1       4.254   5.265  19.905  0.00  0.00    +0.000 OA
BRANCH   3   5
ATOM      5  C   UNL     1       2.643   3.436  20.039  0.00  0.00    +0.000 C 
BRANCH   5   6
ATOM      6  N   UNL     1       3.773   2.539  20.455  0.00  0.00    +0.000 NA
ATOM      7  H   UNL     1       3.492   1.992  21.267  0.00  0.00    +0.000 HD
ATOM      8  H   UNL     1       4.569   3.116  20.737  0.00  0.00    +0.000 HD
ENDBRANCH   5   6
BRANCH   5   9
ATOM      9  C   UNL     1       1.460   3.343  21.026  0.00  0.00    +0.000 C 
ATOM     10  F   UNL     1       0.307   3.107  20.337  0.00  0.00    +0.000 F 
ATOM     11  F   UNL     1       1.613   2.285  21.872  0.00  0.00    +0.000 F 
ENDBRANCH   5   9
BRANCH   5  12
ATOM     12  C   UNL     1       2.231   3.039  18.596  0.00  0.00    +0.000 C 
BRANCH  12  13
ATOM     13  C   UNL     1       3.320   2.312  17.789  0.00  0.00    +0.000 C 
BRANCH  13  14
ATOM     14  C   UNL     1       4.218   3.263  16.995  0.00  0.00    +0.000 C 
BRANCH  14  15
ATOM     15  N   UNL     1       5.432   3.581  17.732  0.00  0.00    +0.000 NA
ATOM     16  H   UNL     1       5.609   2.853  18.425  0.00  0.00    +0.000 HD
ATOM     17  H   UNL     1       5.305   4.445  18.259  0.00  0.00    +0.000 HD
ENDBRANCH  14  15
ENDBRANCH  13  14
ENDBRANCH  12  13
ENDBRANCH   5  12
ENDBRANCH   3   5
ENDBRANCH   2   3
ENDBRANCH   1   2
BRANCH   1  18
ATOM     18  C   UNL     1       2.058   7.235  18.395  0.00  0.00    +0.000 C 
BRANCH  18  19
ATOM     19  C   UNL     1       3.267   7.923  17.765  0.00  0.00    +0.000 C 
BRANCH  19  20
ATOM     20  N   UNL     1       3.766   7.196  16.622  0.00  0.00    +0.000 N 
ATOM     21  C   UNL     1       5.078   6.792  16.552  0.00  0.00    +0.000 A 
ATOM     22  N   UNL     1       5.891   7.004  17.577  0.00  0.00    +0.000 NA
ATOM     23  C   UNL     1       7.116   6.528  17.448  0.00  0.00    +0.000 A 
ATOM     24  N   UNL     1       7.990   6.731  18.497  0.00  0.00    +0.000 N 
ATOM     25  N   UNL     1       7.570   5.887  16.385  0.00  0.00    +0.000 NA
ATOM     26  C   UNL     1       6.688   5.737  15.413  0.00  0.00    +0.000 A 
ATOM     27  N   UNL     1       7.088   5.013  14.302  0.00  0.00    +0.000 N 
ATOM     28  N   UNL     1       5.438   6.171  15.439  0.00  0.00    +0.000 NA
ATOM     29  H   UNL     1       3.298   7.231  15.729  0.00  0.00    +0.000 HD
ATOM     30  H   UNL     1       7.700   7.525  19.061  0.00  0.00    +0.000 HD
ATOM     31  H   UNL     1       8.945   6.729  18.173  0.00  0.00    +0.000 HD
ATOM     32  H   UNL     1       7.845   4.396  14.564  0.00  0.00    +0.000 HD
ATOM     33  H   UNL     1       6.280   4.584  13.872  0.00  0.00    +0.000 HD
ENDBRANCH  19  20
ENDBRANCH  18  19
ENDBRANCH   1  18
TORSDOF 12
ENDMDL
MODEL 8
REMARK VINA RESULT:      -6.2      3.478      5.003
REMARK  Name = 
REMARK  12 active torsions:
REMARK  status: ('A' for Active; 'I' for Inactive)
REMARK    1  A    between atoms: N_1  and  C_2
REMARK    2  A    between atoms: C_2  and  C_3
REMARK    3  A    between atoms: C_3  and  C_4
REMARK    4  A    between atoms: C_4  and  C_5
REMARK    5  A    between atoms: C_5  and  N_6
REMARK    6  A    between atoms: C_5  and  C_7
REMARK    7  A    between atoms: C_5  and  C_22
REMARK    8  A    between atoms: C_7  and  O_9
REMARK    9  A    between atoms: O_9  and  C_10
REMARK   10  A    between atoms: C_10  and  C_11
REMARK   11  A    between atoms: C_11  and  C_12
REMARK   12  A    between atoms: C_12  and  N_13
REMARK                            x       y       z     vdW  Elec       q    Type
REMARK                         _______ _______ _______ _____ _____    ______ ____
ROOT
ATOM      1  C   UNL     1       3.919   4.601  18.557  0.00  0.00    +0.000 C 
ENDROOT
BRANCH   1   2
ATOM      2  O   UNL     1       5.075   5.426  18.771  0.00  0.00    +0.000 OA
BRANCH   2   3
ATOM      3  C   UNL     1       5.525   6.106  17.673  0.00  0.00    +0.000 C 
ATOM      4  O   UNL     1       4.818   6.828  16.978  0.00  0.00    +0.000 OA
BRANCH   3   5
ATOM      5  C   UNL     1       7.043   5.967  17.497  0.00  0.00    +0.000 C 
BRANCH   5   6
ATOM      6  N   UNL     1       7.575   7.069  16.628  0.00  0.00    +0.000 NA
ATOM      7  H   UNL     1       7.714   7.908  17.188  0.00  0.00    +0.000 HD
ATOM      8  H   UNL     1       6.881   7.291  15.911  0.00  0.00    +0.000 HD
ENDBRANCH   5   6
BRANCH   5   9
ATOM      9  C   UNL     1       7.648   6.029  18.916  0.00  0.00    +0.000 C 
ATOM     10  F   UNL     1       8.411   4.921  19.136  0.00  0.00    +0.000 F 
ATOM     11  F   UNL     1       8.490   7.094  19.040  0.00  0.00    +0.000 F 
ENDBRANCH   5   9
BRANCH   5  12
ATOM     12  C   UNL     1       7.348   4.618  16.792  0.00  0.00    +0.000 C 
BRANCH  12  13
ATOM     13  C   UNL     1       6.257   4.135  15.821  0.00  0.00    +0.000 C 
BRANCH  13  14
ATOM     14  C   UNL     1       6.545   4.498  14.363  0.00  0.00    +0.000 C 
BRANCH  14  15
ATOM     15  N   UNL     1       7.747   5.312  14.250  0.00  0.00    +0.000 NA
ATOM     16  H   UNL     1       8.384   5.084  15.013  0.00  0.00    +0.000 HD
ATOM     17  H   UNL     1       7.513   6.298  14.364  0.00  0.00    +0.000 HD
ENDBRANCH  14  15
ENDBRANCH  13  14
ENDBRANCH  12  13
ENDBRANCH   5  12
ENDBRANCH   3   5
ENDBRANCH   2   3
ENDBRANCH   1   2
BRANCH   1  18
ATOM     18  C   UNL     1       3.192   4.304  19.868  0.00  0.00    +0.000 C 
BRANCH  18  19
ATOM     19  C   UNL     1       2.448   5.539  20.374  0.00  0.00    +0.000 C 
BRANCH  19  20
ATOM     20  N   UNL     1       2.388   6.578  19.374  0.00  0.00    +0.000 N 
ATOM     21  C   UNL     1       1.847   7.810  19.657  0.00  0.00    +0.000 A 
ATOM     22  N   UNL     1       1.437   8.084  20.887  0.00  0.00    +0.000 NA
ATOM     23  C   UNL     1       0.989   9.311  21.084  0.00  0.00    +0.000 A 
ATOM     24  N   UNL     1       0.554   9.632  22.355  0.00  0.00    +0.000 N 
ATOM     25  N   UNL     1       0.913  10.247  20.155  0.00  0.00    +0.000 NA
ATOM     26  C   UNL     1       1.334   9.872  18.959  0.00  0.00    +0.000 A 
ATOM     27  N   UNL     1       1.341  10.832  17.961  0.00  0.00    +0.000 N 
ATOM     28  N   UNL     1       1.803   8.673  18.654  0.00  0.00    +0.000 NA
ATOM     29  H   UNL     1       2.432   6.366  18.389  0.00  0.00    +0.000 HD
ATOM     30  H   UNL     1       0.290   8.796  22.868  0.00  0.00    +0.000 HD
ATOM     31  H   UNL     1      -0.124  10.379  22.323  0.00  0.00    +0.000 HD
ATOM     32  H   UNL     1       1.389  11.750  18.384  0.00  0.00    +0.000 HD
ATOM     33  H   UNL     1       2.057  10.607  17.283  0.00  0.00    +0.000 HD
ENDBRANCH  19  20
ENDBRANCH  18  19
ENDBRANCH   1  18
TORSDOF 12
ENDMDL
MODEL 9
REMARK VINA RESULT:      -6.2      3.140      6.565
REMARK  Name = 
REMARK  12 active torsions:
REMARK  status: ('A' for Active; 'I' for Inactive)
REMARK    1  A    between atoms: N_1  and  C_2
REMARK    2  A    between atoms: C_2  and  C_3
REMARK    3  A    between atoms: C_3  and  C_4
REMARK    4  A    between atoms: C_4  and  C_5
REMARK    5  A    between atoms: C_5  and  N_6
REMARK    6  A    between atoms: C_5  and  C_7
REMARK    7  A    between atoms: C_5  and  C_22
REMARK    8  A    between atoms: C_7  and  O_9
REMARK    9  A    between atoms: O_9  and  C_10
REMARK   10  A    between atoms: C_10  and  C_11
REMARK   11  A    between atoms: C_11  and  C_12
REMARK   12  A    between atoms: C_12  and  N_13
REMARK                            x       y       z     vdW  Elec       q    Type
REMARK                         _______ _______ _______ _____ _____    ______ ____
ROOT
ATOM      1  C   UNL     1       4.169   4.460  16.526  0.00  0.00    +0.000 C 
ENDROOT
BRANCH   1   2
ATOM      2  O   UNL     1       3.217   3.440  16.865  0.00  0.00    +0.000 OA
BRANCH   2   3
ATOM      3  C   UNL     1       2.158   3.853  17.626  0.00  0.00    +0.000 C 
ATOM      4  O   UNL     1       1.105   4.278  17.162  0.00  0.00    +0.000 OA
BRANCH   3   5
ATOM      5  C   UNL     1       2.391   3.591  19.120  0.00  0.00    +0.000 C 
BRANCH   5   6
ATOM      6  N   UNL     1       1.085   3.390  19.831  0.00  0.00    +0.000 NA
ATOM      7  H   UNL     1       0.348   3.892  19.336  0.00  0.00    +0.000 HD
ATOM      8  H   UNL     1       1.151   3.792  20.768  0.00  0.00    +0.000 HD
ENDBRANCH   5   6
BRANCH   5   9
ATOM      9  C   UNL     1       3.275   2.328  19.202  0.00  0.00    +0.000 C 
ATOM     10  F   UNL     1       3.762   2.193  20.469  0.00  0.00    +0.000 F 
ATOM     11  F   UNL     1       2.542   1.204  18.962  0.00  0.00    +0.000 F 
ENDBRANCH   5   9
BRANCH   5  12
ATOM     12  C   UNL     1       3.085   4.830  19.746  0.00  0.00    +0.000 C 
BRANCH  12  13
ATOM     13  C   UNL     1       2.186   5.683  20.658  0.00  0.00    +0.000 C 
BRANCH  13  14
ATOM     14  C   UNL     1       2.048   7.131  20.183  0.00  0.00    +0.000 C 
BRANCH  14  15
ATOM     15  N   UNL     1       1.449   7.969  21.213  0.00  0.00    +0.000 NA
ATOM     16  H   UNL     1       0.921   7.385  21.861  0.00  0.00    +0.000 HD
ATOM     17  H   UNL     1       0.772   8.607  20.794  0.00  0.00    +0.000 HD
ENDBRANCH  14  15
ENDBRANCH  13  14
ENDBRANCH  12  13
ENDBRANCH   5  12
ENDBRANCH   3   5
ENDBRANCH   2   3
ENDBRANCH   1   2
BRANCH   1  18
ATOM     18  C   UNL     1       4.749   4.243  15.129  0.00  0.00    +0.000 C 
BRANCH  18  19
ATOM     19  C   UNL     1       6.272   4.144  15.178  0.00  0.00    +0.000 C 
BRANCH  19  20
ATOM     20  N   UNL     1       6.753   3.895  16.516  0.00  0.00    +0.000 N 
ATOM     21  C   UNL     1       7.259   4.912  17.292  0.00  0.00    +0.000 A 
ATOM     22  N   UNL     1       7.243   6.158  16.841  0.00  0.00    +0.000 NA
ATOM     23  C   UNL     1       7.691   7.077  17.676  0.00  0.00    +0.000 A 
ATOM     24  N   UNL     1       7.688   8.387  17.239  0.00  0.00    +0.000 N 
ATOM     25  N   UNL     1       8.153   6.836  18.890  0.00  0.00    +0.000 NA
ATOM     26  C   UNL     1       8.139   5.562  19.242  0.00  0.00    +0.000 A 
ATOM     27  N   UNL     1       8.550   5.257  20.529  0.00  0.00    +0.000 N 
ATOM     28  N   UNL     1       7.711   4.564  18.487  0.00  0.00    +0.000 NA
ATOM     29  H   UNL     1       7.032   2.973  16.814  0.00  0.00    +0.000 HD
ATOM     30  H   UNL     1       7.694   8.429  16.224  0.00  0.00    +0.000 HD
ATOM     31  H   UNL     1       8.392   8.926  17.721  0.00  0.00    +0.000 HD
ATOM     32  H   UNL     1       8.432   6.072  21.116  0.00  0.00    +0.000 HD
ATOM     33  H   UNL     1       8.094   4.408  20.835  0.00  0.00    +0.000 HD
ENDBRANCH  19  20
ENDBRANCH  18  19
ENDBRANCH   1  18
TORSDOF 12
ENDMDL
