MODEL 1
REMARK VINA RESULT:      -5.6      0.000      0.000
REMARK  Name = 
REMARK  3 active torsions:
REMARK  status: ('A' for Active; 'I' for Inactive)
REMARK    1  A    between atoms: O_1  and  C_2
REMARK    2  A    between atoms: C_3  and  O_4
REMARK    3  A    between atoms: C_10  and  O_11
REMARK                            x       y       z     vdW  Elec       q    Type
REMARK                         _______ _______ _______ _____ _____    ______ ____
ROOT
ATOM      1  C   UNL     1       4.280   2.731  19.849  0.00  0.00    +0.000 C 
ATOM      2  C   UNL     1       4.784   3.772  18.834  0.00  0.00    +0.000 C 
ATOM      3  C   UNL     1       3.710   4.855  18.627  0.00  0.00    +0.000 C 
ATOM      4  N   UNL     1       2.431   4.299  18.178  0.00  0.00    +0.000 NA
ATOM      5  C   UNL     1       1.949   3.219  19.079  0.00  0.00    +0.000 C 
ATOM      6  C   UNL     1       0.965   3.613  20.156  0.00  0.00    +0.000 C 
ATOM      7  C   UNL     1       0.493   2.833  18.964  0.00  0.00    +0.000 C 
ATOM      8  C   UNL     1       2.950   2.101  19.376  0.00  0.00    +0.000 C 
ATOM      9  H   UNL     1       2.508   3.956  17.220  0.00  0.00    +0.000 HD
ENDROOT
BRANCH   1  10
ATOM     10  O   UNL     1       5.290   1.741  20.072  0.00  0.00    +0.000 OA
ATOM     11  H   UNL     1       4.858   1.020  20.568  0.00  0.00    +0.000 HD
ENDBRANCH   1  10
BRANCH   2  12
ATOM     12  O   UNL     1       6.014   4.338  19.308  0.00  0.00    +0.000 OA
ATOM     13  H   UNL     1       5.940   5.305  19.269  0.00  0.00    +0.000 HD
ENDBRANCH   2  12
BRANCH   8  14
ATOM     14  O   UNL     1       3.106   1.309  18.193  0.00  0.00    +0.000 OA
ATOM     15  H   UNL     1       3.867   1.645  17.698  0.00  0.00    +0.000 HD
ENDBRANCH   8  14
TORSDOF 3
ENDMDL
MODEL 2
REMARK VINA RESULT:      -5.4      1.642      2.289
REMARK  Name = 
REMARK  3 active torsions:
REMARK  status: ('A' for Active; 'I' for Inactive)
REMARK    1  A    between atoms: O_1  and  C_2
REMARK    2  A    between atoms: C_3  and  O_4
REMARK    3  A    between atoms: C_10  and  O_11
REMARK                            x       y       z     vdW  Elec       q    Type
REMARK                         _______ _______ _______ _____ _____    ______ ____
ROOT
ATOM      1  C   UNL     1       4.781   3.867  18.701  0.00  0.00    +0.000 C 
ATOM      2  C   UNL     1       4.076   3.265  17.473  0.00  0.00    +0.000 C 
ATOM      3  C   UNL     1       2.554   3.266  17.697  0.00  0.00    +0.000 C 
ATOM      4  N   UNL     1       2.164   2.534  18.905  0.00  0.00    +0.000 NA
ATOM      5  C   UNL     1       2.892   3.021  20.107  0.00  0.00    +0.000 C 
ATOM      6  C   UNL     1       2.191   4.049  20.964  0.00  0.00    +0.000 C 
ATOM      7  C   UNL     1       2.322   2.636  21.452  0.00  0.00    +0.000 C 
ATOM      8  C   UNL     1       4.416   3.086  19.983  0.00  0.00    +0.000 C 
ATOM      9  H   UNL     1       2.312   1.533  18.779  0.00  0.00    +0.000 HD
ENDROOT
BRANCH   1  10
ATOM     10  O   UNL     1       6.195   3.901  18.481  0.00  0.00    +0.000 OA
ATOM     11  H   UNL     1       6.340   3.524  17.592  0.00  0.00    +0.000 HD
ENDBRANCH   1  10
BRANCH   2  12
ATOM     12  O   UNL     1       4.435   4.018  16.305  0.00  0.00    +0.000 OA
ATOM     13  H   UNL     1       3.668   4.039  15.709  0.00  0.00    +0.000 HD
ENDBRANCH   2  12
BRANCH   8  14
ATOM     14  O   UNL     1       4.926   1.748  19.977  0.00  0.00    +0.000 OA
ATOM     15  H   UNL     1       4.203   1.144  20.204  0.00  0.00    +0.000 HD
ENDBRANCH   8  14
TORSDOF 3
ENDMDL
MODEL 3
REMARK VINA RESULT:      -5.4      1.512      1.641
REMARK  Name = 
REMARK  3 active torsions:
REMARK  status: ('A' for Active; 'I' for Inactive)
REMARK    1  A    between atoms: O_1  and  C_2
REMARK    2  A    between atoms: C_3  and  O_4
REMARK    3  A    between atoms: C_10  and  O_11
REMARK                            x       y       z     vdW  Elec       q    Type
REMARK                         _______ _______ _______ _____ _____    ______ ____
ROOT
ATOM      1  C   UNL     1       3.820   2.251  18.696  0.00  0.00    +0.000 C 
ATOM      2  C   UNL     1       3.882   3.107  17.420  0.00  0.00    +0.000 C 
ATOM      3  C   UNL     1       3.482   4.556  17.747  0.00  0.00    +0.000 C 
ATOM      4  N   UNL     1       2.148   4.649  18.346  0.00  0.00    +0.000 NA
ATOM      5  C   UNL     1       2.011   3.764  19.533  0.00  0.00    +0.000 C 
ATOM      6  C   UNL     1       2.245   4.392  20.887  0.00  0.00    +0.000 C 
ATOM      7  C   UNL     1       0.850   4.041  20.460  0.00  0.00    +0.000 C 
ATOM      8  C   UNL     1       2.410   2.301  19.325  0.00  0.00    +0.000 C 
ATOM      9  H   UNL     1       1.430   4.431  17.654  0.00  0.00    +0.000 HD
ENDROOT
BRANCH   1  10
ATOM     10  O   UNL     1       4.226   0.910  18.403  0.00  0.00    +0.000 OA
ATOM     11  H   UNL     1       3.527   0.534  17.834  0.00  0.00    +0.000 HD
ENDBRANCH   1  10
BRANCH   2  12
ATOM     12  O   UNL     1       5.205   3.039  16.868  0.00  0.00    +0.000 OA
ATOM     13  H   UNL     1       5.317   3.782  16.253  0.00  0.00    +0.000 HD
ENDBRANCH   2  12
BRANCH   8  14
ATOM     14  O   UNL     1       1.417   1.676  18.503  0.00  0.00    +0.000 OA
ATOM     15  H   UNL     1       1.200   2.277  17.775  0.00  0.00    +0.000 HD
ENDBRANCH   8  14
TORSDOF 3
ENDMDL
MODEL 4
REMARK VINA RESULT:      -5.4      3.306      4.708
REMARK  Name = 
REMARK  3 active torsions:
REMARK  status: ('A' for Active; 'I' for Inactive)
REMARK    1  A    between atoms: O_1  and  C_2
REMARK    2  A    between atoms: C_3  and  O_4
REMARK    3  A    between atoms: C_10  and  O_11
REMARK                            x       y       z     vdW  Elec       q    Type
REMARK                         _______ _______ _______ _____ _____    ______ ____
ROOT
ATOM      1  C   UNL     1       6.687   5.797  16.457  0.00  0.00    +0.000 C 
ATOM      2  C   UNL     1       7.182   4.806  15.390  0.00  0.00    +0.000 C 
ATOM      3  C   UNL     1       6.046   3.839  15.014  0.00  0.00    +0.000 C 
ATOM      4  N   UNL     1       5.526   3.106  16.171  0.00  0.00    +0.000 NA
ATOM      5  C   UNL     1       5.121   4.022  17.270  0.00  0.00    +0.000 C 
ATOM      6  C   UNL     1       3.661   4.407  17.340  0.00  0.00    +0.000 C 
ATOM      7  C   UNL     1       4.227   3.447  18.344  0.00  0.00    +0.000 C 
ATOM      8  C   UNL     1       6.170   5.047  17.706  0.00  0.00    +0.000 C 
ATOM      9  H   UNL     1       6.214   2.431  16.505  0.00  0.00    +0.000 HD
ENDROOT
BRANCH   1  10
ATOM     10  O   UNL     1       7.730   6.721  16.784  0.00  0.00    +0.000 OA
ATOM     11  H   UNL     1       8.188   6.919  15.945  0.00  0.00    +0.000 HD
ENDBRANCH   1  10
BRANCH   2  12
ATOM     12  O   UNL     1       7.649   5.536  14.246  0.00  0.00    +0.000 OA
ATOM     13  H   UNL     1       8.315   4.996  13.791  0.00  0.00    +0.000 HD
ENDBRANCH   2  12
BRANCH   8  14
ATOM     14  O   UNL     1       7.212   4.357  18.405  0.00  0.00    +0.000 OA
ATOM     15  H   UNL     1       6.952   4.272  19.335  0.00  0.00    +0.000 HD
ENDBRANCH   8  14
TORSDOF 3
ENDMDL
MODEL 5
REMARK VINA RESULT:      -5.4      1.901      2.859
REMARK  Name = 
REMARK  3 active torsions:
REMARK  status: ('A' for Active; 'I' for Inactive)
REMARK    1  A    between atoms: O_1  and  C_2
REMARK    2  A    between atoms: C_3  and  O_4
REMARK    3  A    between atoms: C_10  and  O_11
REMARK                            x       y       z     vdW  Elec       q    Type
REMARK                         _______ _______ _______ _____ _____    ______ ____
ROOT
ATOM      1  C   UNL     1       5.901   5.169  18.794  0.00  0.00    +0.000 C 
ATOM      2  C   UNL     1       6.565   4.740  17.475  0.00  0.00    +0.000 C 
ATOM      3  C   UNL     1       5.518   4.724  16.348  0.00  0.00    +0.000 C 
ATOM      4  N   UNL     1       4.386   3.842  16.646  0.00  0.00    +0.000 NA
ATOM      5  C   UNL     1       3.768   4.159  17.960  0.00  0.00    +0.000 C 
ATOM      6  C   UNL     1       2.563   5.070  17.950  0.00  0.00    +0.000 C 
ATOM      7  C   UNL     1       2.386   3.604  18.216  0.00  0.00    +0.000 C 
ATOM      8  C   UNL     1       4.727   4.228  19.150  0.00  0.00    +0.000 C 
ATOM      9  H   UNL     1       4.677   2.865  16.615  0.00  0.00    +0.000 HD
ENDROOT
BRANCH   1  10
ATOM     10  O   UNL     1       6.879   5.220  19.837  0.00  0.00    +0.000 OA
ATOM     11  H   UNL     1       7.533   4.524  19.630  0.00  0.00    +0.000 HD
ENDBRANCH   1  10
BRANCH   2  12
ATOM     12  O   UNL     1       7.644   5.637  17.175  0.00  0.00    +0.000 OA
ATOM     13  H   UNL     1       8.319   5.545  17.868  0.00  0.00    +0.000 HD
ENDBRANCH   2  12
BRANCH   8  14
ATOM     14  O   UNL     1       5.161   2.898  19.457  0.00  0.00    +0.000 OA
ATOM     15  H   UNL     1       6.082   2.938  19.757  0.00  0.00    +0.000 HD
ENDBRANCH   8  14
TORSDOF 3
ENDMDL
MODEL 6
REMARK VINA RESULT:      -5.4      3.835      4.617
REMARK  Name = 
REMARK  3 active torsions:
REMARK  status: ('A' for Active; 'I' for Inactive)
REMARK    1  A    between atoms: O_1  and  C_2
REMARK    2  A    between atoms: C_3  and  O_4
REMARK    3  A    between atoms: C_10  and  O_11
REMARK                            x       y       z     vdW  Elec       q    Type
REMARK                         _______ _______ _______ _____ _____    ______ ____
ROOT
ATOM      1  C   UNL     1       5.930   4.846  18.686  0.00  0.00    +0.000 C 
ATOM      2  C   UNL     1       7.390   5.299  18.860  0.00  0.00    +0.000 C 
ATOM      3  C   UNL     1       7.630   6.593  18.064  0.00  0.00    +0.000 C 
ATOM      4  N   UNL     1       7.321   6.441  16.639  0.00  0.00    +0.000 NA
ATOM      5  C   UNL     1       5.948   5.915  16.423  0.00  0.00    +0.000 C 
ATOM      6  C   UNL     1       4.858   6.929  16.160  0.00  0.00    +0.000 C 
ATOM      7  C   UNL     1       5.367   6.073  15.037  0.00  0.00    +0.000 C 
ATOM      8  C   UNL     1       5.592   4.641  17.192  0.00  0.00    +0.000 C 
ATOM      9  H   UNL     1       8.009   5.839  16.187  0.00  0.00    +0.000 HD
ENDROOT
BRANCH   1  10
ATOM     10  O   UNL     1       5.693   3.662  19.454  0.00  0.00    +0.000 OA
ATOM     11  H   UNL     1       5.056   3.914  20.151  0.00  0.00    +0.000 HD
ENDBRANCH   1  10
BRANCH   2  12
ATOM     12  O   UNL     1       7.664   5.483  20.256  0.00  0.00    +0.000 OA
ATOM     13  H   UNL     1       8.615   5.653  20.360  0.00  0.00    +0.000 HD
ENDBRANCH   2  12
BRANCH   8  14
ATOM     14  O   UNL     1       6.311   3.547  16.610  0.00  0.00    +0.000 OA
ATOM     15  H   UNL     1       7.117   3.401  17.128  0.00  0.00    +0.000 HD
ENDBRANCH   8  14
TORSDOF 3
ENDMDL
MODEL 7
REMARK VINA RESULT:      -5.4      4.156      4.974
REMARK  Name = 
REMARK  3 active torsions:
REMARK  status: ('A' for Active; 'I' for Inactive)
REMARK    1  A    between atoms: O_1  and  C_2
REMARK    2  A    between atoms: C_3  and  O_4
REMARK    3  A    between atoms: C_10  and  O_11
REMARK                            x       y       z     vdW  Elec       q    Type
REMARK                         _______ _______ _______ _____ _____    ______ ____
ROOT
ATOM      1  C   UNL     1       7.528   5.823  18.993  0.00  0.00    +0.000 C 
ATOM      2  C   UNL     1       8.142   7.005  18.222  0.00  0.00    +0.000 C 
ATOM      3  C   UNL     1       7.091   7.607  17.274  0.00  0.00    +0.000 C 
ATOM      4  N   UNL     1       6.555   6.622  16.331  0.00  0.00    +0.000 NA
ATOM      5  C   UNL     1       6.033   5.416  17.027  0.00  0.00    +0.000 C 
ATOM      6  C   UNL     1       4.551   5.379  17.318  0.00  0.00    +0.000 C 
ATOM      7  C   UNL     1       5.120   4.512  16.234  0.00  0.00    +0.000 C 
ATOM      8  C   UNL     1       6.991   4.751  18.018  0.00  0.00    +0.000 C 
ATOM      9  H   UNL     1       7.265   6.359  15.647  0.00  0.00    +0.000 HD
ENDROOT
BRANCH   1  10
ATOM     10  O   UNL     1       8.492   5.282  19.902  0.00  0.00    +0.000 OA
ATOM     11  H   UNL     1       8.653   5.976  20.570  0.00  0.00    +0.000 HD
ENDBRANCH   1  10
BRANCH   2  12
ATOM     12  O   UNL     1       8.625   7.980  19.158  0.00  0.00    +0.000 OA
ATOM     13  H   UNL     1       8.805   8.803  18.675  0.00  0.00    +0.000 HD
ENDBRANCH   2  12
BRANCH   8  14
ATOM     14  O   UNL     1       8.034   4.109  17.276  0.00  0.00    +0.000 OA
ATOM     15  H   UNL     1       8.144   3.209  17.619  0.00  0.00    +0.000 HD
ENDBRANCH   8  14
TORSDOF 3
ENDMDL
MODEL 8
REMARK VINA RESULT:      -5.3      3.520      4.945
REMARK  Name = 
REMARK  3 active torsions:
REMARK  status: ('A' for Active; 'I' for Inactive)
REMARK    1  A    between atoms: O_1  and  C_2
REMARK    2  A    between atoms: C_3  and  O_4
REMARK    3  A    between atoms: C_10  and  O_11
REMARK                            x       y       z     vdW  Elec       q    Type
REMARK                         _______ _______ _______ _____ _____    ______ ____
ROOT
ATOM      1  C   UNL     1       5.441   4.322  17.786  0.00  0.00    +0.000 C 
ATOM      2  C   UNL     1       5.113   5.790  18.107  0.00  0.00    +0.000 C 
ATOM      3  C   UNL     1       4.717   6.528  16.817  0.00  0.00    +0.000 C 
ATOM      4  N   UNL     1       5.761   6.463  15.790  0.00  0.00    +0.000 NA
ATOM      5  C   UNL     1       6.179   5.063  15.512  0.00  0.00    +0.000 C 
ATOM      6  C   UNL     1       5.520   4.370  14.343  0.00  0.00    +0.000 C 
ATOM      7  C   UNL     1       6.947   4.821  14.234  0.00  0.00    +0.000 C 
ATOM      8  C   UNL     1       6.569   4.228  16.734  0.00  0.00    +0.000 C 
ATOM      9  H   UNL     1       6.566   7.028  16.063  0.00  0.00    +0.000 HD
ENDROOT
BRANCH   1  10
ATOM     10  O   UNL     1       5.775   3.624  18.990  0.00  0.00    +0.000 OA
ATOM     11  H   UNL     1       4.937   3.260  19.333  0.00  0.00    +0.000 HD
ENDBRANCH   1  10
BRANCH   2  12
ATOM     12  O   UNL     1       4.061   5.837  19.082  0.00  0.00    +0.000 OA
ATOM     13  H   UNL     1       4.459   6.010  19.951  0.00  0.00    +0.000 HD
ENDBRANCH   2  12
BRANCH   8  14
ATOM     14  O   UNL     1       7.825   4.710  17.227  0.00  0.00    +0.000 OA
ATOM     15  H   UNL     1       7.934   5.628  16.938  0.00  0.00    +0.000 HD
ENDBRANCH   8  14
TORSDOF 3
ENDMDL
MODEL 9
REMARK VINA RESULT:      -5.2      2.253      3.400
REMARK  Name = 
REMARK  3 active torsions:
REMARK  status: ('A' for Active; 'I' for Inactive)
REMARK    1  A    between atoms: O_1  and  C_2
REMARK    2  A    between atoms: C_3  and  O_4
REMARK    3  A    between atoms: C_10  and  O_11
REMARK                            x       y       z     vdW  Elec       q    Type
REMARK                         _______ _______ _______ _____ _____    ______ ____
ROOT
ATOM      1  C   UNL     1       6.626   5.022  18.031  0.00  0.00    +0.000 C 
ATOM      2  C   UNL     1       6.649   4.261  16.694  0.00  0.00    +0.000 C 
ATOM      3  C   UNL     1       5.356   4.549  15.912  0.00  0.00    +0.000 C 
ATOM      4  N   UNL     1       4.151   4.194  16.668  0.00  0.00    +0.000 NA
ATOM      5  C   UNL     1       4.130   4.834  18.009  0.00  0.00    +0.000 C 
ATOM      6  C   UNL     1       3.367   6.131  18.139  0.00  0.00    +0.000 C 
ATOM      7  C   UNL     1       2.801   4.872  18.727  0.00  0.00    +0.000 C 
ATOM      8  C   UNL     1       5.384   4.634  18.864  0.00  0.00    +0.000 C 
ATOM      9  H   UNL     1       4.070   3.181  16.755  0.00  0.00    +0.000 HD
ENDROOT
BRANCH   1  10
ATOM     10  O   UNL     1       7.843   4.785  18.746  0.00  0.00    +0.000 OA
ATOM     11  H   UNL     1       7.899   5.486  19.425  0.00  0.00    +0.000 HD
ENDBRANCH   1  10
BRANCH   2  12
ATOM     12  O   UNL     1       7.811   4.650  15.949  0.00  0.00    +0.000 OA
ATOM     13  H   UNL     1       8.310   3.849  15.722  0.00  0.00    +0.000 HD
ENDBRANCH   2  12
BRANCH   8  14
ATOM     14  O   UNL     1       5.418   3.270  19.302  0.00  0.00    +0.000 OA
ATOM     15  H   UNL     1       6.314   2.928  19.167  0.00  0.00    +0.000 HD
ENDBRANCH   8  14
TORSDOF 3
ENDMDL
