MODEL 1
REMARK VINA RESULT:      -9.4      0.000      0.000
REMARK  Name = 
REMARK  5 active torsions:
REMARK  status: ('A' for Active; 'I' for Inactive)
REMARK    1  A    between atoms: C_2  and  C_3
REMARK    2  A    between atoms: C_2  and  C_12
REMARK    3  A    between atoms: C_16  and  O_17
REMARK    4  A    between atoms: O_17  and  C_18
REMARK    5  A    between atoms: C_18  and  C_20
REMARK                            x       y       z     vdW  Elec       q    Type
REMARK                         _______ _______ _______ _____ _____    ______ ____
ROOT
ATOM      1  C   UNL     1       1.267   9.692  18.820  0.00  0.00    +0.000 A 
ATOM      2  C   UNL     1       1.865   8.878  17.869  0.00  0.00    +0.000 A 
ATOM      3  C   UNL     1       2.185   7.631  18.473  0.00  0.00    +0.000 A 
ATOM      4  C   UNL     1       2.827   6.456  18.026  0.00  0.00    +0.000 A 
ATOM      5  C   UNL     1       3.006   5.396  18.926  0.00  0.00    +0.000 A 
ATOM      6  C   UNL     1       2.511   5.469  20.226  0.00  0.00    +0.000 A 
ATOM      7  C   UNL     1       1.877   6.629  20.687  0.00  0.00    +0.000 A 
ATOM      8  C   UNL     1       1.741   7.696  19.792  0.00  0.00    +0.000 A 
ATOM      9  N   UNL     1       1.209   8.951  19.980  0.00  0.00    +0.000 N 
ATOM     10  H   UNL     1       0.835   9.298  20.853  0.00  0.00    +0.000 HD
ENDROOT
BRANCH   1  12
ATOM     11  O   UNL     1       1.608  12.014  18.838  0.00  0.00    +0.000 OA
ATOM     12  C   UNL     1       0.822  11.074  18.766  0.00  0.00    +0.000 C 
BRANCH  12  13
ATOM     13  C   UNL     1      -0.606  11.275  18.619  0.00  0.00    +0.000 A 
ATOM     14  C   UNL     1      -1.546  11.791  19.496  0.00  0.00    +0.000 A 
ATOM     15  C   UNL     1      -2.809  11.805  18.849  0.00  0.00    +0.000 A 
ATOM     16  C   UNL     1      -4.099  12.212  19.239  0.00  0.00    +0.000 A 
ATOM     17  C   UNL     1      -5.156  12.087  18.335  0.00  0.00    +0.000 A 
ATOM     18  C   UNL     1      -4.941  11.565  17.060  0.00  0.00    +0.000 A 
ATOM     19  C   UNL     1      -3.666  11.160  16.648  0.00  0.00    +0.000 A 
ATOM     20  C   UNL     1      -2.616  11.300  17.566  0.00  0.00    +0.000 A 
ATOM     21  N   UNL     1      -1.274  11.019  17.440  0.00  0.00    +0.000 N 
ATOM     22  H   UNL     1      -0.831  10.663  16.604  0.00  0.00    +0.000 HD
ENDBRANCH  12  13
ENDBRANCH   1  12
BRANCH   5  23
ATOM     23  O   UNL     1       3.658   4.245  18.416  0.00  0.00    +0.000 OA
BRANCH  23  24
ATOM     24  C   UNL     1       5.037   4.137  18.488  0.00  0.00    +0.000 C 
ATOM     25  O   UNL     1       5.701   3.736  19.435  0.00  0.00    +0.000 OA
BRANCH  24  26
ATOM     26  C   UNL     1       5.679   4.480  17.199  0.00  0.00    +0.000 A 
ATOM     27  C   UNL     1       5.134   3.873  16.052  0.00  0.00    +0.000 A 
ATOM     28  C   UNL     1       5.721   4.051  14.798  0.00  0.00    +0.000 A 
ATOM     29  C   UNL     1       6.865   4.835  14.676  0.00  0.00    +0.000 A 
ATOM     30  C   UNL     1       7.415   5.443  15.807  0.00  0.00    +0.000 A 
ATOM     31  C   UNL     1       6.830   5.266  17.071  0.00  0.00    +0.000 A 
ATOM     32 CL   UNL     1       7.644   5.989  18.413  0.00  0.00    +0.000 Cl
ENDBRANCH  24  26
ENDBRANCH  23  24
ENDBRANCH   5  23
TORSDOF 5
ENDMDL
MODEL 2
REMARK VINA RESULT:      -9.2      3.136      9.679
REMARK  Name = 
REMARK  5 active torsions:
REMARK  status: ('A' for Active; 'I' for Inactive)
REMARK    1  A    between atoms: C_2  and  C_3
REMARK    2  A    between atoms: C_2  and  C_12
REMARK    3  A    between atoms: C_16  and  O_17
REMARK    4  A    between atoms: O_17  and  C_18
REMARK    5  A    between atoms: C_18  and  C_20
REMARK                            x       y       z     vdW  Elec       q    Type
REMARK                         _______ _______ _______ _____ _____    ______ ____
ROOT
ATOM      1  C   UNL     1       4.475   5.945  18.148  0.00  0.00    +0.000 A 
ATOM      2  C   UNL     1       4.049   7.034  17.401  0.00  0.00    +0.000 A 
ATOM      3  C   UNL     1       3.024   7.708  18.122  0.00  0.00    +0.000 A 
ATOM      4  C   UNL     1       2.204   8.826  17.855  0.00  0.00    +0.000 A 
ATOM      5  C   UNL     1       1.249   9.209  18.807  0.00  0.00    +0.000 A 
ATOM      6  C   UNL     1       1.140   8.539  20.023  0.00  0.00    +0.000 A 
ATOM      7  C   UNL     1       1.942   7.425  20.301  0.00  0.00    +0.000 A 
ATOM      8  C   UNL     1       2.864   7.027  19.327  0.00  0.00    +0.000 A 
ATOM      9  N   UNL     1       3.735   5.961  19.310  0.00  0.00    +0.000 N 
ATOM     10  H   UNL     1       3.819   5.269  20.043  0.00  0.00    +0.000 HD
ENDROOT
BRANCH   1  12
ATOM     11  O   UNL     1       5.848   4.134  18.730  0.00  0.00    +0.000 OA
ATOM     12  C   UNL     1       5.428   4.889  17.858  0.00  0.00    +0.000 C 
BRANCH  12  13
ATOM     13  C   UNL     1       5.852   4.778  16.476  0.00  0.00    +0.000 A 
ATOM     14  C   UNL     1       6.929   5.336  15.808  0.00  0.00    +0.000 A 
ATOM     15  C   UNL     1       6.912   4.881  14.463  0.00  0.00    +0.000 A 
ATOM     16  C   UNL     1       7.739   5.110  13.348  0.00  0.00    +0.000 A 
ATOM     17  C   UNL     1       7.433   4.492  12.134  0.00  0.00    +0.000 A 
ATOM     18  C   UNL     1       6.321   3.659  12.023  0.00  0.00    +0.000 A 
ATOM     19  C   UNL     1       5.488   3.412  13.120  0.00  0.00    +0.000 A 
ATOM     20  C   UNL     1       5.815   4.034  14.332  0.00  0.00    +0.000 A 
ATOM     21  N   UNL     1       5.211   3.961  15.567  0.00  0.00    +0.000 N 
ATOM     22  H   UNL     1       4.401   3.397  15.785  0.00  0.00    +0.000 HD
ENDBRANCH  12  13
ENDBRANCH   1  12
BRANCH   5  23
ATOM     23  O   UNL     1       0.457  10.338  18.479  0.00  0.00    +0.000 OA
BRANCH  23  24
ATOM     24  C   UNL     1      -0.734  10.572  19.148  0.00  0.00    +0.000 C 
ATOM     25  O   UNL     1      -0.883  10.794  20.342  0.00  0.00    +0.000 OA
BRANCH  24  26
ATOM     26  C   UNL     1      -1.882  10.628  18.214  0.00  0.00    +0.000 A 
ATOM     27  C   UNL     1      -1.757   9.879  17.030  0.00  0.00    +0.000 A 
ATOM     28  C   UNL     1      -2.738   9.936  16.037  0.00  0.00    +0.000 A 
ATOM     29  C   UNL     1      -3.853  10.748  16.215  0.00  0.00    +0.000 A 
ATOM     30  C   UNL     1      -3.989  11.496  17.388  0.00  0.00    +0.000 A 
ATOM     31  C   UNL     1      -3.006  11.444  18.388  0.00  0.00    +0.000 A 
ATOM     32 CL   UNL     1      -3.231  12.477  19.754  0.00  0.00    +0.000 Cl
ENDBRANCH  24  26
ENDBRANCH  23  24
ENDBRANCH   5  23
TORSDOF 5
ENDMDL
MODEL 3
REMARK VINA RESULT:      -9.2      3.103      9.666
REMARK  Name = 
REMARK  5 active torsions:
REMARK  status: ('A' for Active; 'I' for Inactive)
REMARK    1  A    between atoms: C_2  and  C_3
REMARK    2  A    between atoms: C_2  and  C_12
REMARK    3  A    between atoms: C_16  and  O_17
REMARK    4  A    between atoms: O_17  and  C_18
REMARK    5  A    between atoms: C_18  and  C_20
REMARK                            x       y       z     vdW  Elec       q    Type
REMARK                         _______ _______ _______ _____ _____    ______ ____
ROOT
ATOM      1  C   UNL     1       4.290   5.916  18.324  0.00  0.00    +0.000 A 
ATOM      2  C   UNL     1       3.861   6.964  17.522  0.00  0.00    +0.000 A 
ATOM      3  C   UNL     1       2.873   7.704  18.230  0.00  0.00    +0.000 A 
ATOM      4  C   UNL     1       2.067   8.820  17.918  0.00  0.00    +0.000 A 
ATOM      5  C   UNL     1       1.150   9.282  18.873  0.00  0.00    +0.000 A 
ATOM      6  C   UNL     1       1.069   8.693  20.133  0.00  0.00    +0.000 A 
ATOM      7  C   UNL     1       1.857   7.582  20.456  0.00  0.00    +0.000 A 
ATOM      8  C   UNL     1       2.739   7.104  19.481  0.00  0.00    +0.000 A 
ATOM      9  N   UNL     1       3.589   6.021  19.505  0.00  0.00    +0.000 N 
ATOM     10  H   UNL     1       3.684   5.375  20.277  0.00  0.00    +0.000 HD
ENDROOT
BRANCH   1  12
ATOM     11  O   UNL     1       5.639   4.110  18.976  0.00  0.00    +0.000 OA
ATOM     12  C   UNL     1       5.213   4.823  18.072  0.00  0.00    +0.000 C 
BRANCH  12  13
ATOM     13  C   UNL     1       5.600   4.624  16.689  0.00  0.00    +0.000 A 
ATOM     14  C   UNL     1       5.037   3.846  15.691  0.00  0.00    +0.000 A 
ATOM     15  C   UNL     1       5.782   4.033  14.498  0.00  0.00    +0.000 A 
ATOM     16  C   UNL     1       5.678   3.514  13.194  0.00  0.00    +0.000 A 
ATOM     17  C   UNL     1       6.601   3.913  12.225  0.00  0.00    +0.000 A 
ATOM     18  C   UNL     1       7.617   4.813  12.542  0.00  0.00    +0.000 A 
ATOM     19  C   UNL     1       7.737   5.347  13.831  0.00  0.00    +0.000 A 
ATOM     20  C   UNL     1       6.797   4.941  14.787  0.00  0.00    +0.000 A 
ATOM     21  N   UNL     1       6.646   5.309  16.106  0.00  0.00    +0.000 N 
ATOM     22  H   UNL     1       7.224   5.981  16.591  0.00  0.00    +0.000 HD
ENDBRANCH  12  13
ENDBRANCH   1  12
BRANCH   5  23
ATOM     23  O   UNL     1       0.369  10.405  18.499  0.00  0.00    +0.000 OA
BRANCH  23  24
ATOM     24  C   UNL     1      -0.844  10.649  19.122  0.00  0.00    +0.000 C 
ATOM     25  O   UNL     1      -1.031  10.916  20.302  0.00  0.00    +0.000 OA
BRANCH  24  26
ATOM     26  C   UNL     1      -1.964  10.653  18.153  0.00  0.00    +0.000 A 
ATOM     27  C   UNL     1      -1.769   9.908  16.975  0.00  0.00    +0.000 A 
ATOM     28  C   UNL     1      -2.720   9.921  15.953  0.00  0.00    +0.000 A 
ATOM     29  C   UNL     1      -3.875  10.684  16.094  0.00  0.00    +0.000 A 
ATOM     30  C   UNL     1      -4.080  11.427  17.259  0.00  0.00    +0.000 A 
ATOM     31  C   UNL     1      -3.127  11.420  18.290  0.00  0.00    +0.000 A 
ATOM     32 CL   UNL     1      -3.439  12.444  19.645  0.00  0.00    +0.000 Cl
ENDBRANCH  24  26
ENDBRANCH  23  24
ENDBRANCH   5  23
TORSDOF 5
ENDMDL
MODEL 4
REMARK VINA RESULT:      -9.1      1.242      1.744
REMARK  Name = 
REMARK  5 active torsions:
REMARK  status: ('A' for Active; 'I' for Inactive)
REMARK    1  A    between atoms: C_2  and  C_3
REMARK    2  A    between atoms: C_2  and  C_12
REMARK    3  A    between atoms: C_16  and  O_17
REMARK    4  A    between atoms: O_17  and  C_18
REMARK    5  A    between atoms: C_18  and  C_20
REMARK                            x       y       z     vdW  Elec       q    Type
REMARK                         _______ _______ _______ _____ _____    ______ ____
ROOT
ATOM      1  C   UNL     1       1.293   9.709  18.813  0.00  0.00    +0.000 A 
ATOM      2  C   UNL     1       1.942   8.884  17.905  0.00  0.00    +0.000 A 
ATOM      3  C   UNL     1       2.249   7.652  18.547  0.00  0.00    +0.000 A 
ATOM      4  C   UNL     1       2.923   6.477  18.151  0.00  0.00    +0.000 A 
ATOM      5  C   UNL     1       3.074   5.436  19.079  0.00  0.00    +0.000 A 
ATOM      6  C   UNL     1       2.522   5.528  20.355  0.00  0.00    +0.000 A 
ATOM      7  C   UNL     1       1.855   6.689  20.765  0.00  0.00    +0.000 A 
ATOM      8  C   UNL     1       1.747   7.737  19.844  0.00  0.00    +0.000 A 
ATOM      9  N   UNL     1       1.193   8.989  19.984  0.00  0.00    +0.000 N 
ATOM     10  H   UNL     1       0.777   9.348  20.833  0.00  0.00    +0.000 HD
ENDROOT
BRANCH   1  12
ATOM     11  O   UNL     1       1.614  12.032  18.742  0.00  0.00    +0.000 OA
ATOM     12  C   UNL     1       0.835  11.083  18.713  0.00  0.00    +0.000 C 
BRANCH  12  13
ATOM     13  C   UNL     1      -0.596  11.267  18.574  0.00  0.00    +0.000 A 
ATOM     14  C   UNL     1      -1.541  11.748  19.464  0.00  0.00    +0.000 A 
ATOM     15  C   UNL     1      -2.806  11.759  18.819  0.00  0.00    +0.000 A 
ATOM     16  C   UNL     1      -4.100  12.136  19.221  0.00  0.00    +0.000 A 
ATOM     17  C   UNL     1      -5.157  12.018  18.316  0.00  0.00    +0.000 A 
ATOM     18  C   UNL     1      -4.937  11.530  17.029  0.00  0.00    +0.000 A 
ATOM     19  C   UNL     1      -3.657  11.154  16.605  0.00  0.00    +0.000 A 
ATOM     20  C   UNL     1      -2.608  11.287  17.524  0.00  0.00    +0.000 A 
ATOM     21  N   UNL     1      -1.262  11.029  17.389  0.00  0.00    +0.000 N 
ATOM     22  H   UNL     1      -0.816  10.700  16.544  0.00  0.00    +0.000 HD
ENDBRANCH  12  13
ENDBRANCH   1  12
BRANCH   5  23
ATOM     23  O   UNL     1       3.760   4.284  18.621  0.00  0.00    +0.000 OA
BRANCH  23  24
ATOM     24  C   UNL     1       4.559   4.352  17.490  0.00  0.00    +0.000 C 
ATOM     25  O   UNL     1       4.331   3.863  16.391  0.00  0.00    +0.000 OA
BRANCH  24  26
ATOM     26  C   UNL     1       5.747   5.208  17.712  0.00  0.00    +0.000 A 
ATOM     27  C   UNL     1       6.490   4.949  18.878  0.00  0.00    +0.000 A 
ATOM     28  C   UNL     1       7.571   5.758  19.234  0.00  0.00    +0.000 A 
ATOM     29  C   UNL     1       7.920   6.838  18.429  0.00  0.00    +0.000 A 
ATOM     30  C   UNL     1       7.191   7.104  17.268  0.00  0.00    +0.000 A 
ATOM     31  C   UNL     1       6.101   6.296  16.906  0.00  0.00    +0.000 A 
ATOM     32 CL   UNL     1       5.215   6.769  15.500  0.00  0.00    +0.000 Cl
ENDBRANCH  24  26
ENDBRANCH  23  24
ENDBRANCH   5  23
TORSDOF 5
ENDMDL
MODEL 5
REMARK VINA RESULT:      -9.0      2.469      3.782
REMARK  Name = 
REMARK  5 active torsions:
REMARK  status: ('A' for Active; 'I' for Inactive)
REMARK    1  A    between atoms: C_2  and  C_3
REMARK    2  A    between atoms: C_2  and  C_12
REMARK    3  A    between atoms: C_16  and  O_17
REMARK    4  A    between atoms: O_17  and  C_18
REMARK    5  A    between atoms: C_18  and  C_20
REMARK                            x       y       z     vdW  Elec       q    Type
REMARK                         _______ _______ _______ _____ _____    ______ ____
ROOT
ATOM      1  C   UNL     1      -0.311  11.460  19.165  0.00  0.00    +0.000 A 
ATOM      2  C   UNL     1      -0.079  10.594  20.224  0.00  0.00    +0.000 A 
ATOM      3  C   UNL     1       0.803   9.566  19.789  0.00  0.00    +0.000 A 
ATOM      4  C   UNL     1       1.348   8.414  20.395  0.00  0.00    +0.000 A 
ATOM      5  C   UNL     1       2.185   7.582  19.639  0.00  0.00    +0.000 A 
ATOM      6  C   UNL     1       2.526   7.908  18.328  0.00  0.00    +0.000 A 
ATOM      7  C   UNL     1       1.990   9.045  17.710  0.00  0.00    +0.000 A 
ATOM      8  C   UNL     1       1.123   9.846  18.462  0.00  0.00    +0.000 A 
ATOM      9  N   UNL     1       0.427  10.978  18.105  0.00  0.00    +0.000 N 
ATOM     10  H   UNL     1       0.438  11.401  17.187  0.00  0.00    +0.000 HD
ENDROOT
BRANCH   1  12
ATOM     11  O   UNL     1      -0.738  13.760  18.981  0.00  0.00    +0.000 OA
ATOM     12  C   UNL     1      -1.181  12.616  19.035  0.00  0.00    +0.000 C 
BRANCH  12  13
ATOM     13  C   UNL     1      -2.602  12.337  18.970  0.00  0.00    +0.000 A 
ATOM     14  C   UNL     1      -3.332  11.533  18.110  0.00  0.00    +0.000 A 
ATOM     15  C   UNL     1      -4.697  11.579  18.499  0.00  0.00    +0.000 A 
ATOM     16  C   UNL     1      -5.869  10.976  18.007  0.00  0.00    +0.000 A 
ATOM     17  C   UNL     1      -7.088  11.239  18.637  0.00  0.00    +0.000 A 
ATOM     18  C   UNL     1      -7.146  12.091  19.739  0.00  0.00    +0.000 A 
ATOM     19  C   UNL     1      -5.992  12.696  20.250  0.00  0.00    +0.000 A 
ATOM     20  C   UNL     1      -4.778  12.414  19.610  0.00  0.00    +0.000 A 
ATOM     21  N   UNL     1      -3.497  12.832  19.895  0.00  0.00    +0.000 N 
ATOM     22  H   UNL     1      -3.240  13.430  20.669  0.00  0.00    +0.000 HD
ENDBRANCH  12  13
ENDBRANCH   1  12
BRANCH   5  23
ATOM     23  O   UNL     1       2.699   6.440  20.304  0.00  0.00    +0.000 OA
BRANCH  23  24
ATOM     24  C   UNL     1       3.448   5.506  19.607  0.00  0.00    +0.000 C 
ATOM     25  O   UNL     1       4.653   5.532  19.394  0.00  0.00    +0.000 OA
BRANCH  24  26
ATOM     26  C   UNL     1       2.627   4.345  19.195  0.00  0.00    +0.000 A 
ATOM     27  C   UNL     1       1.603   3.963  20.082  0.00  0.00    +0.000 A 
ATOM     28  C   UNL     1       0.831   2.824  19.839  0.00  0.00    +0.000 A 
ATOM     29  C   UNL     1       1.078   2.051  18.708  0.00  0.00    +0.000 A 
ATOM     30  C   UNL     1       2.092   2.422  17.820  0.00  0.00    +0.000 A 
ATOM     31  C   UNL     1       2.872   3.563  18.060  0.00  0.00    +0.000 A 
ATOM     32 CL   UNL     1       4.155   3.877  16.947  0.00  0.00    +0.000 Cl
ENDBRANCH  24  26
ENDBRANCH  23  24
ENDBRANCH   5  23
TORSDOF 5
ENDMDL
MODEL 6
REMARK VINA RESULT:      -8.9      2.588      3.769
REMARK  Name = 
REMARK  5 active torsions:
REMARK  status: ('A' for Active; 'I' for Inactive)
REMARK    1  A    between atoms: C_2  and  C_3
REMARK    2  A    between atoms: C_2  and  C_12
REMARK    3  A    between atoms: C_16  and  O_17
REMARK    4  A    between atoms: O_17  and  C_18
REMARK    5  A    between atoms: C_18  and  C_20
REMARK                            x       y       z     vdW  Elec       q    Type
REMARK                         _______ _______ _______ _____ _____    ______ ____
ROOT
ATOM      1  C   UNL     1      -0.256  11.597  19.257  0.00  0.00    +0.000 A 
ATOM      2  C   UNL     1       0.009  10.748  20.322  0.00  0.00    +0.000 A 
ATOM      3  C   UNL     1       0.825   9.678  19.860  0.00  0.00    +0.000 A 
ATOM      4  C   UNL     1       1.364   8.520  20.461  0.00  0.00    +0.000 A 
ATOM      5  C   UNL     1       2.122   7.639  19.676  0.00  0.00    +0.000 A 
ATOM      6  C   UNL     1       2.393   7.922  18.339  0.00  0.00    +0.000 A 
ATOM      7  C   UNL     1       1.861   9.063  17.727  0.00  0.00    +0.000 A 
ATOM      8  C   UNL     1       1.072   9.914  18.509  0.00  0.00    +0.000 A 
ATOM      9  N   UNL     1       0.397  11.063  18.166  0.00  0.00    +0.000 N 
ATOM     10  H   UNL     1       0.367  11.464  17.239  0.00  0.00    +0.000 HD
ENDROOT
BRANCH   1  12
ATOM     11  O   UNL     1      -0.646  13.855  18.753  0.00  0.00    +0.000 OA
ATOM     12  C   UNL     1      -1.090  12.781  19.150  0.00  0.00    +0.000 C 
BRANCH  12  13
ATOM     13  C   UNL     1      -2.477  12.619  19.539  0.00  0.00    +0.000 A 
ATOM     14  C   UNL     1      -3.124  12.890  20.733  0.00  0.00    +0.000 A 
ATOM     15  C   UNL     1      -4.501  12.583  20.580  0.00  0.00    +0.000 A 
ATOM     16  C   UNL     1      -5.616  12.657  21.436  0.00  0.00    +0.000 A 
ATOM     17  C   UNL     1      -6.869  12.267  20.960  0.00  0.00    +0.000 A 
ATOM     18  C   UNL     1      -7.018  11.806  19.653  0.00  0.00    +0.000 A 
ATOM     19  C   UNL     1      -5.926  11.729  18.782  0.00  0.00    +0.000 A 
ATOM     20  C   UNL     1      -4.678  12.133  19.275  0.00  0.00    +0.000 A 
ATOM     21  N   UNL     1      -3.449  12.195  18.656  0.00  0.00    +0.000 N 
ATOM     22  H   UNL     1      -3.272  11.955  17.690  0.00  0.00    +0.000 HD
ENDBRANCH  12  13
ENDBRANCH   1  12
BRANCH   5  23
ATOM     23  O   UNL     1       2.634   6.495  20.338  0.00  0.00    +0.000 OA
BRANCH  23  24
ATOM     24  C   UNL     1       3.384   5.563  19.638  0.00  0.00    +0.000 C 
ATOM     25  O   UNL     1       4.589   5.587  19.429  0.00  0.00    +0.000 OA
BRANCH  24  26
ATOM     26  C   UNL     1       2.560   4.405  19.219  0.00  0.00    +0.000 A 
ATOM     27  C   UNL     1       1.550   4.004  20.112  0.00  0.00    +0.000 A 
ATOM     28  C   UNL     1       0.780   2.867  19.861  0.00  0.00    +0.000 A 
ATOM     29  C   UNL     1       1.014   2.115  18.714  0.00  0.00    +0.000 A 
ATOM     30  C   UNL     1       2.013   2.504  17.819  0.00  0.00    +0.000 A 
ATOM     31  C   UNL     1       2.793   3.644  18.067  0.00  0.00    +0.000 A 
ATOM     32 CL   UNL     1       4.059   3.981  16.941  0.00  0.00    +0.000 Cl
ENDBRANCH  24  26
ENDBRANCH  23  24
ENDBRANCH   5  23
TORSDOF 5
ENDMDL
MODEL 7
REMARK VINA RESULT:      -8.9      2.939      9.516
REMARK  Name = 
REMARK  5 active torsions:
REMARK  status: ('A' for Active; 'I' for Inactive)
REMARK    1  A    between atoms: C_2  and  C_3
REMARK    2  A    between atoms: C_2  and  C_12
REMARK    3  A    between atoms: C_16  and  O_17
REMARK    4  A    between atoms: O_17  and  C_18
REMARK    5  A    between atoms: C_18  and  C_20
REMARK                            x       y       z     vdW  Elec       q    Type
REMARK                         _______ _______ _______ _____ _____    ______ ____
ROOT
ATOM      1  C   UNL     1       4.993   5.631  18.164  0.00  0.00    +0.000 A 
ATOM      2  C   UNL     1       4.183   5.601  19.291  0.00  0.00    +0.000 A 
ATOM      3  C   UNL     1       3.250   6.672  19.211  0.00  0.00    +0.000 A 
ATOM      4  C   UNL     1       2.233   7.158  20.061  0.00  0.00    +0.000 A 
ATOM      5  C   UNL     1       1.505   8.289  19.668  0.00  0.00    +0.000 A 
ATOM      6  C   UNL     1       1.734   8.897  18.436  0.00  0.00    +0.000 A 
ATOM      7  C   UNL     1       2.743   8.432  17.584  0.00  0.00    +0.000 A 
ATOM      8  C   UNL     1       3.491   7.327  18.005  0.00  0.00    +0.000 A 
ATOM      9  N   UNL     1       4.554   6.693  17.403  0.00  0.00    +0.000 N 
ATOM     10  H   UNL     1       4.974   6.970  16.525  0.00  0.00    +0.000 HD
ENDROOT
BRANCH   1  12
ATOM     11  O   UNL     1       6.922   4.371  18.609  0.00  0.00    +0.000 OA
ATOM     12  C   UNL     1       6.142   4.831  17.779  0.00  0.00    +0.000 C 
BRANCH  12  13
ATOM     13  C   UNL     1       6.311   4.605  16.357  0.00  0.00    +0.000 A 
ATOM     14  C   UNL     1       5.653   3.750  15.488  0.00  0.00    +0.000 A 
ATOM     15  C   UNL     1       6.177   3.942  14.183  0.00  0.00    +0.000 A 
ATOM     16  C   UNL     1       5.900   3.366  12.929  0.00  0.00    +0.000 A 
ATOM     17  C   UNL     1       6.619   3.791  11.810  0.00  0.00    +0.000 A 
ATOM     18  C   UNL     1       7.602   4.773  11.929  0.00  0.00    +0.000 A 
ATOM     19  C   UNL     1       7.890   5.364  13.165  0.00  0.00    +0.000 A 
ATOM     20  C   UNL     1       7.153   4.930  14.275  0.00  0.00    +0.000 A 
ATOM     21  N   UNL     1       7.192   5.338  15.590  0.00  0.00    +0.000 N 
ATOM     22  H   UNL     1       7.789   6.068  15.954  0.00  0.00    +0.000 HD
ENDBRANCH  12  13
ENDBRANCH   1  12
BRANCH   5  23
ATOM     23  O   UNL     1       0.498   8.727  20.565  0.00  0.00    +0.000 OA
BRANCH  23  24
ATOM     24  C   UNL     1       0.528  10.018  21.070  0.00  0.00    +0.000 C 
ATOM     25  O   UNL     1       1.031  10.391  22.121  0.00  0.00    +0.000 OA
BRANCH  24  26
ATOM     26  C   UNL     1      -0.057  10.990  20.118  0.00  0.00    +0.000 A 
ATOM     27  C   UNL     1      -1.255  10.601  19.490  0.00  0.00    +0.000 A 
ATOM     28  C   UNL     1      -1.840  11.399  18.505  0.00  0.00    +0.000 A 
ATOM     29  C   UNL     1      -1.231  12.593  18.132  0.00  0.00    +0.000 A 
ATOM     30  C   UNL     1      -0.042  12.990  18.749  0.00  0.00    +0.000 A 
ATOM     31  C   UNL     1       0.552  12.191  19.738  0.00  0.00    +0.000 A 
ATOM     32 CL   UNL     1       2.066  12.733  20.369  0.00  0.00    +0.000 Cl
ENDBRANCH  24  26
ENDBRANCH  23  24
ENDBRANCH   5  23
TORSDOF 5
ENDMDL
MODEL 8
REMARK VINA RESULT:      -8.8      1.333      1.952
REMARK  Name = 
REMARK  5 active torsions:
REMARK  status: ('A' for Active; 'I' for Inactive)
REMARK    1  A    between atoms: C_2  and  C_3
REMARK    2  A    between atoms: C_2  and  C_12
REMARK    3  A    between atoms: C_16  and  O_17
REMARK    4  A    between atoms: O_17  and  C_18
REMARK    5  A    between atoms: C_18  and  C_20
REMARK                            x       y       z     vdW  Elec       q    Type
REMARK                         _______ _______ _______ _____ _____    ______ ____
ROOT
ATOM      1  C   UNL     1       1.407   9.820  18.976  0.00  0.00    +0.000 A 
ATOM      2  C   UNL     1       1.914   8.961  18.012  0.00  0.00    +0.000 A 
ATOM      3  C   UNL     1       2.093   7.676  18.595  0.00  0.00    +0.000 A 
ATOM      4  C   UNL     1       2.602   6.445  18.129  0.00  0.00    +0.000 A 
ATOM      5  C   UNL     1       2.660   5.357  19.012  0.00  0.00    +0.000 A 
ATOM      6  C   UNL     1       2.173   5.463  20.312  0.00  0.00    +0.000 A 
ATOM      7  C   UNL     1       1.669   6.678  20.792  0.00  0.00    +0.000 A 
ATOM      8  C   UNL     1       1.655   7.768  19.915  0.00  0.00    +0.000 A 
ATOM      9  N   UNL     1       1.264   9.071  20.124  0.00  0.00    +0.000 N 
ATOM     10  H   UNL     1       0.929   9.443  21.002  0.00  0.00    +0.000 HD
ENDROOT
BRANCH   1  12
ATOM     11  O   UNL     1       1.901  12.056  18.460  0.00  0.00    +0.000 OA
ATOM     12  C   UNL     1       1.118  11.243  18.944  0.00  0.00    +0.000 C 
BRANCH  12  13
ATOM     13  C   UNL     1      -0.152  11.646  19.517  0.00  0.00    +0.000 A 
ATOM     14  C   UNL     1      -1.377  11.898  18.923  0.00  0.00    +0.000 A 
ATOM     15  C   UNL     1      -2.313  12.227  19.939  0.00  0.00    +0.000 A 
ATOM     16  C   UNL     1      -3.678  12.568  19.932  0.00  0.00    +0.000 A 
ATOM     17  C   UNL     1      -4.319  12.843  21.141  0.00  0.00    +0.000 A 
ATOM     18  C   UNL     1      -3.617  12.783  22.345  0.00  0.00    +0.000 A 
ATOM     19  C   UNL     1      -2.261  12.440  22.377  0.00  0.00    +0.000 A 
ATOM     20  C   UNL     1      -1.637  12.160  21.155  0.00  0.00    +0.000 A 
ATOM     21  N   UNL     1      -0.344  11.775  20.877  0.00  0.00    +0.000 N 
ATOM     22  H   UNL     1       0.376  11.616  21.568  0.00  0.00    +0.000 HD
ENDBRANCH  12  13
ENDBRANCH   1  12
BRANCH   5  23
ATOM     23  O   UNL     1       3.182   4.149  18.483  0.00  0.00    +0.000 OA
BRANCH  23  24
ATOM     24  C   UNL     1       4.514   3.821  18.680  0.00  0.00    +0.000 C 
ATOM     25  O   UNL     1       4.985   3.151  19.590  0.00  0.00    +0.000 OA
BRANCH  24  26
ATOM     26  C   UNL     1       5.365   4.302  17.568  0.00  0.00    +0.000 A 
ATOM     27  C   UNL     1       5.033   3.834  16.284  0.00  0.00    +0.000 A 
ATOM     28  C   UNL     1       5.826   4.148  15.178  0.00  0.00    +0.000 A 
ATOM     29  C   UNL     1       6.964   4.930  15.345  0.00  0.00    +0.000 A 
ATOM     30  C   UNL     1       7.304   5.402  16.616  0.00  0.00    +0.000 A 
ATOM     31  C   UNL     1       6.512   5.088  17.732  0.00  0.00    +0.000 A 
ATOM     32 CL   UNL     1       7.073   5.648  19.266  0.00  0.00    +0.000 Cl
ENDBRANCH  24  26
ENDBRANCH  23  24
ENDBRANCH   5  23
TORSDOF 5
ENDMDL
MODEL 9
REMARK VINA RESULT:      -8.8      0.949      1.376
REMARK  Name = 
REMARK  5 active torsions:
REMARK  status: ('A' for Active; 'I' for Inactive)
REMARK    1  A    between atoms: C_2  and  C_3
REMARK    2  A    between atoms: C_2  and  C_12
REMARK    3  A    between atoms: C_16  and  O_17
REMARK    4  A    between atoms: O_17  and  C_18
REMARK    5  A    between atoms: C_18  and  C_20
REMARK                            x       y       z     vdW  Elec       q    Type
REMARK                         _______ _______ _______ _____ _____    ______ ____
ROOT
ATOM      1  C   UNL     1       0.707  10.343  18.893  0.00  0.00    +0.000 A 
ATOM      2  C   UNL     1       1.401   9.578  17.967  0.00  0.00    +0.000 A 
ATOM      3  C   UNL     1       1.837   8.381  18.601  0.00  0.00    +0.000 A 
ATOM      4  C   UNL     1       2.603   7.270  18.186  0.00  0.00    +0.000 A 
ATOM      5  C   UNL     1       2.875   6.251  19.110  0.00  0.00    +0.000 A 
ATOM      6  C   UNL     1       2.354   6.297  20.401  0.00  0.00    +0.000 A 
ATOM      7  C   UNL     1       1.597   7.394  20.830  0.00  0.00    +0.000 A 
ATOM      8  C   UNL     1       1.367   8.424  19.912  0.00  0.00    +0.000 A 
ATOM      9  N   UNL     1       0.706   9.621  20.067  0.00  0.00    +0.000 N 
ATOM     10  H   UNL     1       0.284   9.944  20.928  0.00  0.00    +0.000 HD
ENDROOT
BRANCH   1  12
ATOM     11  O   UNL     1       0.801  12.688  18.919  0.00  0.00    +0.000 OA
ATOM     12  C   UNL     1       0.123  11.670  18.806  0.00  0.00    +0.000 C 
BRANCH  12  13
ATOM     13  C   UNL     1      -1.307  11.721  18.574  0.00  0.00    +0.000 A 
ATOM     14  C   UNL     1      -2.062  11.356  17.472  0.00  0.00    +0.000 A 
ATOM     15  C   UNL     1      -3.433  11.573  17.771  0.00  0.00    +0.000 A 
ATOM     16  C   UNL     1      -4.628  11.387  17.051  0.00  0.00    +0.000 A 
ATOM     17  C   UNL     1      -5.845  11.711  17.654  0.00  0.00    +0.000 A 
ATOM     18  C   UNL     1      -5.880  12.216  18.953  0.00  0.00    +0.000 A 
ATOM     19  C   UNL     1      -4.705  12.404  19.690  0.00  0.00    +0.000 A 
ATOM     20  C   UNL     1      -3.494  12.066  19.072  0.00  0.00    +0.000 A 
ATOM     21  N   UNL     1      -2.202  12.114  19.546  0.00  0.00    +0.000 N 
ATOM     22  H   UNL     1      -1.936  12.407  20.477  0.00  0.00    +0.000 HD
ENDBRANCH  12  13
ENDBRANCH   1  12
BRANCH   5  23
ATOM     23  O   UNL     1       3.650   5.164  18.633  0.00  0.00    +0.000 OA
BRANCH  23  24
ATOM     24  C   UNL     1       5.034   5.227  18.667  0.00  0.00    +0.000 C 
ATOM     25  O   UNL     1       5.748   5.316  19.657  0.00  0.00    +0.000 OA
BRANCH  24  26
ATOM     26  C   UNL     1       5.620   5.070  17.316  0.00  0.00    +0.000 A 
ATOM     27  C   UNL     1       5.094   4.030  16.527  0.00  0.00    +0.000 A 
ATOM     28  C   UNL     1       5.639   3.732  15.276  0.00  0.00    +0.000 A 
ATOM     29  C   UNL     1       6.720   4.468  14.801  0.00  0.00    +0.000 A 
ATOM     30  C   UNL     1       7.251   5.503  15.575  0.00  0.00    +0.000 A 
ATOM     31  C   UNL     1       6.709   5.806  16.834  0.00  0.00    +0.000 A 
ATOM     32 CL   UNL     1       7.498   7.044  17.744  0.00  0.00    +0.000 Cl
ENDBRANCH  24  26
ENDBRANCH  23  24
ENDBRANCH   5  23
TORSDOF 5
ENDMDL
