MODEL 1
REMARK VINA RESULT:      -7.3      0.000      0.000
REMARK  Name = 
REMARK  6 active torsions:
REMARK  status: ('A' for Active; 'I' for Inactive)
REMARK    1  A    between atoms: C_1  and  C_2
REMARK    2  A    between atoms: C_2  and  N_3
REMARK    3  A    between atoms: N_3  and  C_4
REMARK    4  A    between atoms: N_3  and  C_6
REMARK    5  A    between atoms: C_4  and  C_5
REMARK    6  A    between atoms: C_10  and  C_11
REMARK                            x       y       z     vdW  Elec       q    Type
REMARK                         _______ _______ _______ _____ _____    ______ ____
ROOT
ATOM      1  C   UNL     1       4.904   5.212  17.357  0.00  0.00    +0.000 A 
ATOM      2  C   UNL     1       3.517   5.404  17.482  0.00  0.00    +0.000 A 
ATOM      3  C   UNL     1       2.723   4.731  18.425  0.00  0.00    +0.000 A 
ATOM      4  C   UNL     1       3.280   3.821  19.316  0.00  0.00    +0.000 A 
ATOM      5  C   UNL     1       2.540   3.101  20.361  0.00  0.00    +0.000 A 
ATOM      6  C   UNL     1       3.223   2.223  21.115  0.00  0.00    +0.000 A 
ATOM      7  C   UNL     1       4.658   1.953  20.966  0.00  0.00    +0.000 A 
ATOM      8  O   UNL     1       5.210   1.122  21.676  0.00  0.00    +0.000 OA
ATOM      9  O   UNL     1       5.329   2.680  20.006  0.00  0.00    +0.000 OA
ATOM     10  C   UNL     1       4.652   3.602  19.185  0.00  0.00    +0.000 A 
ATOM     11  C   UNL     1       5.449   4.272  18.240  0.00  0.00    +0.000 A 
ENDROOT
BRANCH   5  12
ATOM     12  C   UNL     1       1.080   3.298  20.648  0.00  0.00    +0.000 C 
ATOM     13  F   UNL     1       0.663   4.582  20.753  0.00  0.00    +0.000 F 
ATOM     14  F   UNL     1       0.313   2.727  19.681  0.00  0.00    +0.000 F 
ATOM     15  F   UNL     1       0.734   2.694  21.816  0.00  0.00    +0.000 F 
ENDBRANCH   5  12
BRANCH   1  16
ATOM     16  N   UNL     1       5.667   5.925  16.423  0.00  0.00    +0.000 N 
BRANCH  16  18
ATOM     17  C   UNL     1       6.409   4.235  14.779  0.00  0.00    +0.000 C 
ATOM     18  C   UNL     1       5.663   5.545  15.005  0.00  0.00    +0.000 C 
ENDBRANCH  16  18
BRANCH  16  19
ATOM     19  C   UNL     1       6.311   7.175  16.873  0.00  0.00    +0.000 C 
ATOM     20  C   UNL     1       7.564   7.050  17.719  0.00  0.00    +0.000 C 
ENDBRANCH  16  19
ENDBRANCH   1  16
TORSDOF 4
ENDMDL
MODEL 2
REMARK VINA RESULT:      -7.3      0.179      1.501
REMARK  Name = 
REMARK  6 active torsions:
REMARK  status: ('A' for Active; 'I' for Inactive)
REMARK    1  A    between atoms: C_1  and  C_2
REMARK    2  A    between atoms: C_2  and  N_3
REMARK    3  A    between atoms: N_3  and  C_4
REMARK    4  A    between atoms: N_3  and  C_6
REMARK    5  A    between atoms: C_4  and  C_5
REMARK    6  A    between atoms: C_10  and  C_11
REMARK                            x       y       z     vdW  Elec       q    Type
REMARK                         _______ _______ _______ _____ _____    ______ ____
ROOT
ATOM      1  C   UNL     1       4.774   5.393  17.336  0.00  0.00    +0.000 A 
ATOM      2  C   UNL     1       3.386   5.552  17.492  0.00  0.00    +0.000 A 
ATOM      3  C   UNL     1       2.623   4.835  18.428  0.00  0.00    +0.000 A 
ATOM      4  C   UNL     1       3.215   3.911  19.280  0.00  0.00    +0.000 A 
ATOM      5  C   UNL     1       2.509   3.144  20.316  0.00  0.00    +0.000 A 
ATOM      6  C   UNL     1       3.224   2.257  21.030  0.00  0.00    +0.000 A 
ATOM      7  C   UNL     1       4.660   2.021  20.847  0.00  0.00    +0.000 A 
ATOM      8  O   UNL     1       5.243   1.180  21.521  0.00  0.00    +0.000 OA
ATOM      9  O   UNL     1       5.299   2.791  19.897  0.00  0.00    +0.000 OA
ATOM     10  C   UNL     1       4.588   3.723  19.118  0.00  0.00    +0.000 A 
ATOM     11  C   UNL     1       5.353   4.438  18.179  0.00  0.00    +0.000 A 
ENDROOT
BRANCH   5  12
ATOM     12  C   UNL     1       1.051   3.302  20.635  0.00  0.00    +0.000 C 
ATOM     13  F   UNL     1       0.608   4.574  20.773  0.00  0.00    +0.000 F 
ATOM     14  F   UNL     1       0.278   2.731  19.674  0.00  0.00    +0.000 F 
ATOM     15  F   UNL     1       0.742   2.669  21.799  0.00  0.00    +0.000 F 
ENDBRANCH   5  12
BRANCH   1  16
ATOM     16  N   UNL     1       5.505   6.150  16.411  0.00  0.00    +0.000 N 
BRANCH  16  18
ATOM     17  C   UNL     1       7.556   6.999  17.499  0.00  0.00    +0.000 C 
ATOM     18  C   UNL     1       6.231   7.354  16.835  0.00  0.00    +0.000 C 
ENDBRANCH  16  18
BRANCH  16  19
ATOM     19  C   UNL     1       5.679   5.595  15.055  0.00  0.00    +0.000 C 
ATOM     20  C   UNL     1       6.730   4.518  14.870  0.00  0.00    +0.000 C 
ENDBRANCH  16  19
ENDBRANCH   1  16
TORSDOF 4
ENDMDL
MODEL 3
REMARK VINA RESULT:      -7.2      2.353      3.302
REMARK  Name = 
REMARK  6 active torsions:
REMARK  status: ('A' for Active; 'I' for Inactive)
REMARK    1  A    between atoms: C_1  and  C_2
REMARK    2  A    between atoms: C_2  and  N_3
REMARK    3  A    between atoms: N_3  and  C_4
REMARK    4  A    between atoms: N_3  and  C_6
REMARK    5  A    between atoms: C_4  and  C_5
REMARK    6  A    between atoms: C_10  and  C_11
REMARK                            x       y       z     vdW  Elec       q    Type
REMARK                         _______ _______ _______ _____ _____    ______ ____
ROOT
ATOM      1  C   UNL     1       4.909   4.768  16.804  0.00  0.00    +0.000 A 
ATOM      2  C   UNL     1       4.427   3.489  17.132  0.00  0.00    +0.000 A 
ATOM      3  C   UNL     1       3.456   3.256  18.119  0.00  0.00    +0.000 A 
ATOM      4  C   UNL     1       2.897   4.305  18.839  0.00  0.00    +0.000 A 
ATOM      5  C   UNL     1       1.849   4.164  19.859  0.00  0.00    +0.000 A 
ATOM      6  C   UNL     1       1.445   5.278  20.495  0.00  0.00    +0.000 A 
ATOM      7  C   UNL     1       1.975   6.619  20.221  0.00  0.00    +0.000 A 
ATOM      8  O   UNL     1       1.574   7.587  20.855  0.00  0.00    +0.000 OA
ATOM      9  O   UNL     1       2.925   6.718  19.225  0.00  0.00    +0.000 OA
ATOM     10  C   UNL     1       3.386   5.577  18.543  0.00  0.00    +0.000 A 
ATOM     11  C   UNL     1       4.361   5.813  17.556  0.00  0.00    +0.000 A 
ENDROOT
BRANCH   5  12
ATOM     12  C   UNL     1       1.193   2.863  20.221  0.00  0.00    +0.000 C 
ATOM     13  F   UNL     1       1.976   1.762  20.143  0.00  0.00    +0.000 F 
ATOM     14  F   UNL     1       0.711   2.899  21.492  0.00  0.00    +0.000 F 
ATOM     15  F   UNL     1       0.125   2.623  19.414  0.00  0.00    +0.000 F 
ENDBRANCH   5  12
BRANCH   1  16
ATOM     16  N   UNL     1       5.857   4.963  15.791  0.00  0.00    +0.000 N 
BRANCH  16  18
ATOM     17  C   UNL     1       7.610   4.607  17.497  0.00  0.00    +0.000 C 
ATOM     18  C   UNL     1       7.274   5.163  16.119  0.00  0.00    +0.000 C 
ENDBRANCH  16  18
BRANCH  16  19
ATOM     19  C   UNL     1       5.421   4.766  14.395  0.00  0.00    +0.000 C 
ATOM     20  C   UNL     1       6.216   3.793  13.544  0.00  0.00    +0.000 C 
ENDBRANCH  16  19
ENDBRANCH   1  16
TORSDOF 4
ENDMDL
MODEL 4
REMARK VINA RESULT:      -7.2      2.232      3.389
REMARK  Name = 
REMARK  6 active torsions:
REMARK  status: ('A' for Active; 'I' for Inactive)
REMARK    1  A    between atoms: C_1  and  C_2
REMARK    2  A    between atoms: C_2  and  N_3
REMARK    3  A    between atoms: N_3  and  C_4
REMARK    4  A    between atoms: N_3  and  C_6
REMARK    5  A    between atoms: C_4  and  C_5
REMARK    6  A    between atoms: C_10  and  C_11
REMARK                            x       y       z     vdW  Elec       q    Type
REMARK                         _______ _______ _______ _____ _____    ______ ____
ROOT
ATOM      1  C   UNL     1       5.508   5.244  17.792  0.00  0.00    +0.000 A 
ATOM      2  C   UNL     1       5.360   3.937  18.287  0.00  0.00    +0.000 A 
ATOM      3  C   UNL     1       4.357   3.561  19.196  0.00  0.00    +0.000 A 
ATOM      4  C   UNL     1       3.427   4.482  19.661  0.00  0.00    +0.000 A 
ATOM      5  C   UNL     1       2.320   4.175  20.578  0.00  0.00    +0.000 A 
ATOM      6  C   UNL     1       1.531   5.193  20.965  0.00  0.00    +0.000 A 
ATOM      7  C   UNL     1       1.700   6.579  20.516  0.00  0.00    +0.000 A 
ATOM      8  O   UNL     1       0.954   7.460  20.928  0.00  0.00    +0.000 OA
ATOM      9  O   UNL     1       2.720   6.822  19.621  0.00  0.00    +0.000 OA
ATOM     10  C   UNL     1       3.579   5.789  19.199  0.00  0.00    +0.000 A 
ATOM     11  C   UNL     1       4.584   6.169  18.291  0.00  0.00    +0.000 A 
ENDROOT
BRANCH   5  12
ATOM     12  C   UNL     1       2.009   2.800  21.093  0.00  0.00    +0.000 C 
ATOM     13  F   UNL     1       2.960   2.226  21.868  0.00  0.00    +0.000 F 
ATOM     14  F   UNL     1       0.867   2.804  21.830  0.00  0.00    +0.000 F 
ATOM     15  F   UNL     1       1.794   1.938  20.062  0.00  0.00    +0.000 F 
ENDBRANCH   5  12
BRANCH   1  16
ATOM     16  N   UNL     1       6.503   5.574  16.863  0.00  0.00    +0.000 N 
BRANCH  16  18
ATOM     17  C   UNL     1       7.973   6.883  18.358  0.00  0.00    +0.000 C 
ATOM     18  C   UNL     1       7.280   6.812  17.002  0.00  0.00    +0.000 C 
ENDBRANCH  16  18
BRANCH  16  19
ATOM     19  C   UNL     1       6.874   4.553  15.864  0.00  0.00    +0.000 C 
ATOM     20  C   UNL     1       6.091   4.529  14.565  0.00  0.00    +0.000 C 
ENDBRANCH  16  19
ENDBRANCH   1  16
TORSDOF 4
ENDMDL
MODEL 5
REMARK VINA RESULT:      -7.2      2.368      3.004
REMARK  Name = 
REMARK  6 active torsions:
REMARK  status: ('A' for Active; 'I' for Inactive)
REMARK    1  A    between atoms: C_1  and  C_2
REMARK    2  A    between atoms: C_2  and  N_3
REMARK    3  A    between atoms: N_3  and  C_4
REMARK    4  A    between atoms: N_3  and  C_6
REMARK    5  A    between atoms: C_4  and  C_5
REMARK    6  A    between atoms: C_10  and  C_11
REMARK                            x       y       z     vdW  Elec       q    Type
REMARK                         _______ _______ _______ _____ _____    ______ ____
ROOT
ATOM      1  C   UNL     1       4.849   4.509  16.729  0.00  0.00    +0.000 A 
ATOM      2  C   UNL     1       4.346   3.268  17.157  0.00  0.00    +0.000 A 
ATOM      3  C   UNL     1       3.399   3.128  18.184  0.00  0.00    +0.000 A 
ATOM      4  C   UNL     1       2.886   4.237  18.845  0.00  0.00    +0.000 A 
ATOM      5  C   UNL     1       1.865   4.194  19.901  0.00  0.00    +0.000 A 
ATOM      6  C   UNL     1       1.506   5.359  20.468  0.00  0.00    +0.000 A 
ATOM      7  C   UNL     1       2.060   6.663  20.088  0.00  0.00    +0.000 A 
ATOM      8  O   UNL     1       1.701   7.682  20.664  0.00  0.00    +0.000 OA
ATOM      9  O   UNL     1       2.982   6.670  19.063  0.00  0.00    +0.000 OA
ATOM     10  C   UNL     1       3.397   5.474  18.448  0.00  0.00    +0.000 A 
ATOM     11  C   UNL     1       4.347   5.616  17.422  0.00  0.00    +0.000 A 
ENDROOT
BRANCH   5  12
ATOM     12  C   UNL     1       1.190   2.938  20.369  0.00  0.00    +0.000 C 
ATOM     13  F   UNL     1       1.913   1.799  20.261  0.00  0.00    +0.000 F 
ATOM     14  F   UNL     1       0.829   3.039  21.676  0.00  0.00    +0.000 F 
ATOM     15  F   UNL     1       0.041   2.721  19.673  0.00  0.00    +0.000 F 
ENDBRANCH   5  12
BRANCH   1  16
ATOM     16  N   UNL     1       5.772   4.609  15.679  0.00  0.00    +0.000 N 
BRANCH  16  18
ATOM     17  C   UNL     1       6.320   3.810  13.405  0.00  0.00    +0.000 C 
ATOM     18  C   UNL     1       5.325   4.561  14.281  0.00  0.00    +0.000 C 
ENDBRANCH  16  18
BRANCH  16  19
ATOM     19  C   UNL     1       7.165   4.956  16.020  0.00  0.00    +0.000 C 
ATOM     20  C   UNL     1       7.664   4.569  17.399  0.00  0.00    +0.000 C 
ENDBRANCH  16  19
ENDBRANCH   1  16
TORSDOF 4
ENDMDL
MODEL 6
REMARK VINA RESULT:      -7.1      2.238      2.948
REMARK  Name = 
REMARK  6 active torsions:
REMARK  status: ('A' for Active; 'I' for Inactive)
REMARK    1  A    between atoms: C_1  and  C_2
REMARK    2  A    between atoms: C_2  and  N_3
REMARK    3  A    between atoms: N_3  and  C_4
REMARK    4  A    between atoms: N_3  and  C_6
REMARK    5  A    between atoms: C_4  and  C_5
REMARK    6  A    between atoms: C_10  and  C_11
REMARK                            x       y       z     vdW  Elec       q    Type
REMARK                         _______ _______ _______ _____ _____    ______ ____
ROOT
ATOM      1  C   UNL     1       5.162   5.300  17.454  0.00  0.00    +0.000 A 
ATOM      2  C   UNL     1       5.041   3.985  17.937  0.00  0.00    +0.000 A 
ATOM      3  C   UNL     1       4.126   3.606  18.933  0.00  0.00    +0.000 A 
ATOM      4  C   UNL     1       3.261   4.531  19.505  0.00  0.00    +0.000 A 
ATOM      5  C   UNL     1       2.246   4.222  20.521  0.00  0.00    +0.000 A 
ATOM      6  C   UNL     1       1.516   5.244  21.002  0.00  0.00    +0.000 A 
ATOM      7  C   UNL     1       1.663   6.636  20.565  0.00  0.00    +0.000 A 
ATOM      8  O   UNL     1       0.976   7.520  21.064  0.00  0.00    +0.000 OA
ATOM      9  O   UNL     1       2.594   6.881  19.578  0.00  0.00    +0.000 OA
ATOM     10  C   UNL     1       3.390   5.845  19.054  0.00  0.00    +0.000 A 
ATOM     11  C   UNL     1       4.306   6.228  18.059  0.00  0.00    +0.000 A 
ENDROOT
BRANCH   5  12
ATOM     12  C   UNL     1       1.964   2.842  21.038  0.00  0.00    +0.000 C 
ATOM     13  F   UNL     1       1.700   1.899  20.103  0.00  0.00    +0.000 F 
ATOM     14  F   UNL     1       3.010   2.373  21.768  0.00  0.00    +0.000 F 
ATOM     15  F   UNL     1       0.890   2.852  21.874  0.00  0.00    +0.000 F 
ENDBRANCH   5  12
BRANCH   1  16
ATOM     16  N   UNL     1       6.066   5.633  16.437  0.00  0.00    +0.000 N 
BRANCH  16  18
ATOM     17  C   UNL     1       6.296   4.044  14.557  0.00  0.00    +0.000 C 
ATOM     18  C   UNL     1       5.736   5.381  15.029  0.00  0.00    +0.000 C 
ENDBRANCH  16  18
BRANCH  16  19
ATOM     19  C   UNL     1       7.262   6.413  16.810  0.00  0.00    +0.000 C 
ATOM     20  C   UNL     1       7.742   6.313  18.245  0.00  0.00    +0.000 C 
ENDBRANCH  16  19
ENDBRANCH   1  16
TORSDOF 4
ENDMDL
MODEL 7
REMARK VINA RESULT:      -7.0      4.031      6.395
REMARK  Name = 
REMARK  6 active torsions:
REMARK  status: ('A' for Active; 'I' for Inactive)
REMARK    1  A    between atoms: C_1  and  C_2
REMARK    2  A    between atoms: C_2  and  N_3
REMARK    3  A    between atoms: N_3  and  C_4
REMARK    4  A    between atoms: N_3  and  C_6
REMARK    5  A    between atoms: C_4  and  C_5
REMARK    6  A    between atoms: C_10  and  C_11
REMARK                            x       y       z     vdW  Elec       q    Type
REMARK                         _______ _______ _______ _____ _____    ______ ____
ROOT
ATOM      1  C   UNL     1       3.463   3.790  19.097  0.00  0.00    +0.000 A 
ATOM      2  C   UNL     1       3.408   3.440  17.736  0.00  0.00    +0.000 A 
ATOM      3  C   UNL     1       4.342   3.880  16.784  0.00  0.00    +0.000 A 
ATOM      4  C   UNL     1       5.404   4.701  17.145  0.00  0.00    +0.000 A 
ATOM      5  C   UNL     1       6.451   5.178  16.230  0.00  0.00    +0.000 A 
ATOM      6  C   UNL     1       7.388   6.001  16.732  0.00  0.00    +0.000 A 
ATOM      7  C   UNL     1       7.434   6.437  18.132  0.00  0.00    +0.000 A 
ATOM      8  O   UNL     1       8.307   7.207  18.514  0.00  0.00    +0.000 OA
ATOM      9  O   UNL     1       6.463   5.933  18.971  0.00  0.00    +0.000 OA
ATOM     10  C   UNL     1       5.455   5.078  18.487  0.00  0.00    +0.000 A 
ATOM     11  C   UNL     1       4.520   4.641  19.442  0.00  0.00    +0.000 A 
ENDROOT
BRANCH   5  12
ATOM     12  C   UNL     1       6.547   4.790  14.783  0.00  0.00    +0.000 C 
ATOM     13  F   UNL     1       6.592   3.462  14.526  0.00  0.00    +0.000 F 
ATOM     14  F   UNL     1       5.493   5.281  14.078  0.00  0.00    +0.000 F 
ATOM     15  F   UNL     1       7.664   5.321  14.217  0.00  0.00    +0.000 F 
ENDBRANCH   5  12
BRANCH   1  16
ATOM     16  N   UNL     1       2.529   3.305  20.022  0.00  0.00    +0.000 N 
BRANCH  16  18
ATOM     17  C   UNL     1       1.454   5.392  20.796  0.00  0.00    +0.000 C 
ATOM     18  C   UNL     1       2.157   4.101  21.199  0.00  0.00    +0.000 C 
ENDBRANCH  16  18
BRANCH  16  19
ATOM     19  C   UNL     1       1.797   2.072  19.676  0.00  0.00    +0.000 C 
ATOM     20  C   UNL     1       0.520   2.220  18.871  0.00  0.00    +0.000 C 
ENDBRANCH  16  19
ENDBRANCH   1  16
TORSDOF 4
ENDMDL
MODEL 8
REMARK VINA RESULT:      -7.0      2.228      3.245
REMARK  Name = 
REMARK  6 active torsions:
REMARK  status: ('A' for Active; 'I' for Inactive)
REMARK    1  A    between atoms: C_1  and  C_2
REMARK    2  A    between atoms: C_2  and  N_3
REMARK    3  A    between atoms: N_3  and  C_4
REMARK    4  A    between atoms: N_3  and  C_6
REMARK    5  A    between atoms: C_4  and  C_5
REMARK    6  A    between atoms: C_10  and  C_11
REMARK                            x       y       z     vdW  Elec       q    Type
REMARK                         _______ _______ _______ _____ _____    ______ ____
ROOT
ATOM      1  C   UNL     1       4.997   5.188  17.190  0.00  0.00    +0.000 A 
ATOM      2  C   UNL     1       4.570   3.865  17.401  0.00  0.00    +0.000 A 
ATOM      3  C   UNL     1       3.550   3.514  18.299  0.00  0.00    +0.000 A 
ATOM      4  C   UNL     1       2.881   4.480  19.041  0.00  0.00    +0.000 A 
ATOM      5  C   UNL     1       1.776   4.215  19.973  0.00  0.00    +0.000 A 
ATOM      6  C   UNL     1       1.265   5.260  20.646  0.00  0.00    +0.000 A 
ATOM      7  C   UNL     1       1.732   6.643  20.495  0.00  0.00    +0.000 A 
ATOM      8  O   UNL     1       1.232   7.543  21.159  0.00  0.00    +0.000 OA
ATOM      9  O   UNL     1       2.740   6.860  19.579  0.00  0.00    +0.000 OA
ATOM     10  C   UNL     1       3.314   5.794  18.861  0.00  0.00    +0.000 A 
ATOM     11  C   UNL     1       4.338   6.148  17.965  0.00  0.00    +0.000 A 
ENDROOT
BRANCH   5  12
ATOM     12  C   UNL     1       1.176   2.859  20.204  0.00  0.00    +0.000 C 
ATOM     13  F   UNL     1       0.162   2.509  19.378  0.00  0.00    +0.000 F 
ATOM     14  F   UNL     1       2.117   1.884  20.087  0.00  0.00    +0.000 F 
ATOM     15  F   UNL     1       0.682   2.761  21.468  0.00  0.00    +0.000 F 
ENDBRANCH   5  12
BRANCH   1  16
ATOM     16  N   UNL     1       5.999   5.501  16.262  0.00  0.00    +0.000 N 
BRANCH  16  18
ATOM     17  C   UNL     1       7.457   7.173  17.352  0.00  0.00    +0.000 C 
ATOM     18  C   UNL     1       7.367   5.796  16.706  0.00  0.00    +0.000 C 
ENDBRANCH  16  18
BRANCH  16  19
ATOM     19  C   UNL     1       5.685   5.335  14.830  0.00  0.00    +0.000 C 
ATOM     20  C   UNL     1       6.210   4.091  14.138  0.00  0.00    +0.000 C 
ENDBRANCH  16  19
ENDBRANCH   1  16
TORSDOF 4
ENDMDL
MODEL 9
REMARK VINA RESULT:      -7.0      4.032      6.429
REMARK  Name = 
REMARK  6 active torsions:
REMARK  status: ('A' for Active; 'I' for Inactive)
REMARK    1  A    between atoms: C_1  and  C_2
REMARK    2  A    between atoms: C_2  and  N_3
REMARK    3  A    between atoms: N_3  and  C_4
REMARK    4  A    between atoms: N_3  and  C_6
REMARK    5  A    between atoms: C_4  and  C_5
REMARK    6  A    between atoms: C_10  and  C_11
REMARK                            x       y       z     vdW  Elec       q    Type
REMARK                         _______ _______ _______ _____ _____    ______ ____
ROOT
ATOM      1  C   UNL     1       3.713   3.116  18.915  0.00  0.00    +0.000 A 
ATOM      2  C   UNL     1       3.661   2.917  17.524  0.00  0.00    +0.000 A 
ATOM      3  C   UNL     1       4.528   3.549  16.618  0.00  0.00    +0.000 A 
ATOM      4  C   UNL     1       5.516   4.422  17.058  0.00  0.00    +0.000 A 
ATOM      5  C   UNL     1       6.492   5.097  16.192  0.00  0.00    +0.000 A 
ATOM      6  C   UNL     1       7.358   5.945  16.773  0.00  0.00    +0.000 A 
ATOM      7  C   UNL     1       7.395   6.223  18.214  0.00  0.00    +0.000 A 
ATOM      8  O   UNL     1       8.199   7.026  18.671  0.00  0.00    +0.000 OA
ATOM      9  O   UNL     1       6.493   5.537  19.000  0.00  0.00    +0.000 OA
ATOM     10  C   UNL     1       5.560   4.649  18.433  0.00  0.00    +0.000 A 
ATOM     11  C   UNL     1       4.692   4.019  19.343  0.00  0.00    +0.000 A 
ENDROOT
BRANCH   5  12
ATOM     12  C   UNL     1       6.592   4.886  14.709  0.00  0.00    +0.000 C 
ATOM     13  F   UNL     1       5.555   5.348  13.972  0.00  0.00    +0.000 F 
ATOM     14  F   UNL     1       7.709   5.477  14.208  0.00  0.00    +0.000 F 
ATOM     15  F   UNL     1       6.699   3.561  14.419  0.00  0.00    +0.000 F 
ENDBRANCH   5  12
BRANCH   1  16
ATOM     16  N   UNL     1       2.850   2.442  19.789  0.00  0.00    +0.000 N 
BRANCH  16  18
ATOM     17  C   UNL     1       1.895   3.274  21.913  0.00  0.00    +0.000 C 
ATOM     18  C   UNL     1       3.041   2.525  21.243  0.00  0.00    +0.000 C 
ENDBRANCH  16  18
BRANCH  16  19
ATOM     19  C   UNL     1       1.642   1.817  19.217  0.00  0.00    +0.000 C 
ATOM     20  C   UNL     1       0.508   2.735  18.802  0.00  0.00    +0.000 C 
ENDBRANCH  16  19
ENDBRANCH   1  16
TORSDOF 4
ENDMDL
