MODEL 1
REMARK VINA RESULT:      -8.7      0.000      0.000
REMARK  Name = 
REMARK  10 active torsions:
REMARK  status: ('A' for Active; 'I' for Inactive)
REMARK    1  A    between atoms: N_1  and  C_2
REMARK    2  A    between atoms: C_4  and  C_5
REMARK    3  A    between atoms: C_6  and  C_7
REMARK    4  A    between atoms: C_7  and  C_8
REMARK    5  A    between atoms: C_8  and  C_9
REMARK    6  A    between atoms: N_19  and  C1*_20
REMARK    7  A    between atoms: C4*_22  and  C5*_23
REMARK    8  A    between atoms: C5*_23  and  O5*_24
REMARK    9  A    between atoms: C3*_25  and  O3*_26
REMARK   10  A    between atoms: C2*_27  and  O2*_28
REMARK                            x       y       z     vdW  Elec       q    Type
REMARK                         _______ _______ _______ _____ _____    ______ ____
ROOT
ATOM      1  C   UNL     1       6.792   5.221  15.480  0.00  0.00    +0.000 A 
ATOM      2  N   UNL     1       7.437   6.288  16.021  0.00  0.00    +0.000 NA
ATOM      3  C   UNL     1       7.039   6.725  17.233  0.00  0.00    +0.000 A 
ATOM      4  N   UNL     1       6.054   6.240  18.021  0.00  0.00    +0.000 NA
ATOM      5  C   UNL     1       5.430   5.204  17.430  0.00  0.00    +0.000 A 
ATOM      6  C   UNL     1       5.720   4.656  16.195  0.00  0.00    +0.000 A 
ATOM      7  N   UNL     1       4.872   3.605  15.908  0.00  0.00    +0.000 NA
ATOM      8  C   UNL     1       4.107   3.493  16.975  0.00  0.00    +0.000 A 
ATOM      9  N   UNL     1       4.411   4.436  17.924  0.00  0.00    +0.000 N 
ENDROOT
BRANCH   9  10
ATOM     10  C1* UNL     1       3.822   4.486  19.248  0.00  0.00    +0.000 C 
ATOM     11  O4* UNL     1       3.427   3.161  19.652  0.00  0.00    +0.000 OA
ATOM     12  C4* UNL     1       2.102   3.232  20.244  0.00  0.00    +0.000 C 
ATOM     13  C3* UNL     1       1.791   4.714  20.438  0.00  0.00    +0.000 C 
ATOM     14  C2* UNL     1       2.609   5.406  19.359  0.00  0.00    +0.000 C 
BRANCH  13  15
ATOM     15  O3* UNL     1       2.260   5.192  21.714  0.00  0.00    +0.000 OA
ATOM     16  H3* UNL     1       2.927   4.570  22.061  0.00  0.00    +0.000 HD
ENDBRANCH  13  15
BRANCH  14  17
ATOM     17  O2* UNL     1       2.986   6.729  19.750  0.00  0.00    +0.000 OA
ATOM     18  H2* UNL     1       3.964   6.727  19.823  0.00  0.00    +0.000 HD
ENDBRANCH  14  17
BRANCH  12  19
ATOM     19  C5* UNL     1       1.107   2.505  19.340  0.00  0.00    +0.000 C 
BRANCH  19  20
ATOM     20  O5* UNL     1       1.706   1.353  18.754  0.00  0.00    +0.000 OA
ATOM     21  H5* UNL     1       2.299   0.964  19.428  0.00  0.00    +0.000 HD
ENDBRANCH  19  20
ENDBRANCH  12  19
ENDBRANCH   9  10
BRANCH   1  22
ATOM     22  N   UNL     1       7.218   4.709  14.270  0.00  0.00    +0.000 N 
ATOM     23  H   UNL     1       7.243   5.372  13.508  0.00  0.00    +0.000 HD
ATOM     24  H   UNL     1       6.928   3.754  14.081  0.00  0.00    +0.000 HD
ENDBRANCH   1  22
BRANCH   3  25
ATOM     25  C   UNL     1       7.758   7.847  17.778  0.00  0.00    +0.000 C 
ATOM     26  C   UNL     1       8.417   8.852  18.283  0.00  0.00    +0.000 C 
BRANCH  26  27
ATOM     27  C   UNL     1       9.185  10.025  18.871  0.00  0.00    +0.000 C 
BRANCH  27  28
ATOM     28  C   UNL     1       9.296  11.212  17.925  0.00  0.00    +0.000 C 
BRANCH  28  29
ATOM     29  C   UNL     1      10.635  11.938  18.113  0.00  0.00    +0.000 C 
ATOM     30  C   UNL     1      10.510  13.458  18.119  0.00  0.00    +0.000 C 
ATOM     31  C   UNL     1      11.840  13.928  18.702  0.00  0.00    +0.000 C 
ATOM     32  C   UNL     1      12.317  12.809  19.625  0.00  0.00    +0.000 C 
ATOM     33  C   UNL     1      11.316  11.670  19.455  0.00  0.00    +0.000 C 
ENDBRANCH  28  29
ENDBRANCH  27  28
ENDBRANCH  26  27
ENDBRANCH   3  25
TORSDOF 10
ENDMDL
MODEL 2
REMARK VINA RESULT:      -8.5      1.116      1.571
REMARK  Name = 
REMARK  10 active torsions:
REMARK  status: ('A' for Active; 'I' for Inactive)
REMARK    1  A    between atoms: N_1  and  C_2
REMARK    2  A    between atoms: C_4  and  C_5
REMARK    3  A    between atoms: C_6  and  C_7
REMARK    4  A    between atoms: C_7  and  C_8
REMARK    5  A    between atoms: C_8  and  C_9
REMARK    6  A    between atoms: N_19  and  C1*_20
REMARK    7  A    between atoms: C4*_22  and  C5*_23
REMARK    8  A    between atoms: C5*_23  and  O5*_24
REMARK    9  A    between atoms: C3*_25  and  O3*_26
REMARK   10  A    between atoms: C2*_27  and  O2*_28
REMARK                            x       y       z     vdW  Elec       q    Type
REMARK                         _______ _______ _______ _____ _____    ______ ____
ROOT
ATOM      1  C   UNL     1       7.051   5.412  15.529  0.00  0.00    +0.000 A 
ATOM      2  N   UNL     1       7.640   6.500  16.091  0.00  0.00    +0.000 NA
ATOM      3  C   UNL     1       7.205   6.906  17.301  0.00  0.00    +0.000 A 
ATOM      4  N   UNL     1       6.231   6.370  18.068  0.00  0.00    +0.000 NA
ATOM      5  C   UNL     1       5.662   5.314  17.458  0.00  0.00    +0.000 A 
ATOM      6  C   UNL     1       5.994   4.793  16.222  0.00  0.00    +0.000 A 
ATOM      7  N   UNL     1       5.199   3.709  15.911  0.00  0.00    +0.000 NA
ATOM      8  C   UNL     1       4.423   3.552  16.965  0.00  0.00    +0.000 A 
ATOM      9  N   UNL     1       4.671   4.496  17.928  0.00  0.00    +0.000 N 
ENDROOT
BRANCH   9  10
ATOM     10  C1* UNL     1       4.060   4.507  19.243  0.00  0.00    +0.000 C 
ATOM     11  O4* UNL     1       3.756   3.157  19.645  0.00  0.00    +0.000 OA
ATOM     12  C4* UNL     1       2.420   3.134  20.217  0.00  0.00    +0.000 C 
ATOM     13  C3* UNL     1       2.000   4.590  20.403  0.00  0.00    +0.000 C 
ATOM     14  C2* UNL     1       2.782   5.337  19.334  0.00  0.00    +0.000 C 
BRANCH  13  15
ATOM     15  O3* UNL     1       2.414   5.103  21.683  0.00  0.00    +0.000 OA
ATOM     16  H3* UNL     1       2.728   4.362  22.236  0.00  0.00    +0.000 HD
ENDBRANCH  13  15
BRANCH  14  17
ATOM     17  O2* UNL     1       3.057   6.684  19.726  0.00  0.00    +0.000 OA
ATOM     18  H2* UNL     1       2.399   7.245  19.262  0.00  0.00    +0.000 HD
ENDBRANCH  14  17
BRANCH  12  19
ATOM     19  C5* UNL     1       1.494   2.335  19.301  0.00  0.00    +0.000 C 
BRANCH  19  20
ATOM     20  O5* UNL     1       0.128   2.629  19.582  0.00  0.00    +0.000 OA
ATOM     21  H5* UNL     1       0.096   3.549  19.912  0.00  0.00    +0.000 HD
ENDBRANCH  19  20
ENDBRANCH  12  19
ENDBRANCH   9  10
BRANCH   1  22
ATOM     22  N   UNL     1       7.518   4.933  14.321  0.00  0.00    +0.000 N 
ATOM     23  H   UNL     1       8.310   4.308  14.384  0.00  0.00    +0.000 HD
ATOM     24  H   UNL     1       7.474   5.594  13.551  0.00  0.00    +0.000 HD
ENDBRANCH   1  22
BRANCH   3  25
ATOM     25  C   UNL     1       7.864   8.053  17.869  0.00  0.00    +0.000 C 
ATOM     26  C   UNL     1       8.447   9.102  18.381  0.00  0.00    +0.000 C 
BRANCH  26  27
ATOM     27  C   UNL     1       9.126  10.323  18.979  0.00  0.00    +0.000 C 
BRANCH  27  28
ATOM     28  C   UNL     1       9.868  11.167  17.953  0.00  0.00    +0.000 C 
BRANCH  28  29
ATOM     29  C   UNL     1       9.244  12.565  17.840  0.00  0.00    +0.000 C 
ATOM     30  C   UNL     1       7.830  12.559  17.269  0.00  0.00    +0.000 C 
ATOM     31  C   UNL     1       7.293  13.944  17.619  0.00  0.00    +0.000 C 
ATOM     32  C   UNL     1       8.018  14.370  18.895  0.00  0.00    +0.000 C 
ATOM     33  C   UNL     1       9.044  13.277  19.178  0.00  0.00    +0.000 C 
ENDBRANCH  28  29
ENDBRANCH  27  28
ENDBRANCH  26  27
ENDBRANCH   3  25
TORSDOF 10
ENDMDL
MODEL 3
REMARK VINA RESULT:      -8.4      0.800      1.071
REMARK  Name = 
REMARK  10 active torsions:
REMARK  status: ('A' for Active; 'I' for Inactive)
REMARK    1  A    between atoms: N_1  and  C_2
REMARK    2  A    between atoms: C_4  and  C_5
REMARK    3  A    between atoms: C_6  and  C_7
REMARK    4  A    between atoms: C_7  and  C_8
REMARK    5  A    between atoms: C_8  and  C_9
REMARK    6  A    between atoms: N_19  and  C1*_20
REMARK    7  A    between atoms: C4*_22  and  C5*_23
REMARK    8  A    between atoms: C5*_23  and  O5*_24
REMARK    9  A    between atoms: C3*_25  and  O3*_26
REMARK   10  A    between atoms: C2*_27  and  O2*_28
REMARK                            x       y       z     vdW  Elec       q    Type
REMARK                         _______ _______ _______ _____ _____    ______ ____
ROOT
ATOM      1  C   UNL     1       7.053   5.438  15.532  0.00  0.00    +0.000 A 
ATOM      2  N   UNL     1       7.632   6.538  16.083  0.00  0.00    +0.000 NA
ATOM      3  C   UNL     1       7.198   6.946  17.294  0.00  0.00    +0.000 A 
ATOM      4  N   UNL     1       6.236   6.402  18.070  0.00  0.00    +0.000 NA
ATOM      5  C   UNL     1       5.677   5.335  17.469  0.00  0.00    +0.000 A 
ATOM      6  C   UNL     1       6.008   4.810  16.234  0.00  0.00    +0.000 A 
ATOM      7  N   UNL     1       5.225   3.714  15.935  0.00  0.00    +0.000 NA
ATOM      8  C   UNL     1       4.458   3.554  16.995  0.00  0.00    +0.000 A 
ATOM      9  N   UNL     1       4.699   4.507  17.950  0.00  0.00    +0.000 N 
ENDROOT
BRANCH   9  10
ATOM     10  C1* UNL     1       4.096   4.518  19.269  0.00  0.00    +0.000 C 
ATOM     11  O4* UNL     1       3.788   3.168  19.670  0.00  0.00    +0.000 OA
ATOM     12  C4* UNL     1       2.455   3.150  20.250  0.00  0.00    +0.000 C 
ATOM     13  C3* UNL     1       2.043   4.608  20.441  0.00  0.00    +0.000 C 
ATOM     14  C2* UNL     1       2.823   5.353  19.369  0.00  0.00    +0.000 C 
BRANCH  13  15
ATOM     15  O3* UNL     1       2.468   5.116  21.720  0.00  0.00    +0.000 OA
ATOM     16  H3* UNL     1       3.411   5.363  21.667  0.00  0.00    +0.000 HD
ENDBRANCH  13  15
BRANCH  14  17
ATOM     17  O2* UNL     1       3.106   6.699  19.762  0.00  0.00    +0.000 OA
ATOM     18  H2* UNL     1       3.290   6.671  20.725  0.00  0.00    +0.000 HD
ENDBRANCH  14  17
BRANCH  12  19
ATOM     19  C5* UNL     1       1.520   2.358  19.337  0.00  0.00    +0.000 C 
BRANCH  19  20
ATOM     20  O5* UNL     1       2.256   1.437  18.537  0.00  0.00    +0.000 OA
ATOM     21  H5* UNL     1       2.277   1.801  17.629  0.00  0.00    +0.000 HD
ENDBRANCH  19  20
ENDBRANCH  12  19
ENDBRANCH   9  10
BRANCH   1  22
ATOM     22  N   UNL     1       7.519   4.958  14.324  0.00  0.00    +0.000 N 
ATOM     23  H   UNL     1       6.855   4.994  13.563  0.00  0.00    +0.000 HD
ATOM     24  H   UNL     1       8.146   4.162  14.391  0.00  0.00    +0.000 HD
ENDBRANCH   1  22
BRANCH   3  25
ATOM     25  C   UNL     1       7.846   8.104  17.850  0.00  0.00    +0.000 C 
ATOM     26  C   UNL     1       8.418   9.159  18.362  0.00  0.00    +0.000 C 
BRANCH  26  27
ATOM     27  C   UNL     1       9.085  10.387  18.958  0.00  0.00    +0.000 C 
BRANCH  27  28
ATOM     28  C   UNL     1      10.161  10.987  18.064  0.00  0.00    +0.000 C 
BRANCH  28  29
ATOM     29  C   UNL     1       9.827  12.441  17.705  0.00  0.00    +0.000 C 
ATOM     30  C   UNL     1       9.105  13.194  18.816  0.00  0.00    +0.000 C 
ATOM     31  C   UNL     1       9.239  14.658  18.408  0.00  0.00    +0.000 C 
ATOM     32  C   UNL     1      10.534  14.757  17.604  0.00  0.00    +0.000 C 
ATOM     33  C   UNL     1      11.048  13.328  17.461  0.00  0.00    +0.000 C 
ENDBRANCH  28  29
ENDBRANCH  27  28
ENDBRANCH  26  27
ENDBRANCH   3  25
TORSDOF 10
ENDMDL
MODEL 4
REMARK VINA RESULT:      -8.3      1.174      1.273
REMARK  Name = 
REMARK  10 active torsions:
REMARK  status: ('A' for Active; 'I' for Inactive)
REMARK    1  A    between atoms: N_1  and  C_2
REMARK    2  A    between atoms: C_4  and  C_5
REMARK    3  A    between atoms: C_6  and  C_7
REMARK    4  A    between atoms: C_7  and  C_8
REMARK    5  A    between atoms: C_8  and  C_9
REMARK    6  A    between atoms: N_19  and  C1*_20
REMARK    7  A    between atoms: C4*_22  and  C5*_23
REMARK    8  A    between atoms: C5*_23  and  O5*_24
REMARK    9  A    between atoms: C3*_25  and  O3*_26
REMARK   10  A    between atoms: C2*_27  and  O2*_28
REMARK                            x       y       z     vdW  Elec       q    Type
REMARK                         _______ _______ _______ _____ _____    ______ ____
ROOT
ATOM      1  C   UNL     1       7.026   5.253  15.761  0.00  0.00    +0.000 A 
ATOM      2  N   UNL     1       7.648   6.384  16.187  0.00  0.00    +0.000 NA
ATOM      3  C   UNL     1       7.174   6.992  17.294  0.00  0.00    +0.000 A 
ATOM      4  N   UNL     1       6.132   6.629  18.072  0.00  0.00    +0.000 NA
ATOM      5  C   UNL     1       5.535   5.521  17.595  0.00  0.00    +0.000 A 
ATOM      6  C   UNL     1       5.900   4.801  16.473  0.00  0.00    +0.000 A 
ATOM      7  N   UNL     1       5.061   3.722  16.282  0.00  0.00    +0.000 NA
ATOM      8  C   UNL     1       4.223   3.767  17.299  0.00  0.00    +0.000 A 
ATOM      9  N   UNL     1       4.475   4.835  18.122  0.00  0.00    +0.000 N 
ENDROOT
BRANCH   9  10
ATOM     10  C1* UNL     1       3.798   5.077  19.381  0.00  0.00    +0.000 C 
ATOM     11  O4* UNL     1       3.688   3.842  20.115  0.00  0.00    +0.000 OA
ATOM     12  C4* UNL     1       2.342   3.743  20.656  0.00  0.00    +0.000 C 
ATOM     13  C3* UNL     1       1.690   5.109  20.453  0.00  0.00    +0.000 C 
ATOM     14  C2* UNL     1       2.403   5.679  19.237  0.00  0.00    +0.000 C 
BRANCH  13  15
ATOM     15  O3* UNL     1       1.947   5.991  21.562  0.00  0.00    +0.000 OA
ATOM     16  H3* UNL     1       2.883   6.266  21.539  0.00  0.00    +0.000 HD
ENDBRANCH  13  15
BRANCH  14  17
ATOM     17  O2* UNL     1       2.441   7.109  19.270  0.00  0.00    +0.000 OA
ATOM     18  H2* UNL     1       2.863   7.392  18.431  0.00  0.00    +0.000 HD
ENDBRANCH  14  17
BRANCH  12  19
ATOM     19  C5* UNL     1       1.605   2.597  19.966  0.00  0.00    +0.000 C 
BRANCH  19  20
ATOM     20  O5* UNL     1       0.208   2.870  19.884  0.00  0.00    +0.000 OA
ATOM     21  H5* UNL     1      -0.051   3.285  20.731  0.00  0.00    +0.000 HD
ENDBRANCH  19  20
ENDBRANCH  12  19
ENDBRANCH   9  10
BRANCH   1  22
ATOM     22  N   UNL     1       7.527   4.572  14.668  0.00  0.00    +0.000 N 
ATOM     23  H   UNL     1       8.461   4.204  14.783  0.00  0.00    +0.000 HD
ATOM     24  H   UNL     1       7.255   4.949  13.765  0.00  0.00    +0.000 HD
ENDBRANCH   1  22
BRANCH   3  25
ATOM     25  C   UNL     1       7.868   8.178  17.721  0.00  0.00    +0.000 C 
ATOM     26  C   UNL     1       8.486   9.255  18.121  0.00  0.00    +0.000 C 
BRANCH  26  27
ATOM     27  C   UNL     1       9.206  10.510  18.587  0.00  0.00    +0.000 C 
BRANCH  27  28
ATOM     28  C   UNL     1       9.388  10.579  20.097  0.00  0.00    +0.000 C 
BRANCH  28  29
ATOM     29  C   UNL     1      10.201  11.819  20.494  0.00  0.00    +0.000 C 
ATOM     30  C   UNL     1      10.442  12.786  19.341  0.00  0.00    +0.000 C 
ATOM     31  C   UNL     1      10.890  14.070  20.033  0.00  0.00    +0.000 C 
ATOM     32  C   UNL     1      10.228  14.063  21.410  0.00  0.00    +0.000 C 
ATOM     33  C   UNL     1       9.518  12.718  21.526  0.00  0.00    +0.000 C 
ENDBRANCH  28  29
ENDBRANCH  27  28
ENDBRANCH  26  27
ENDBRANCH   3  25
TORSDOF 10
ENDMDL
MODEL 5
REMARK VINA RESULT:      -8.3      4.999      7.867
REMARK  Name = 
REMARK  10 active torsions:
REMARK  status: ('A' for Active; 'I' for Inactive)
REMARK    1  A    between atoms: N_1  and  C_2
REMARK    2  A    between atoms: C_4  and  C_5
REMARK    3  A    between atoms: C_6  and  C_7
REMARK    4  A    between atoms: C_7  and  C_8
REMARK    5  A    between atoms: C_8  and  C_9
REMARK    6  A    between atoms: N_19  and  C1*_20
REMARK    7  A    between atoms: C4*_22  and  C5*_23
REMARK    8  A    between atoms: C5*_23  and  O5*_24
REMARK    9  A    between atoms: C3*_25  and  O3*_26
REMARK   10  A    between atoms: C2*_27  and  O2*_28
REMARK                            x       y       z     vdW  Elec       q    Type
REMARK                         _______ _______ _______ _____ _____    ______ ____
ROOT
ATOM      1  C   UNL     1       1.522   3.860  20.324  0.00  0.00    +0.000 A 
ATOM      2  N   UNL     1       1.176   5.107  20.737  0.00  0.00    +0.000 NA
ATOM      3  C   UNL     1       1.943   6.144  20.344  0.00  0.00    +0.000 A 
ATOM      4  N   UNL     1       3.050   6.126  19.569  0.00  0.00    +0.000 NA
ATOM      5  C   UNL     1       3.366   4.868  19.209  0.00  0.00    +0.000 A 
ATOM      6  C   UNL     1       2.683   3.714  19.543  0.00  0.00    +0.000 A 
ATOM      7  N   UNL     1       3.296   2.602  19.001  0.00  0.00    +0.000 NA
ATOM      8  C   UNL     1       4.312   3.083  18.314  0.00  0.00    +0.000 A 
ATOM      9  N   UNL     1       4.391   4.449  18.406  0.00  0.00    +0.000 N 
ENDROOT
BRANCH   9  10
ATOM     10  C1* UNL     1       5.330   5.268  17.664  0.00  0.00    +0.000 C 
ATOM     11  O4* UNL     1       4.765   5.610  16.383  0.00  0.00    +0.000 OA
ATOM     12  C4* UNL     1       5.785   5.431  15.364  0.00  0.00    +0.000 C 
ATOM     13  C3* UNL     1       7.105   5.217  16.101  0.00  0.00    +0.000 C 
ATOM     14  C2* UNL     1       6.688   4.611  17.432  0.00  0.00    +0.000 C 
BRANCH  13  15
ATOM     15  O3* UNL     1       7.766   6.466  16.380  0.00  0.00    +0.000 OA
ATOM     16  H3* UNL     1       7.248   6.958  17.046  0.00  0.00    +0.000 HD
ENDBRANCH  13  15
BRANCH  14  17
ATOM     17  O2* UNL     1       7.614   4.936  18.473  0.00  0.00    +0.000 OA
ATOM     18  H2* UNL     1       7.499   4.252  19.167  0.00  0.00    +0.000 HD
ENDBRANCH  14  17
BRANCH  12  19
ATOM     19  C5* UNL     1       5.390   4.268  14.454  0.00  0.00    +0.000 C 
BRANCH  19  20
ATOM     20  O5* UNL     1       6.547   3.619  13.932  0.00  0.00    +0.000 OA
ATOM     21  H5* UNL     1       6.755   4.049  13.079  0.00  0.00    +0.000 HD
ENDBRANCH  19  20
ENDBRANCH  12  19
ENDBRANCH   9  10
BRANCH   1  22
ATOM     22  N   UNL     1       0.720   2.785  20.657  0.00  0.00    +0.000 N 
ATOM     23  H   UNL     1       0.731   2.021  19.996  0.00  0.00    +0.000 HD
ATOM     24  H   UNL     1      -0.154   3.027  21.114  0.00  0.00    +0.000 HD
ENDBRANCH   1  22
BRANCH   3  25
ATOM     25  C   UNL     1       1.534   7.450  20.789  0.00  0.00    +0.000 C 
ATOM     26  C   UNL     1       1.174   8.641  21.181  0.00  0.00    +0.000 C 
BRANCH  26  27
ATOM     27  C   UNL     1       0.754  10.029  21.638  0.00  0.00    +0.000 C 
BRANCH  27  28
ATOM     28  C   UNL     1       0.423  10.971  20.489  0.00  0.00    +0.000 C 
BRANCH  28  29
ATOM     29  C   UNL     1      -0.655  10.366  19.579  0.00  0.00    +0.000 C 
ATOM     30  C   UNL     1      -1.828  11.305  19.316  0.00  0.00    +0.000 C 
ATOM     31  C   UNL     1      -2.534  10.674  18.119  0.00  0.00    +0.000 C 
ATOM     32  C   UNL     1      -1.454   9.932  17.332  0.00  0.00    +0.000 C 
ATOM     33  C   UNL     1      -0.179  10.047  18.162  0.00  0.00    +0.000 C 
ENDBRANCH  28  29
ENDBRANCH  27  28
ENDBRANCH  26  27
ENDBRANCH   3  25
TORSDOF 10
ENDMDL
MODEL 6
REMARK VINA RESULT:      -8.2      1.403      1.631
REMARK  Name = 
REMARK  10 active torsions:
REMARK  status: ('A' for Active; 'I' for Inactive)
REMARK    1  A    between atoms: N_1  and  C_2
REMARK    2  A    between atoms: C_4  and  C_5
REMARK    3  A    between atoms: C_6  and  C_7
REMARK    4  A    between atoms: C_7  and  C_8
REMARK    5  A    between atoms: C_8  and  C_9
REMARK    6  A    between atoms: N_19  and  C1*_20
REMARK    7  A    between atoms: C4*_22  and  C5*_23
REMARK    8  A    between atoms: C5*_23  and  O5*_24
REMARK    9  A    between atoms: C3*_25  and  O3*_26
REMARK   10  A    between atoms: C2*_27  and  O2*_28
REMARK                            x       y       z     vdW  Elec       q    Type
REMARK                         _______ _______ _______ _____ _____    ______ ____
ROOT
ATOM      1  C   UNL     1       6.941   5.133  15.622  0.00  0.00    +0.000 A 
ATOM      2  N   UNL     1       7.545   6.273  16.050  0.00  0.00    +0.000 NA
ATOM      3  C   UNL     1       7.074   6.863  17.168  0.00  0.00    +0.000 A 
ATOM      4  N   UNL     1       6.049   6.472  17.957  0.00  0.00    +0.000 NA
ATOM      5  C   UNL     1       5.469   5.356  17.478  0.00  0.00    +0.000 A 
ATOM      6  C   UNL     1       5.834   4.652  16.346  0.00  0.00    +0.000 A 
ATOM      7  N   UNL     1       5.014   3.558  16.157  0.00  0.00    +0.000 NA
ATOM      8  C   UNL     1       4.190   3.578  17.185  0.00  0.00    +0.000 A 
ATOM      9  N   UNL     1       4.430   4.644  18.013  0.00  0.00    +0.000 N 
ENDROOT
BRANCH   9  10
ATOM     10  C1* UNL     1       3.765   4.862  19.283  0.00  0.00    +0.000 C 
ATOM     11  O4* UNL     1       3.445   3.593  19.885  0.00  0.00    +0.000 OA
ATOM     12  C4* UNL     1       2.086   3.654  20.398  0.00  0.00    +0.000 C 
ATOM     13  C3* UNL     1       1.659   5.118  20.329  0.00  0.00    +0.000 C 
ATOM     14  C2* UNL     1       2.485   5.688  19.186  0.00  0.00    +0.000 C 
BRANCH  13  15
ATOM     15  O3* UNL     1       2.020   5.833  21.526  0.00  0.00    +0.000 OA
ATOM     16  H3* UNL     1       2.562   5.252  22.092  0.00  0.00    +0.000 HD
ENDBRANCH  13  15
BRANCH  14  17
ATOM     17  O2* UNL     1       2.744   7.083  19.367  0.00  0.00    +0.000 OA
ATOM     18  H2* UNL     1       2.608   7.267  20.321  0.00  0.00    +0.000 HD
ENDBRANCH  14  17
BRANCH  12  19
ATOM     19  C5* UNL     1       1.198   2.712  19.585  0.00  0.00    +0.000 C 
BRANCH  19  20
ATOM     20  O5* UNL     1       1.968   1.655  19.019  0.00  0.00    +0.000 OA
ATOM     21  H5* UNL     1       1.336   1.010  18.643  0.00  0.00    +0.000 HD
ENDBRANCH  19  20
ENDBRANCH  12  19
ENDBRANCH   9  10
BRANCH   1  22
ATOM     22  N   UNL     1       7.441   4.470  14.518  0.00  0.00    +0.000 N 
ATOM     23  H   UNL     1       7.084   4.789  13.628  0.00  0.00    +0.000 HD
ATOM     24  H   UNL     1       7.610   3.478  14.653  0.00  0.00    +0.000 HD
ENDBRANCH   1  22
BRANCH   3  25
ATOM     25  C   UNL     1       7.749   8.059  17.595  0.00  0.00    +0.000 C 
ATOM     26  C   UNL     1       8.347   9.148  17.992  0.00  0.00    +0.000 C 
BRANCH  26  27
ATOM     27  C   UNL     1       9.045  10.417  18.454  0.00  0.00    +0.000 C 
BRANCH  27  28
ATOM     28  C   UNL     1       9.338  10.438  19.948  0.00  0.00    +0.000 C 
BRANCH  28  29
ATOM     29  C   UNL     1       9.095  11.835  20.534  0.00  0.00    +0.000 C 
ATOM     30  C   UNL     1       8.643  11.817  21.990  0.00  0.00    +0.000 C 
ATOM     31  C   UNL     1       8.853  13.256  22.453  0.00  0.00    +0.000 C 
ATOM     32  C   UNL     1      10.002  13.809  21.611  0.00  0.00    +0.000 C 
ATOM     33  C   UNL     1      10.341  12.719  20.599  0.00  0.00    +0.000 C 
ENDBRANCH  28  29
ENDBRANCH  27  28
ENDBRANCH  26  27
ENDBRANCH   3  25
TORSDOF 10
ENDMDL
MODEL 7
REMARK VINA RESULT:      -7.8      5.016      8.175
REMARK  Name = 
REMARK  10 active torsions:
REMARK  status: ('A' for Active; 'I' for Inactive)
REMARK    1  A    between atoms: N_1  and  C_2
REMARK    2  A    between atoms: C_4  and  C_5
REMARK    3  A    between atoms: C_6  and  C_7
REMARK    4  A    between atoms: C_7  and  C_8
REMARK    5  A    between atoms: C_8  and  C_9
REMARK    6  A    between atoms: N_19  and  C1*_20
REMARK    7  A    between atoms: C4*_22  and  C5*_23
REMARK    8  A    between atoms: C5*_23  and  O5*_24
REMARK    9  A    between atoms: C3*_25  and  O3*_26
REMARK   10  A    between atoms: C2*_27  and  O2*_28
REMARK                            x       y       z     vdW  Elec       q    Type
REMARK                         _______ _______ _______ _____ _____    ______ ____
ROOT
ATOM      1  C   UNL     1       1.540   3.918  20.389  0.00  0.00    +0.000 A 
ATOM      2  N   UNL     1       1.200   5.173  20.787  0.00  0.00    +0.000 NA
ATOM      3  C   UNL     1       1.967   6.202  20.372  0.00  0.00    +0.000 A 
ATOM      4  N   UNL     1       3.067   6.168  19.589  0.00  0.00    +0.000 NA
ATOM      5  C   UNL     1       3.377   4.904  19.244  0.00  0.00    +0.000 A 
ATOM      6  C   UNL     1       2.693   3.757  19.601  0.00  0.00    +0.000 A 
ATOM      7  N   UNL     1       3.298   2.635  19.070  0.00  0.00    +0.000 NA
ATOM      8  C   UNL     1       4.310   3.103  18.367  0.00  0.00    +0.000 A 
ATOM      9  N   UNL     1       4.394   4.470  18.439  0.00  0.00    +0.000 N 
ENDROOT
BRANCH   9  10
ATOM     10  C1* UNL     1       5.329   5.275  17.677  0.00  0.00    +0.000 C 
ATOM     11  O4* UNL     1       4.743   5.624  16.408  0.00  0.00    +0.000 OA
ATOM     12  C4* UNL     1       5.740   5.430  15.368  0.00  0.00    +0.000 C 
ATOM     13  C3* UNL     1       7.071   5.198  16.079  0.00  0.00    +0.000 C 
ATOM     14  C2* UNL     1       6.673   4.599  17.419  0.00  0.00    +0.000 C 
BRANCH  13  15
ATOM     15  O3* UNL     1       7.755   6.438  16.343  0.00  0.00    +0.000 OA
ATOM     16  H3* UNL     1       7.192   6.997  16.911  0.00  0.00    +0.000 HD
ENDBRANCH  13  15
BRANCH  14  17
ATOM     17  O2* UNL     1       7.624   4.910  18.440  0.00  0.00    +0.000 OA
ATOM     18  H2* UNL     1       8.493   4.990  17.991  0.00  0.00    +0.000 HD
ENDBRANCH  14  17
BRANCH  12  19
ATOM     19  C5* UNL     1       5.310   4.273  14.468  0.00  0.00    +0.000 C 
BRANCH  19  20
ATOM     20  O5* UNL     1       6.439   3.515  14.044  0.00  0.00    +0.000 OA
ATOM     21  H5* UNL     1       6.350   2.624  14.438  0.00  0.00    +0.000 HD
ENDBRANCH  19  20
ENDBRANCH  12  19
ENDBRANCH   9  10
BRANCH   1  22
ATOM     22  N   UNL     1       0.737   2.851  20.744  0.00  0.00    +0.000 N 
ATOM     23  H   UNL     1       1.231   2.031  21.067  0.00  0.00    +0.000 HD
ATOM     24  H   UNL     1      -0.094   2.731  20.173  0.00  0.00    +0.000 HD
ENDBRANCH   1  22
BRANCH   3  25
ATOM     25  C   UNL     1       1.566   7.515  20.801  0.00  0.00    +0.000 C 
ATOM     26  C   UNL     1       1.191   8.698  21.203  0.00  0.00    +0.000 C 
BRANCH  26  27
ATOM     27  C   UNL     1       0.755  10.077  21.670  0.00  0.00    +0.000 C 
BRANCH  27  28
ATOM     28  C   UNL     1      -0.375  10.669  20.840  0.00  0.00    +0.000 C 
BRANCH  28  29
ATOM     29  C   UNL     1      -1.067  11.814  21.593  0.00  0.00    +0.000 C 
ATOM     30  C   UNL     1      -2.319  12.334  20.896  0.00  0.00    +0.000 C 
ATOM     31  C   UNL     1      -3.026  13.144  21.979  0.00  0.00    +0.000 C 
ATOM     32  C   UNL     1      -2.629  12.508  23.311  0.00  0.00    +0.000 C 
ATOM     33  C   UNL     1      -1.606  11.429  22.971  0.00  0.00    +0.000 C 
ENDBRANCH  28  29
ENDBRANCH  27  28
ENDBRANCH  26  27
ENDBRANCH   3  25
TORSDOF 10
ENDMDL
MODEL 8
REMARK VINA RESULT:      -7.8      4.437      8.119
REMARK  Name = 
REMARK  10 active torsions:
REMARK  status: ('A' for Active; 'I' for Inactive)
REMARK    1  A    between atoms: N_1  and  C_2
REMARK    2  A    between atoms: C_4  and  C_5
REMARK    3  A    between atoms: C_6  and  C_7
REMARK    4  A    between atoms: C_7  and  C_8
REMARK    5  A    between atoms: C_8  and  C_9
REMARK    6  A    between atoms: N_19  and  C1*_20
REMARK    7  A    between atoms: C4*_22  and  C5*_23
REMARK    8  A    between atoms: C5*_23  and  O5*_24
REMARK    9  A    between atoms: C3*_25  and  O3*_26
REMARK   10  A    between atoms: C2*_27  and  O2*_28
REMARK                            x       y       z     vdW  Elec       q    Type
REMARK                         _______ _______ _______ _____ _____    ______ ____
ROOT
ATOM      1  C   UNL     1       1.443   3.965  20.203  0.00  0.00    +0.000 A 
ATOM      2  N   UNL     1       0.893   5.148  20.585  0.00  0.00    +0.000 NA
ATOM      3  C   UNL     1       1.663   6.254  20.536  0.00  0.00    +0.000 A 
ATOM      4  N   UNL     1       2.952   6.365  20.148  0.00  0.00    +0.000 NA
ATOM      5  C   UNL     1       3.458   5.166  19.806  0.00  0.00    +0.000 A 
ATOM      6  C   UNL     1       2.796   3.953  19.815  0.00  0.00    +0.000 A 
ATOM      7  N   UNL     1       3.627   2.930  19.405  0.00  0.00    +0.000 NA
ATOM      8  C   UNL     1       4.766   3.525  19.111  0.00  0.00    +0.000 A 
ATOM      9  N   UNL     1       4.709   4.877  19.333  0.00  0.00    +0.000 N 
ENDROOT
BRANCH   9  10
ATOM     10  C1* UNL     1       5.766   5.810  18.989  0.00  0.00    +0.000 C 
ATOM     11  O4* UNL     1       5.606   6.239  17.623  0.00  0.00    +0.000 OA
ATOM     12  C4* UNL     1       6.905   6.209  16.973  0.00  0.00    +0.000 C 
ATOM     13  C3* UNL     1       7.939   5.997  18.076  0.00  0.00    +0.000 C 
ATOM     14  C2* UNL     1       7.175   5.249  19.158  0.00  0.00    +0.000 C 
BRANCH  13  15
ATOM     15  O3* UNL     1       8.379   7.248  18.640  0.00  0.00    +0.000 OA
ATOM     16  H3* UNL     1       7.599   7.751  18.942  0.00  0.00    +0.000 HD
ENDBRANCH  13  15
BRANCH  14  17
ATOM     17  O2* UNL     1       7.699   5.523  20.460  0.00  0.00    +0.000 OA
ATOM     18  H2* UNL     1       7.492   6.464  20.647  0.00  0.00    +0.000 HD
ENDBRANCH  14  17
BRANCH  12  19
ATOM     19  C5* UNL     1       6.909   5.116  15.904  0.00  0.00    +0.000 C 
BRANCH  19  20
ATOM     20  O5* UNL     1       7.704   5.505  14.788  0.00  0.00    +0.000 OA
ATOM     21  H5* UNL     1       7.091   5.840  14.103  0.00  0.00    +0.000 HD
ENDBRANCH  19  20
ENDBRANCH  12  19
ENDBRANCH   9  10
BRANCH   1  22
ATOM     22  N   UNL     1       0.662   2.827  20.181  0.00  0.00    +0.000 N 
ATOM     23  H   UNL     1       1.014   2.053  20.728  0.00  0.00    +0.000 HD
ATOM     24  H   UNL     1       0.209   2.634  19.292  0.00  0.00    +0.000 HD
ENDBRANCH   1  22
BRANCH   3  25
ATOM     25  C   UNL     1       1.039   7.488  20.934  0.00  0.00    +0.000 C 
ATOM     26  C   UNL     1       0.479   8.614  21.280  0.00  0.00    +0.000 C 
BRANCH  26  27
ATOM     27  C   UNL     1      -0.174   9.926  21.683  0.00  0.00    +0.000 C 
BRANCH  27  28
ATOM     28  C   UNL     1      -0.172  10.970  20.575  0.00  0.00    +0.000 C 
BRANCH  28  29
ATOM     29  C   UNL     1      -1.269  10.674  19.543  0.00  0.00    +0.000 C 
ATOM     30  C   UNL     1      -2.071  11.905  19.134  0.00  0.00    +0.000 C 
ATOM     31  C   UNL     1      -2.790  11.463  17.863  0.00  0.00    +0.000 C 
ATOM     32  C   UNL     1      -1.898  10.404  17.218  0.00  0.00    +0.000 C 
ATOM     33  C   UNL     1      -0.750  10.171  18.196  0.00  0.00    +0.000 C 
ENDBRANCH  28  29
ENDBRANCH  27  28
ENDBRANCH  26  27
ENDBRANCH   3  25
TORSDOF 10
ENDMDL
MODEL 9
REMARK VINA RESULT:      -7.8      1.014      1.073
REMARK  Name = 
REMARK  10 active torsions:
REMARK  status: ('A' for Active; 'I' for Inactive)
REMARK    1  A    between atoms: N_1  and  C_2
REMARK    2  A    between atoms: C_4  and  C_5
REMARK    3  A    between atoms: C_6  and  C_7
REMARK    4  A    between atoms: C_7  and  C_8
REMARK    5  A    between atoms: C_8  and  C_9
REMARK    6  A    between atoms: N_19  and  C1*_20
REMARK    7  A    between atoms: C4*_22  and  C5*_23
REMARK    8  A    between atoms: C5*_23  and  O5*_24
REMARK    9  A    between atoms: C3*_25  and  O3*_26
REMARK   10  A    between atoms: C2*_27  and  O2*_28
REMARK                            x       y       z     vdW  Elec       q    Type
REMARK                         _______ _______ _______ _____ _____    ______ ____
ROOT
ATOM      1  C   UNL     1       6.963   5.474  15.953  0.00  0.00    +0.000 A 
ATOM      2  N   UNL     1       7.632   6.586  16.359  0.00  0.00    +0.000 NA
ATOM      3  C   UNL     1       7.145   7.272  17.413  0.00  0.00    +0.000 A 
ATOM      4  N   UNL     1       6.048   7.007  18.155  0.00  0.00    +0.000 NA
ATOM      5  C   UNL     1       5.408   5.915  17.698  0.00  0.00    +0.000 A 
ATOM      6  C   UNL     1       5.780   5.122  16.629  0.00  0.00    +0.000 A 
ATOM      7  N   UNL     1       4.886   4.087  16.445  0.00  0.00    +0.000 NA
ATOM      8  C   UNL     1       4.007   4.229  17.417  0.00  0.00    +0.000 A 
ATOM      9  N   UNL     1       4.285   5.318  18.203  0.00  0.00    +0.000 N 
ENDROOT
BRANCH   9  10
ATOM     10  C1* UNL     1       3.566   5.658  19.416  0.00  0.00    +0.000 C 
ATOM     11  O4* UNL     1       3.315   4.463  20.180  0.00  0.00    +0.000 OA
ATOM     12  C4* UNL     1       1.939   4.494  20.649  0.00  0.00    +0.000 C 
ATOM     13  C3* UNL     1       1.415   5.900  20.369  0.00  0.00    +0.000 C 
ATOM     14  C2* UNL     1       2.236   6.368  19.177  0.00  0.00    +0.000 C 
BRANCH  13  15
ATOM     15  O3* UNL     1       1.688   6.796  21.463  0.00  0.00    +0.000 OA
ATOM     16  H3* UNL     1       0.857   7.233  21.731  0.00  0.00    +0.000 HD
ENDBRANCH  13  15
BRANCH  14  17
ATOM     17  O2* UNL     1       2.392   7.789  19.169  0.00  0.00    +0.000 OA
ATOM     18  H2* UNL     1       2.383   8.072  20.108  0.00  0.00    +0.000 HD
ENDBRANCH  14  17
BRANCH  12  19
ATOM     19  C5* UNL     1       1.145   3.388  19.955  0.00  0.00    +0.000 C 
BRANCH  19  20
ATOM     20  O5* UNL     1       1.500   2.109  20.473  0.00  0.00    +0.000 OA
ATOM     21  H5* UNL     1       2.309   2.233  21.009  0.00  0.00    +0.000 HD
ENDBRANCH  19  20
ENDBRANCH  12  19
ENDBRANCH   9  10
BRANCH   1  22
ATOM     22  N   UNL     1       7.472   4.714  14.918  0.00  0.00    +0.000 N 
ATOM     23  H   UNL     1       6.809   4.477  14.193  0.00  0.00    +0.000 HD
ATOM     24  H   UNL     1       8.166   4.025  15.192  0.00  0.00    +0.000 HD
ENDBRANCH   1  22
BRANCH   3  25
ATOM     25  C   UNL     1       7.890   8.434  17.821  0.00  0.00    +0.000 C 
ATOM     26  C   UNL     1       8.553   9.498  18.181  0.00  0.00    +0.000 C 
BRANCH  26  27
ATOM     27  C   UNL     1       9.327  10.737  18.600  0.00  0.00    +0.000 C 
BRANCH  27  28
ATOM     28  C   UNL     1      10.571  10.988  17.760  0.00  0.00    +0.000 C 
BRANCH  28  29
ATOM     29  C   UNL     1      11.471  12.043  18.416  0.00  0.00    +0.000 C 
ATOM     30  C   UNL     1      11.795  13.222  17.505  0.00  0.00    +0.000 C 
ATOM     31  C   UNL     1      12.332  14.283  18.461  0.00  0.00    +0.000 C 
ATOM     32  C   UNL     1      11.660  14.019  19.807  0.00  0.00    +0.000 C 
ATOM     33  C   UNL     1      10.850  12.740  19.627  0.00  0.00    +0.000 C 
ENDBRANCH  28  29
ENDBRANCH  27  28
ENDBRANCH  26  27
ENDBRANCH   3  25
TORSDOF 10
ENDMDL
