MODEL 1
REMARK VINA RESULT:      -8.5      0.000      0.000
REMARK  Name = 
REMARK  7 active torsions:
REMARK  status: ('A' for Active; 'I' for Inactive)
REMARK    1  A    between atoms: C_1  and  C_2
REMARK    2  A    between atoms: C_2  and  C_3
REMARK    3  A    between atoms: C_2  and  N_18
REMARK    4  A    between atoms: C_3  and  N_4
REMARK    5  A    between atoms: C_7  and  C_8
REMARK    6  A    between atoms: C_11  and  C_12
REMARK    7  A    between atoms: N_18  and  C_19
REMARK                            x       y       z     vdW  Elec       q    Type
REMARK                         _______ _______ _______ _____ _____    ______ ____
ROOT
ATOM      1  C   UNL     1       3.001   4.269  19.618  0.00  0.00    +0.000 C 
ENDROOT
BRANCH   1   2
ATOM      2  N   UNL     1       2.730   5.677  19.388  0.00  0.00    +0.000 N 
ATOM      3  C   UNL     1       2.920   6.382  18.237  0.00  0.00    +0.000 A 
ATOM      4  C   UNL     1       2.396   7.631  18.475  0.00  0.00    +0.000 A 
ATOM      5  C   UNL     1       1.914   7.594  19.811  0.00  0.00    +0.000 A 
ATOM      6  N   UNL     1       2.177   6.406  20.371  0.00  0.00    +0.000 NA
BRANCH   5   7
ATOM      7  C   UNL     1       1.179   8.621  20.546  0.00  0.00    +0.000 A 
ATOM      8  C   UNL     1       1.036   8.554  21.936  0.00  0.00    +0.000 A 
ATOM      9  C   UNL     1       0.363   9.568  22.625  0.00  0.00    +0.000 A 
ATOM     10  C   UNL     1      -0.172  10.663  21.933  0.00  0.00    +0.000 A 
ATOM     11  C   UNL     1      -0.038  10.729  20.542  0.00  0.00    +0.000 A 
ATOM     12 CL   UNL     1      -0.665  12.050  19.621  0.00  0.00    +0.000 Cl
ATOM     13  C   UNL     1       0.628   9.713  19.854  0.00  0.00    +0.000 A 
BRANCH  10  14
ATOM     14  C   UNL     1      -0.841  11.686  22.678  0.00  0.00    +0.000 C 
ATOM     15  N   UNL     1      -1.353  12.525  23.299  0.00  0.00    +0.000 NA
ENDBRANCH  10  14
ENDBRANCH   5   7
ENDBRANCH   1   2
BRANCH   1  17
ATOM     16  C   UNL     1       2.197   2.147  18.476  0.00  0.00    +0.000 C 
ATOM     17  C   UNL     1       3.003   3.446  18.311  0.00  0.00    +0.000 C 
BRANCH  17  18
ATOM     18  N   UNL     1       4.381   3.084  17.931  0.00  0.00    +0.000 N 
ATOM     19  H   UNL     1       4.496   2.122  17.589  0.00  0.00    +0.000 HD
BRANCH  18  20
ATOM     20  C   UNL     1       5.149   3.923  17.082  0.00  0.00    +0.000 A 
ATOM     21  C   UNL     1       4.906   3.992  15.702  0.00  0.00    +0.000 A 
ATOM     22  C   UNL     1       5.608   4.873  14.886  0.00  0.00    +0.000 A 
ATOM     23  C   UNL     1       6.557   5.715  15.443  0.00  0.00    +0.000 A 
ATOM     24  C   UNL     1       6.797   5.696  16.822  0.00  0.00    +0.000 A 
ATOM     25  C   UNL     1       7.735   6.571  17.385  0.00  0.00    +0.000 A 
ATOM     26  C   UNL     1       7.956   6.560  18.754  0.00  0.00    +0.000 A 
ATOM     27  C   UNL     1       7.236   5.658  19.512  0.00  0.00    +0.000 A 
ATOM     28  N   UNL     1       6.330   4.788  19.004  0.00  0.00    +0.000 NA
ATOM     29  C   UNL     1       6.095   4.805  17.666  0.00  0.00    +0.000 A 
ENDBRANCH  18  20
ENDBRANCH  17  18
ENDBRANCH   1  17
TORSDOF 6
ENDMDL
MODEL 2
REMARK VINA RESULT:      -8.2      3.953      9.455
REMARK  Name = 
REMARK  7 active torsions:
REMARK  status: ('A' for Active; 'I' for Inactive)
REMARK    1  A    between atoms: C_1  and  C_2
REMARK    2  A    between atoms: C_2  and  C_3
REMARK    3  A    between atoms: C_2  and  N_18
REMARK    4  A    between atoms: C_3  and  N_4
REMARK    5  A    between atoms: C_7  and  C_8
REMARK    6  A    between atoms: C_11  and  C_12
REMARK    7  A    between atoms: N_18  and  C_19
REMARK                            x       y       z     vdW  Elec       q    Type
REMARK                         _______ _______ _______ _____ _____    ______ ____
ROOT
ATOM      1  C   UNL     1       0.717  10.707  20.341  0.00  0.00    +0.000 C 
ENDROOT
BRANCH   1   2
ATOM      2  N   UNL     1       1.264   9.689  19.462  0.00  0.00    +0.000 N 
ATOM      3  C   UNL     1       1.621   9.826  18.153  0.00  0.00    +0.000 A 
ATOM      4  C   UNL     1       2.204   8.630  17.800  0.00  0.00    +0.000 A 
ATOM      5  C   UNL     1       2.149   7.820  18.965  0.00  0.00    +0.000 A 
ATOM      6  N   UNL     1       1.520   8.467  19.956  0.00  0.00    +0.000 NA
BRANCH   5   7
ATOM      7  C   UNL     1       2.708   6.487  19.178  0.00  0.00    +0.000 A 
ATOM      8  C   UNL     1       3.832   6.052  18.467  0.00  0.00    +0.000 A 
ATOM      9  C   UNL     1       4.375   4.788  18.714  0.00  0.00    +0.000 A 
ATOM     10  C   UNL     1       3.804   3.944  19.677  0.00  0.00    +0.000 A 
ATOM     11  C   UNL     1       2.675   4.372  20.382  0.00  0.00    +0.000 A 
ATOM     12 CL   UNL     1       1.918   3.391  21.588  0.00  0.00    +0.000 Cl
ATOM     13  C   UNL     1       2.129   5.632  20.130  0.00  0.00    +0.000 A 
BRANCH  10  14
ATOM     14  C   UNL     1       4.400   2.663  19.908  0.00  0.00    +0.000 C 
ATOM     15  N   UNL     1       4.893   1.621  20.060  0.00  0.00    +0.000 NA
ENDBRANCH  10  14
ENDBRANCH   5   7
ENDBRANCH   1   2
BRANCH   1  17
ATOM     16  C   UNL     1      -0.822  12.717  20.549  0.00  0.00    +0.000 C 
ATOM     17  C   UNL     1      -0.403  11.530  19.668  0.00  0.00    +0.000 C 
BRANCH  17  18
ATOM     18  N   UNL     1      -1.593  10.690  19.435  0.00  0.00    +0.000 N 
ATOM     19  H   UNL     1      -2.278  10.690  20.201  0.00  0.00    +0.000 HD
BRANCH  18  20
ATOM     20  C   UNL     1      -2.323  10.777  18.222  0.00  0.00    +0.000 A 
ATOM     21  C   UNL     1      -1.902  10.111  17.061  0.00  0.00    +0.000 A 
ATOM     22  C   UNL     1      -2.661  10.135  15.896  0.00  0.00    +0.000 A 
ATOM     23  C   UNL     1      -3.869  10.815  15.878  0.00  0.00    +0.000 A 
ATOM     24  C   UNL     1      -4.334  11.458  17.031  0.00  0.00    +0.000 A 
ATOM     25  C   UNL     1      -5.571  12.118  17.018  0.00  0.00    +0.000 A 
ATOM     26  C   UNL     1      -6.035  12.738  18.167  0.00  0.00    +0.000 A 
ATOM     27  C   UNL     1      -5.234  12.689  19.291  0.00  0.00    +0.000 A 
ATOM     28  N   UNL     1      -4.028  12.073  19.340  0.00  0.00    +0.000 NA
ATOM     29  C   UNL     1      -3.575  11.447  18.223  0.00  0.00    +0.000 A 
ENDBRANCH  18  20
ENDBRANCH  17  18
ENDBRANCH   1  17
TORSDOF 6
ENDMDL
MODEL 3
REMARK VINA RESULT:      -8.2      1.830      2.602
REMARK  Name = 
REMARK  7 active torsions:
REMARK  status: ('A' for Active; 'I' for Inactive)
REMARK    1  A    between atoms: C_1  and  C_2
REMARK    2  A    between atoms: C_2  and  C_3
REMARK    3  A    between atoms: C_2  and  N_18
REMARK    4  A    between atoms: C_3  and  N_4
REMARK    5  A    between atoms: C_7  and  C_8
REMARK    6  A    between atoms: C_11  and  C_12
REMARK    7  A    between atoms: N_18  and  C_19
REMARK                            x       y       z     vdW  Elec       q    Type
REMARK                         _______ _______ _______ _____ _____    ______ ____
ROOT
ATOM      1  C   UNL     1       2.327   2.173  18.703  0.00  0.00    +0.000 C 
ENDROOT
BRANCH   1   2
ATOM      2  N   UNL     1       2.197   3.355  19.537  0.00  0.00    +0.000 N 
ATOM      3  C   UNL     1       2.394   3.448  20.883  0.00  0.00    +0.000 A 
ATOM      4  C   UNL     1       2.282   4.786  21.183  0.00  0.00    +0.000 A 
ATOM      5  C   UNL     1       2.006   5.432  19.949  0.00  0.00    +0.000 A 
ATOM      6  N   UNL     1       1.904   4.532  18.962  0.00  0.00    +0.000 NA
BRANCH   5   7
ATOM      7  C   UNL     1       1.885   6.862  19.673  0.00  0.00    +0.000 A 
ATOM      8  C   UNL     1       2.216   7.388  18.420  0.00  0.00    +0.000 A 
ATOM      9  C   UNL     1       2.056   8.753  18.164  0.00  0.00    +0.000 A 
ATOM     10  C   UNL     1       1.559   9.609  19.157  0.00  0.00    +0.000 A 
ATOM     11  C   UNL     1       1.235   9.088  20.414  0.00  0.00    +0.000 A 
ATOM     12 CL   UNL     1       0.612  10.078  21.687  0.00  0.00    +0.000 Cl
ATOM     13  C   UNL     1       1.402   7.725  20.671  0.00  0.00    +0.000 A 
BRANCH  10  14
ATOM     14  C   UNL     1       1.398  10.998  18.850  0.00  0.00    +0.000 C 
ATOM     15  N   UNL     1       1.276  12.134  18.635  0.00  0.00    +0.000 NA
ENDBRANCH  10  14
ENDBRANCH   5   7
ENDBRANCH   1   2
BRANCH   1  17
ATOM     16  C   UNL     1       4.343   0.651  18.973  0.00  0.00    +0.000 C 
ATOM     17  C   UNL     1       3.788   1.906  18.279  0.00  0.00    +0.000 C 
BRANCH  17  18
ATOM     18  N   UNL     1       4.648   3.048  18.641  0.00  0.00    +0.000 N 
ATOM     19  H   UNL     1       5.447   2.813  19.241  0.00  0.00    +0.000 HD
BRANCH  18  20
ATOM     20  C   UNL     1       5.119   3.950  17.652  0.00  0.00    +0.000 A 
ATOM     21  C   UNL     1       4.543   4.004  16.373  0.00  0.00    +0.000 A 
ATOM     22  C   UNL     1       4.955   4.943  15.433  0.00  0.00    +0.000 A 
ATOM     23  C   UNL     1       5.942   5.859  15.765  0.00  0.00    +0.000 A 
ATOM     24  C   UNL     1       6.509   5.854  17.044  0.00  0.00    +0.000 A 
ATOM     25  C   UNL     1       7.484   6.801  17.385  0.00  0.00    +0.000 A 
ATOM     26  C   UNL     1       8.030   6.803  18.659  0.00  0.00    +0.000 A 
ATOM     27  C   UNL     1       7.588   5.842  19.547  0.00  0.00    +0.000 A 
ATOM     28  N   UNL     1       6.658   4.902  19.252  0.00  0.00    +0.000 NA
ATOM     29  C   UNL     1       6.105   4.906  18.012  0.00  0.00    +0.000 A 
ENDBRANCH  18  20
ENDBRANCH  17  18
ENDBRANCH   1  17
TORSDOF 6
ENDMDL
MODEL 4
REMARK VINA RESULT:      -8.1      1.177      1.537
REMARK  Name = 
REMARK  7 active torsions:
REMARK  status: ('A' for Active; 'I' for Inactive)
REMARK    1  A    between atoms: C_1  and  C_2
REMARK    2  A    between atoms: C_2  and  C_3
REMARK    3  A    between atoms: C_2  and  N_18
REMARK    4  A    between atoms: C_3  and  N_4
REMARK    5  A    between atoms: C_7  and  C_8
REMARK    6  A    between atoms: C_11  and  C_12
REMARK    7  A    between atoms: N_18  and  C_19
REMARK                            x       y       z     vdW  Elec       q    Type
REMARK                         _______ _______ _______ _____ _____    ______ ____
ROOT
ATOM      1  C   UNL     1       2.851   4.936  20.141  0.00  0.00    +0.000 C 
ENDROOT
BRANCH   1   2
ATOM      2  N   UNL     1       2.577   6.240  19.564  0.00  0.00    +0.000 N 
ATOM      3  C   UNL     1       2.840   6.658  18.293  0.00  0.00    +0.000 A 
ATOM      4  C   UNL     1       2.282   7.911  18.190  0.00  0.00    +0.000 A 
ATOM      5  C   UNL     1       1.705   8.177  19.461  0.00  0.00    +0.000 A 
ATOM      6  N   UNL     1       1.944   7.163  20.305  0.00  0.00    +0.000 NA
BRANCH   5   7
ATOM      7  C   UNL     1       0.904   9.325  19.879  0.00  0.00    +0.000 A 
ATOM      8  C   UNL     1       0.580  10.347  18.980  0.00  0.00    +0.000 A 
ATOM      9  C   UNL     1      -0.221  11.418  19.389  0.00  0.00    +0.000 A 
ATOM     10  C   UNL     1      -0.711  11.478  20.700  0.00  0.00    +0.000 A 
ATOM     11  C   UNL     1      -0.382  10.463  21.605  0.00  0.00    +0.000 A 
ATOM     12 CL   UNL     1      -0.952  10.465  23.236  0.00  0.00    +0.000 Cl
ATOM     13  C   UNL     1       0.424   9.398  21.197  0.00  0.00    +0.000 A 
BRANCH  10  14
ATOM     14  C   UNL     1      -1.538  12.585  21.074  0.00  0.00    +0.000 C 
ATOM     15  N   UNL     1      -2.181  13.499  21.394  0.00  0.00    +0.000 NA
ENDBRANCH  10  14
ENDBRANCH   5   7
ENDBRANCH   1   2
BRANCH   1  17
ATOM     16  C   UNL     1       1.985   2.597  19.661  0.00  0.00    +0.000 C 
ATOM     17  C   UNL     1       2.763   3.798  19.100  0.00  0.00    +0.000 C 
BRANCH  17  18
ATOM     18  N   UNL     1       4.111   3.336  18.724  0.00  0.00    +0.000 N 
ATOM     19  H   UNL     1       4.192   2.324  18.565  0.00  0.00    +0.000 HD
BRANCH  18  20
ATOM     20  C   UNL     1       4.844   3.980  17.693  0.00  0.00    +0.000 A 
ATOM     21  C   UNL     1       4.449   3.898  16.349  0.00  0.00    +0.000 A 
ATOM     22  C   UNL     1       5.123   4.595  15.352  0.00  0.00    +0.000 A 
ATOM     23  C   UNL     1       6.199   5.402  15.687  0.00  0.00    +0.000 A 
ATOM     24  C   UNL     1       6.595   5.533  17.023  0.00  0.00    +0.000 A 
ATOM     25  C   UNL     1       7.664   6.374  17.361  0.00  0.00    +0.000 A 
ATOM     26  C   UNL     1       8.040   6.515  18.688  0.00  0.00    +0.000 A 
ATOM     27  C   UNL     1       7.339   5.792  19.633  0.00  0.00    +0.000 A 
ATOM     28  N   UNL     1       6.310   4.959  19.345  0.00  0.00    +0.000 NA
ATOM     29  C   UNL     1       5.923   4.831  18.050  0.00  0.00    +0.000 A 
ENDBRANCH  18  20
ENDBRANCH  17  18
ENDBRANCH   1  17
TORSDOF 6
ENDMDL
MODEL 5
REMARK VINA RESULT:      -8.1      0.741      2.072
REMARK  Name = 
REMARK  7 active torsions:
REMARK  status: ('A' for Active; 'I' for Inactive)
REMARK    1  A    between atoms: C_1  and  C_2
REMARK    2  A    between atoms: C_2  and  C_3
REMARK    3  A    between atoms: C_2  and  N_18
REMARK    4  A    between atoms: C_3  and  N_4
REMARK    5  A    between atoms: C_7  and  C_8
REMARK    6  A    between atoms: C_11  and  C_12
REMARK    7  A    between atoms: N_18  and  C_19
REMARK                            x       y       z     vdW  Elec       q    Type
REMARK                         _______ _______ _______ _____ _____    ______ ____
ROOT
ATOM      1  C   UNL     1       2.915   4.078  19.711  0.00  0.00    +0.000 C 
ENDROOT
BRANCH   1   2
ATOM      2  N   UNL     1       2.694   5.491  19.458  0.00  0.00    +0.000 N 
ATOM      3  C   UNL     1       2.928   6.174  18.301  0.00  0.00    +0.000 A 
ATOM      4  C   UNL     1       2.440   7.443  18.513  0.00  0.00    +0.000 A 
ATOM      5  C   UNL     1       1.934   7.440  19.840  0.00  0.00    +0.000 A 
ATOM      6  N   UNL     1       2.148   6.251  20.420  0.00  0.00    +0.000 NA
BRANCH   5   7
ATOM      7  C   UNL     1       1.221   8.500  20.548  0.00  0.00    +0.000 A 
ATOM      8  C   UNL     1       1.082   8.475  21.941  0.00  0.00    +0.000 A 
ATOM      9  C   UNL     1       0.430   9.519  22.602  0.00  0.00    +0.000 A 
ATOM     10  C   UNL     1      -0.089  10.604  21.882  0.00  0.00    +0.000 A 
ATOM     11  C   UNL     1       0.040  10.628  20.489  0.00  0.00    +0.000 A 
ATOM     12 CL   UNL     1      -0.568  11.933  19.532  0.00  0.00    +0.000 Cl
ATOM     13  C   UNL     1       0.685   9.581  19.828  0.00  0.00    +0.000 A 
BRANCH  10  14
ATOM     14  C   UNL     1      -0.737  11.659  22.600  0.00  0.00    +0.000 C 
ATOM     15  N   UNL     1      -1.233  12.536  23.180  0.00  0.00    +0.000 NA
ENDBRANCH  10  14
ENDBRANCH   5   7
ENDBRANCH   1   2
BRANCH   1  17
ATOM     16  C   UNL     1       3.259   1.908  18.437  0.00  0.00    +0.000 C 
ATOM     17  C   UNL     1       3.675   3.383  18.560  0.00  0.00    +0.000 C 
BRANCH  17  18
ATOM     18  N   UNL     1       5.129   3.430  18.798  0.00  0.00    +0.000 N 
ATOM     19  H   UNL     1       5.627   2.552  18.605  0.00  0.00    +0.000 HD
BRANCH  18  20
ATOM     20  C   UNL     1       5.922   4.484  18.273  0.00  0.00    +0.000 A 
ATOM     21  C   UNL     1       6.570   5.404  19.112  0.00  0.00    +0.000 A 
ATOM     22  C   UNL     1       7.408   6.387  18.597  0.00  0.00    +0.000 A 
ATOM     23  C   UNL     1       7.627   6.456  17.230  0.00  0.00    +0.000 A 
ATOM     24  C   UNL     1       7.024   5.530  16.371  0.00  0.00    +0.000 A 
ATOM     25  C   UNL     1       7.272   5.583  14.993  0.00  0.00    +0.000 A 
ATOM     26  C   UNL     1       6.687   4.653  14.148  0.00  0.00    +0.000 A 
ATOM     27  C   UNL     1       5.857   3.706  14.715  0.00  0.00    +0.000 A 
ATOM     28  N   UNL     1       5.582   3.629  16.039  0.00  0.00    +0.000 NA
ATOM     29  C   UNL     1       6.167   4.525  16.875  0.00  0.00    +0.000 A 
ENDBRANCH  18  20
ENDBRANCH  17  18
ENDBRANCH   1  17
TORSDOF 6
ENDMDL
MODEL 6
REMARK VINA RESULT:      -8.0      4.488      7.340
REMARK  Name = 
REMARK  7 active torsions:
REMARK  status: ('A' for Active; 'I' for Inactive)
REMARK    1  A    between atoms: C_1  and  C_2
REMARK    2  A    between atoms: C_2  and  C_3
REMARK    3  A    between atoms: C_2  and  N_18
REMARK    4  A    between atoms: C_3  and  N_4
REMARK    5  A    between atoms: C_7  and  C_8
REMARK    6  A    between atoms: C_11  and  C_12
REMARK    7  A    between atoms: N_18  and  C_19
REMARK                            x       y       z     vdW  Elec       q    Type
REMARK                         _______ _______ _______ _____ _____    ______ ____
ROOT
ATOM      1  C   UNL     1       6.141   6.537  16.334  0.00  0.00    +0.000 C 
ENDROOT
BRANCH   1   2
ATOM      2  N   UNL     1       7.000   7.210  17.293  0.00  0.00    +0.000 N 
ATOM      3  C   UNL     1       7.742   6.641  18.285  0.00  0.00    +0.000 A 
ATOM      4  C   UNL     1       8.479   7.666  18.833  0.00  0.00    +0.000 A 
ATOM      5  C   UNL     1       8.109   8.830  18.108  0.00  0.00    +0.000 A 
ATOM      6  N   UNL     1       7.162   8.539  17.207  0.00  0.00    +0.000 NA
BRANCH   5   7
ATOM      7  C   UNL     1       8.653  10.182  18.212  0.00  0.00    +0.000 A 
ATOM      8  C   UNL     1       8.072  11.252  17.523  0.00  0.00    +0.000 A 
ATOM      9  C   UNL     1       8.584  12.545  17.667  0.00  0.00    +0.000 A 
ATOM     10  C   UNL     1       9.682  12.785  18.505  0.00  0.00    +0.000 A 
ATOM     11  C   UNL     1      10.272  11.716  19.189  0.00  0.00    +0.000 A 
ATOM     12 CL   UNL     1      11.623  11.934  20.244  0.00  0.00    +0.000 Cl
ATOM     13  C   UNL     1       9.763  10.424  19.039  0.00  0.00    +0.000 A 
BRANCH  10  14
ATOM     14  C   UNL     1      10.167  14.125  18.635  0.00  0.00    +0.000 C 
ATOM     15  N   UNL     1      10.587  15.206  18.715  0.00  0.00    +0.000 NA
ENDBRANCH  10  14
ENDBRANCH   5   7
ENDBRANCH   1   2
BRANCH   1  17
ATOM     16  C   UNL     1       6.586   4.069  15.927  0.00  0.00    +0.000 C 
ATOM     17  C   UNL     1       5.797   5.093  16.759  0.00  0.00    +0.000 C 
BRANCH  17  18
ATOM     18  N   UNL     1       4.359   4.827  16.568  0.00  0.00    +0.000 N 
ATOM     19  H   UNL     1       4.109   4.447  15.647  0.00  0.00    +0.000 HD
BRANCH  18  20
ATOM     20  C   UNL     1       3.614   4.103  17.535  0.00  0.00    +0.000 A 
ATOM     21  C   UNL     1       3.593   2.700  17.546  0.00  0.00    +0.000 A 
ATOM     22  C   UNL     1       2.927   1.994  18.542  0.00  0.00    +0.000 A 
ATOM     23  C   UNL     1       2.282   2.683  19.558  0.00  0.00    +0.000 A 
ATOM     24  C   UNL     1       2.316   4.082  19.594  0.00  0.00    +0.000 A 
ATOM     25  C   UNL     1       1.689   4.773  20.640  0.00  0.00    +0.000 A 
ATOM     26  C   UNL     1       1.741   6.158  20.681  0.00  0.00    +0.000 A 
ATOM     27  C   UNL     1       2.410   6.805  19.661  0.00  0.00    +0.000 A 
ATOM     28  N   UNL     1       3.016   6.174  18.627  0.00  0.00    +0.000 NA
ATOM     29  C   UNL     1       2.986   4.817  18.590  0.00  0.00    +0.000 A 
ENDBRANCH  18  20
ENDBRANCH  17  18
ENDBRANCH   1  17
TORSDOF 6
ENDMDL
MODEL 7
REMARK VINA RESULT:      -8.0      0.897      1.042
REMARK  Name = 
REMARK  7 active torsions:
REMARK  status: ('A' for Active; 'I' for Inactive)
REMARK    1  A    between atoms: C_1  and  C_2
REMARK    2  A    between atoms: C_2  and  C_3
REMARK    3  A    between atoms: C_2  and  N_18
REMARK    4  A    between atoms: C_3  and  N_4
REMARK    5  A    between atoms: C_7  and  C_8
REMARK    6  A    between atoms: C_11  and  C_12
REMARK    7  A    between atoms: N_18  and  C_19
REMARK                            x       y       z     vdW  Elec       q    Type
REMARK                         _______ _______ _______ _____ _____    ______ ____
ROOT
ATOM      1  C   UNL     1       2.059   4.663  20.562  0.00  0.00    +0.000 C 
ENDROOT
BRANCH   1   2
ATOM      2  N   UNL     1       1.997   6.087  20.285  0.00  0.00    +0.000 N 
ATOM      3  C   UNL     1       2.452   6.738  19.176  0.00  0.00    +0.000 A 
ATOM      4  C   UNL     1       2.048   8.045  19.321  0.00  0.00    +0.000 A 
ATOM      5  C   UNL     1       1.356   8.096  20.560  0.00  0.00    +0.000 A 
ATOM      6  N   UNL     1       1.383   6.899  21.161  0.00  0.00    +0.000 NA
BRANCH   5   7
ATOM      7  C   UNL     1       0.640   9.218  21.161  0.00  0.00    +0.000 A 
ATOM      8  C   UNL     1       0.124   9.137  22.460  0.00  0.00    +0.000 A 
ATOM      9  C   UNL     1      -0.523  10.236  23.031  0.00  0.00    +0.000 A 
ATOM     10  C   UNL     1      -0.662  11.432  22.313  0.00  0.00    +0.000 A 
ATOM     11  C   UNL     1      -0.156  11.514  21.011  0.00  0.00    +0.000 A 
ATOM     12 CL   UNL     1      -0.283  12.955  20.066  0.00  0.00    +0.000 Cl
ATOM     13  C   UNL     1       0.485  10.413  20.439  0.00  0.00    +0.000 A 
BRANCH  10  14
ATOM     14  C   UNL     1      -1.320  12.537  22.940  0.00  0.00    +0.000 C 
ATOM     15  N   UNL     1      -1.870  13.412  23.473  0.00  0.00    +0.000 NA
ENDBRANCH  10  14
ENDBRANCH   5   7
ENDBRANCH   1   2
BRANCH   1  17
ATOM     16  C   UNL     1       1.628   2.477  19.341  0.00  0.00    +0.000 C 
ATOM     17  C   UNL     1       2.362   3.827  19.299  0.00  0.00    +0.000 C 
BRANCH  17  18
ATOM     18  N   UNL     1       3.808   3.559  19.191  0.00  0.00    +0.000 N 
ATOM     19  H   UNL     1       4.078   2.580  19.346  0.00  0.00    +0.000 HD
BRANCH  18  20
ATOM     20  C   UNL     1       4.558   4.029  18.082  0.00  0.00    +0.000 A 
ATOM     21  C   UNL     1       4.098   3.872  16.765  0.00  0.00    +0.000 A 
ATOM     22  C   UNL     1       4.798   4.404  15.687  0.00  0.00    +0.000 A 
ATOM     23  C   UNL     1       5.965   5.118  15.909  0.00  0.00    +0.000 A 
ATOM     24  C   UNL     1       6.429   5.322  17.214  0.00  0.00    +0.000 A 
ATOM     25  C   UNL     1       7.592   6.072  17.437  0.00  0.00    +0.000 A 
ATOM     26  C   UNL     1       8.038   6.287  18.732  0.00  0.00    +0.000 A 
ATOM     27  C   UNL     1       7.307   5.728  19.762  0.00  0.00    +0.000 A 
ATOM     28  N   UNL     1       6.187   4.988  19.587  0.00  0.00    +0.000 NA
ATOM     29  C   UNL     1       5.733   4.789  18.322  0.00  0.00    +0.000 A 
ENDBRANCH  18  20
ENDBRANCH  17  18
ENDBRANCH   1  17
TORSDOF 6
ENDMDL
MODEL 8
REMARK VINA RESULT:      -7.9      1.677      2.300
REMARK  Name = 
REMARK  7 active torsions:
REMARK  status: ('A' for Active; 'I' for Inactive)
REMARK    1  A    between atoms: C_1  and  C_2
REMARK    2  A    between atoms: C_2  and  C_3
REMARK    3  A    between atoms: C_2  and  N_18
REMARK    4  A    between atoms: C_3  and  N_4
REMARK    5  A    between atoms: C_7  and  C_8
REMARK    6  A    between atoms: C_11  and  C_12
REMARK    7  A    between atoms: N_18  and  C_19
REMARK                            x       y       z     vdW  Elec       q    Type
REMARK                         _______ _______ _______ _____ _____    ______ ____
ROOT
ATOM      1  C   UNL     1       4.061   3.566  19.721  0.00  0.00    +0.000 C 
ENDROOT
BRANCH   1   2
ATOM      2  N   UNL     1       3.015   4.527  20.023  0.00  0.00    +0.000 N 
ATOM      3  C   UNL     1       2.021   4.408  20.950  0.00  0.00    +0.000 A 
ATOM      4  C   UNL     1       1.370   5.620  20.954  0.00  0.00    +0.000 A 
ATOM      5  C   UNL     1       2.038   6.415  19.984  0.00  0.00    +0.000 A 
ATOM      6  N   UNL     1       3.008   5.709  19.387  0.00  0.00    +0.000 NA
BRANCH   5   7
ATOM      7  C   UNL     1       1.819   7.819  19.646  0.00  0.00    +0.000 A 
ATOM      8  C   UNL     1       2.180   8.327  18.393  0.00  0.00    +0.000 A 
ATOM      9  C   UNL     1       1.925   9.664  18.075  0.00  0.00    +0.000 A 
ATOM     10  C   UNL     1       1.303  10.510  19.003  0.00  0.00    +0.000 A 
ATOM     11  C   UNL     1       0.948  10.008  20.260  0.00  0.00    +0.000 A 
ATOM     12 CL   UNL     1       0.172  10.987  21.455  0.00  0.00    +0.000 Cl
ATOM     13  C   UNL     1       1.209   8.674  20.579  0.00  0.00    +0.000 A 
BRANCH  10  14
ATOM     14  C   UNL     1       1.048  11.869  18.632  0.00  0.00    +0.000 C 
ATOM     15  N   UNL     1       0.870  12.983  18.352  0.00  0.00    +0.000 NA
ENDBRANCH  10  14
ENDBRANCH   5   7
ENDBRANCH   1   2
BRANCH   1  17
ATOM     16  C   UNL     1       3.536   1.440  18.433  0.00  0.00    +0.000 C 
ATOM     17  C   UNL     1       3.894   2.931  18.323  0.00  0.00    +0.000 C 
BRANCH  17  18
ATOM     18  N   UNL     1       5.145   3.045  17.550  0.00  0.00    +0.000 N 
ATOM     19  H   UNL     1       5.307   2.286  16.876  0.00  0.00    +0.000 HD
BRANCH  18  20
ATOM     20  C   UNL     1       5.497   4.259  16.905  0.00  0.00    +0.000 A 
ATOM     21  C   UNL     1       4.880   4.662  15.710  0.00  0.00    +0.000 A 
ATOM     22  C   UNL     1       5.172   5.889  15.123  0.00  0.00    +0.000 A 
ATOM     23  C   UNL     1       6.077   6.744  15.733  0.00  0.00    +0.000 A 
ATOM     24  C   UNL     1       6.681   6.386  16.944  0.00  0.00    +0.000 A 
ATOM     25  C   UNL     1       7.571   7.266  17.573  0.00  0.00    +0.000 A 
ATOM     26  C   UNL     1       8.153   6.915  18.781  0.00  0.00    +0.000 A 
ATOM     27  C   UNL     1       7.832   5.681  19.312  0.00  0.00    +0.000 A 
ATOM     28  N   UNL     1       6.987   4.797  18.728  0.00  0.00    +0.000 NA
ATOM     29  C   UNL     1       6.399   5.142  17.554  0.00  0.00    +0.000 A 
ENDBRANCH  18  20
ENDBRANCH  17  18
ENDBRANCH   1  17
TORSDOF 6
ENDMDL
MODEL 9
REMARK VINA RESULT:      -7.9      1.572      2.246
REMARK  Name = 
REMARK  7 active torsions:
REMARK  status: ('A' for Active; 'I' for Inactive)
REMARK    1  A    between atoms: C_1  and  C_2
REMARK    2  A    between atoms: C_2  and  C_3
REMARK    3  A    between atoms: C_2  and  N_18
REMARK    4  A    between atoms: C_3  and  N_4
REMARK    5  A    between atoms: C_7  and  C_8
REMARK    6  A    between atoms: C_11  and  C_12
REMARK    7  A    between atoms: N_18  and  C_19
REMARK                            x       y       z     vdW  Elec       q    Type
REMARK                         _______ _______ _______ _____ _____    ______ ____
ROOT
ATOM      1  C   UNL     1       2.116   2.210  18.643  0.00  0.00    +0.000 C 
ENDROOT
BRANCH   1   2
ATOM      2  N   UNL     1       2.042   3.251  19.653  0.00  0.00    +0.000 N 
ATOM      3  C   UNL     1       2.447   3.178  20.953  0.00  0.00    +0.000 A 
ATOM      4  C   UNL     1       2.294   4.447  21.462  0.00  0.00    +0.000 A 
ATOM      5  C   UNL     1       1.778   5.228  20.392  0.00  0.00    +0.000 A 
ATOM      6  N   UNL     1       1.580   4.464  19.309  0.00  0.00    +0.000 NA
BRANCH   5   7
ATOM      7  C   UNL     1       1.517   6.664  20.353  0.00  0.00    +0.000 A 
ATOM      8  C   UNL     1       0.924   7.322  21.437  0.00  0.00    +0.000 A 
ATOM      9  C   UNL     1       0.719   8.704  21.395  0.00  0.00    +0.000 A 
ATOM     10  C   UNL     1       1.107   9.447  20.272  0.00  0.00    +0.000 A 
ATOM     11  C   UNL     1       1.692   8.792  19.183  0.00  0.00    +0.000 A 
ATOM     12 CL   UNL     1       2.202   9.639  17.766  0.00  0.00    +0.000 Cl
ATOM     13  C   UNL     1       1.890   7.410  19.223  0.00  0.00    +0.000 A 
BRANCH  10  14
ATOM     14  C   UNL     1       0.891  10.862  20.276  0.00  0.00    +0.000 C 
ATOM     15  N   UNL     1       0.680  12.005  20.268  0.00  0.00    +0.000 NA
ENDBRANCH  10  14
ENDBRANCH   5   7
ENDBRANCH   1   2
BRANCH   1  17
ATOM     16  C   UNL     1       4.185   0.737  18.578  0.00  0.00    +0.000 C 
ATOM     17  C   UNL     1       3.542   2.039  18.074  0.00  0.00    +0.000 C 
BRANCH  17  18
ATOM     18  N   UNL     1       4.402   3.164  18.487  0.00  0.00    +0.000 N 
ATOM     19  H   UNL     1       5.122   2.925  19.179  0.00  0.00    +0.000 HD
BRANCH  18  20
ATOM     20  C   UNL     1       5.012   4.009  17.524  0.00  0.00    +0.000 A 
ATOM     21  C   UNL     1       4.543   4.076  16.203  0.00  0.00    +0.000 A 
ATOM     22  C   UNL     1       5.093   4.964  15.284  0.00  0.00    +0.000 A 
ATOM     23  C   UNL     1       6.115   5.814  15.677  0.00  0.00    +0.000 A 
ATOM     24  C   UNL     1       6.580   5.795  16.998  0.00  0.00    +0.000 A 
ATOM     25  C   UNL     1       7.592   6.678  17.399  0.00  0.00    +0.000 A 
ATOM     26  C   UNL     1       8.036   6.668  18.712  0.00  0.00    +0.000 A 
ATOM     27  C   UNL     1       7.458   5.760  19.578  0.00  0.00    +0.000 A 
ATOM     28  N   UNL     1       6.488   4.883  19.225  0.00  0.00    +0.000 NA
ATOM     29  C   UNL     1       6.034   4.899  17.945  0.00  0.00    +0.000 A 
ENDBRANCH  18  20
ENDBRANCH  17  18
ENDBRANCH   1  17
TORSDOF 6
ENDMDL
