MODEL 1
REMARK VINA RESULT:      -7.7      0.000      0.000
REMARK  Name = 
REMARK  2 active torsions:
REMARK  status: ('A' for Active; 'I' for Inactive)
REMARK    1  A    between atoms: C_1  and  C_2
REMARK    2  A    between atoms: C_20  and  C_21
REMARK                            x       y       z     vdW  Elec       q    Type
REMARK                         _______ _______ _______ _____ _____    ______ ____
ROOT
ATOM      1  C   UNL     1      -2.858  14.402  24.361  0.00  0.00    +0.000 C 
ATOM      2  C   UNL     1      -1.842  13.574  23.668  0.00  0.00    +0.000 A 
ATOM      3  N   UNL     1      -0.575  13.904  23.502  0.00  0.00    +0.000 NA
ATOM      4  N   UNL     1       0.080  13.044  22.631  0.00  0.00    +0.000 NA
ATOM      5  C   UNL     1      -0.698  12.053  22.269  0.00  0.00    +0.000 A 
ATOM      6  N   UNL     1      -0.430  11.011  21.420  0.00  0.00    +0.000 N 
ATOM      7  C   UNL     1      -0.123   9.832  22.070  0.00  0.00    +0.000 C 
ATOM      8  O   UNL     1      -0.429   9.451  23.190  0.00  0.00    +0.000 OA
ATOM      9  C   UNL     1       0.756   9.068  21.180  0.00  0.00    +0.000 A 
ATOM     10  O   UNL     1       1.056   7.770  21.429  0.00  0.00    +0.000 OA
ATOM     11  C   UNL     1       1.603   7.072  20.389  0.00  0.00    +0.000 A 
ATOM     12  C   UNL     1       1.624   5.685  20.525  0.00  0.00    +0.000 A 
ATOM     13  C   UNL     1       2.274   4.913  19.579  0.00  0.00    +0.000 A 
ATOM     14  C   UNL     1       2.926   5.539  18.506  0.00  0.00    +0.000 A 
ATOM     15  C   UNL     1       2.844   6.930  18.336  0.00  0.00    +0.000 A 
ATOM     16  C   UNL     1       2.138   7.704  19.263  0.00  0.00    +0.000 A 
ATOM     17  C   UNL     1       1.869   9.167  19.069  0.00  0.00    +0.000 A 
ATOM     18  O   UNL     1       2.260   9.767  18.079  0.00  0.00    +0.000 OA
ATOM     19  C   UNL     1       1.059   9.820  20.112  0.00  0.00    +0.000 A 
ATOM     20  C   UNL     1       0.148  11.008  20.091  0.00  0.00    +0.000 C 
ATOM     21  S   UNL     1      -2.289  12.108  22.899  0.00  0.00    +0.000 S 
ENDROOT
BRANCH  20  22
ATOM     22  C   UNL     1       0.263  12.313  19.327  0.00  0.00    +0.000 A 
ATOM     23  C   UNL     1       1.565  12.869  19.221  0.00  0.00    +0.000 A 
ATOM     24  C   UNL     1       1.771  14.207  18.886  0.00  0.00    +0.000 A 
ATOM     25  C   UNL     1       0.675  15.008  18.608  0.00  0.00    +0.000 A 
ATOM     26 CL   UNL     1       0.899  16.701  18.392  0.00  0.00    +0.000 Cl
ATOM     27  C   UNL     1      -0.601  14.454  18.571  0.00  0.00    +0.000 A 
ATOM     28  C   UNL     1      -0.812  13.105  18.916  0.00  0.00    +0.000 A 
ENDBRANCH  20  22
TORSDOF 1
ENDMDL
MODEL 2
REMARK VINA RESULT:      -6.9      5.604      9.278
REMARK  Name = 
REMARK  2 active torsions:
REMARK  status: ('A' for Active; 'I' for Inactive)
REMARK    1  A    between atoms: C_1  and  C_2
REMARK    2  A    between atoms: C_20  and  C_21
REMARK                            x       y       z     vdW  Elec       q    Type
REMARK                         _______ _______ _______ _____ _____    ______ ____
ROOT
ATOM      1  C   UNL     1       5.521  -0.427  20.445  0.00  0.00    +0.000 C 
ATOM      2  C   UNL     1       4.831   0.777  19.921  0.00  0.00    +0.000 A 
ATOM      3  N   UNL     1       4.106   0.819  18.820  0.00  0.00    +0.000 NA
ATOM      4  N   UNL     1       3.771   2.118  18.464  0.00  0.00    +0.000 NA
ATOM      5  C   UNL     1       4.173   2.977  19.370  0.00  0.00    +0.000 A 
ATOM      6  N   UNL     1       4.044   4.341  19.384  0.00  0.00    +0.000 N 
ATOM      7  C   UNL     1       3.010   4.792  20.181  0.00  0.00    +0.000 C 
ATOM      8  O   UNL     1       2.477   4.266  21.146  0.00  0.00    +0.000 OA
ATOM      9  C   UNL     1       2.556   6.065  19.614  0.00  0.00    +0.000 A 
ATOM     10  O   UNL     1       1.702   6.873  20.289  0.00  0.00    +0.000 OA
ATOM     11  C   UNL     1       1.602   8.156  19.828  0.00  0.00    +0.000 A 
ATOM     12  C   UNL     1       0.985   9.068  20.682  0.00  0.00    +0.000 A 
ATOM     13  C   UNL     1       0.728  10.355  20.242  0.00  0.00    +0.000 A 
ATOM     14  C   UNL     1       1.071  10.717  18.931  0.00  0.00    +0.000 A 
ATOM     15  C   UNL     1       1.754   9.817  18.098  0.00  0.00    +0.000 A 
ATOM     16  C   UNL     1       2.064   8.535  18.564  0.00  0.00    +0.000 A 
ATOM     17  C   UNL     1       2.926   7.574  17.800  0.00  0.00    +0.000 A 
ATOM     18  O   UNL     1       3.408   7.866  16.716  0.00  0.00    +0.000 OA
ATOM     19  C   UNL     1       3.203   6.287  18.460  0.00  0.00    +0.000 A 
ATOM     20  C   UNL     1       4.344   5.323  18.361  0.00  0.00    +0.000 C 
ATOM     21  S   UNL     1       5.030   2.298  20.687  0.00  0.00    +0.000 S 
ENDROOT
BRANCH  20  22
ATOM     22  C   UNL     1       5.174   4.914  17.159  0.00  0.00    +0.000 A 
ATOM     23  C   UNL     1       6.550   5.259  17.197  0.00  0.00    +0.000 A 
ATOM     24  C   UNL     1       7.337   5.285  16.045  0.00  0.00    +0.000 A 
ATOM     25  C   UNL     1       6.769   4.924  14.834  0.00  0.00    +0.000 A 
ATOM     26 CL   UNL     1       7.666   5.143  13.381  0.00  0.00    +0.000 Cl
ATOM     27  C   UNL     1       5.461   4.450  14.792  0.00  0.00    +0.000 A 
ATOM     28  C   UNL     1       4.663   4.430  15.952  0.00  0.00    +0.000 A 
ENDBRANCH  20  22
TORSDOF 1
ENDMDL
MODEL 3
REMARK VINA RESULT:      -6.7      5.249      8.890
REMARK  Name = 
REMARK  2 active torsions:
REMARK  status: ('A' for Active; 'I' for Inactive)
REMARK    1  A    between atoms: C_1  and  C_2
REMARK    2  A    between atoms: C_20  and  C_21
REMARK                            x       y       z     vdW  Elec       q    Type
REMARK                         _______ _______ _______ _____ _____    ______ ____
ROOT
ATOM      1  C   UNL     1       5.203  -0.134  19.943  0.00  0.00    +0.000 C 
ATOM      2  C   UNL     1       4.493   1.130  19.631  0.00  0.00    +0.000 A 
ATOM      3  N   UNL     1       3.921   1.416  18.477  0.00  0.00    +0.000 NA
ATOM      4  N   UNL     1       3.529   2.745  18.403  0.00  0.00    +0.000 NA
ATOM      5  C   UNL     1       3.733   3.364  19.541  0.00  0.00    +0.000 A 
ATOM      6  N   UNL     1       3.491   4.672  19.868  0.00  0.00    +0.000 N 
ATOM      7  C   UNL     1       2.326   4.858  20.585  0.00  0.00    +0.000 C 
ATOM      8  O   UNL     1       1.714   4.080  21.302  0.00  0.00    +0.000 OA
ATOM      9  C   UNL     1       1.847   6.210  20.284  0.00  0.00    +0.000 A 
ATOM     10  O   UNL     1       0.847   6.780  21.000  0.00  0.00    +0.000 OA
ATOM     11  C   UNL     1       0.703   8.131  20.856  0.00  0.00    +0.000 A 
ATOM     12  C   UNL     1      -0.096   8.767  21.804  0.00  0.00    +0.000 A 
ATOM     13  C   UNL     1      -0.398  10.110  21.658  0.00  0.00    +0.000 A 
ATOM     14  C   UNL     1       0.086  10.808  20.542  0.00  0.00    +0.000 A 
ATOM     15  C   UNL     1       0.947  10.182  19.627  0.00  0.00    +0.000 A 
ATOM     16  C   UNL     1       1.296   8.840  19.807  0.00  0.00    +0.000 A 
ATOM     17  C   UNL     1       2.330   8.146  18.970  0.00  0.00    +0.000 A 
ATOM     18  O   UNL     1       2.927   8.724  18.075  0.00  0.00    +0.000 OA
ATOM     19  C   UNL     1       2.622   6.748  19.331  0.00  0.00    +0.000 A 
ATOM     20  C   UNL     1       3.842   5.895  19.171  0.00  0.00    +0.000 C 
ATOM     21  S   UNL     1       4.460   2.415  20.766  0.00  0.00    +0.000 S 
ENDROOT
BRANCH  20  22
ATOM     22  C   UNL     1       4.857   5.843  18.046  0.00  0.00    +0.000 A 
ATOM     23  C   UNL     1       4.373   6.150  16.747  0.00  0.00    +0.000 A 
ATOM     24  C   UNL     1       5.074   5.792  15.595  0.00  0.00    +0.000 A 
ATOM     25  C   UNL     1       6.298   5.155  15.721  0.00  0.00    +0.000 A 
ATOM     26 CL   UNL     1       7.075   4.530  14.318  0.00  0.00    +0.000 Cl
ATOM     27  C   UNL     1       6.858   4.966  16.983  0.00  0.00    +0.000 A 
ATOM     28  C   UNL     1       6.149   5.320  18.147  0.00  0.00    +0.000 A 
ENDBRANCH  20  22
TORSDOF 1
ENDMDL
MODEL 4
REMARK VINA RESULT:      -6.6      4.135      8.250
REMARK  Name = 
REMARK  2 active torsions:
REMARK  status: ('A' for Active; 'I' for Inactive)
REMARK    1  A    between atoms: C_1  and  C_2
REMARK    2  A    between atoms: C_20  and  C_21
REMARK                            x       y       z     vdW  Elec       q    Type
REMARK                         _______ _______ _______ _____ _____    ______ ____
ROOT
ATOM      1  C   UNL     1       3.716  15.187  19.980  0.00  0.00    +0.000 C 
ATOM      2  C   UNL     1       2.454  14.968  20.727  0.00  0.00    +0.000 A 
ATOM      3  N   UNL     1       2.357  14.367  21.896  0.00  0.00    +0.000 NA
ATOM      4  N   UNL     1       1.038  14.112  22.245  0.00  0.00    +0.000 NA
ATOM      5  C   UNL     1       0.208  14.626  21.370  0.00  0.00    +0.000 A 
ATOM      6  N   UNL     1      -1.161  14.584  21.351  0.00  0.00    +0.000 N 
ATOM      7  C   UNL     1      -1.758  15.744  21.805  0.00  0.00    +0.000 C 
ATOM      8  O   UNL     1      -1.330  16.888  21.831  0.00  0.00    +0.000 OA
ATOM      9  C   UNL     1      -3.060  15.367  22.364  0.00  0.00    +0.000 A 
ATOM     10  O   UNL     1      -3.985  16.302  22.691  0.00  0.00    +0.000 OA
ATOM     11  C   UNL     1      -5.255  15.841  22.891  0.00  0.00    +0.000 A 
ATOM     12  C   UNL     1      -6.261  16.806  22.915  0.00  0.00    +0.000 A 
ATOM     13  C   UNL     1      -7.556  16.441  23.240  0.00  0.00    +0.000 A 
ATOM     14  C   UNL     1      -7.834  15.105  23.564  0.00  0.00    +0.000 A 
ATOM     15  C   UNL     1      -6.835  14.125  23.471  0.00  0.00    +0.000 A 
ATOM     16  C   UNL     1      -5.538  14.486  23.089  0.00  0.00    +0.000 A 
ATOM     17  C   UNL     1      -4.458  13.483  22.812  0.00  0.00    +0.000 A 
ATOM     18  O   UNL     1      -4.657  12.282  22.910  0.00  0.00    +0.000 OA
ATOM     19  C   UNL     1      -3.167  14.030  22.360  0.00  0.00    +0.000 A 
ATOM     20  C   UNL     1      -2.069  13.465  21.514  0.00  0.00    +0.000 C 
ATOM     21  S   UNL     1       0.946  15.404  20.036  0.00  0.00    +0.000 S 
ENDROOT
BRANCH  20  22
ATOM     22  C   UNL     1      -1.527  12.051  21.433  0.00  0.00    +0.000 A 
ATOM     23  C   UNL     1      -1.258  11.407  22.670  0.00  0.00    +0.000 A 
ATOM     24  C   UNL     1      -0.432  10.286  22.754  0.00  0.00    +0.000 A 
ATOM     25  C   UNL     1       0.108   9.759  21.592  0.00  0.00    +0.000 A 
ATOM     26 CL   UNL     1       1.283   8.506  21.699  0.00  0.00    +0.000 Cl
ATOM     27  C   UNL     1      -0.251  10.288  20.354  0.00  0.00    +0.000 A 
ATOM     28  C   UNL     1      -1.078  11.424  20.268  0.00  0.00    +0.000 A 
ENDBRANCH  20  22
TORSDOF 1
ENDMDL
MODEL 5
REMARK VINA RESULT:      -6.2      9.045     10.282
REMARK  Name = 
REMARK  2 active torsions:
REMARK  status: ('A' for Active; 'I' for Inactive)
REMARK    1  A    between atoms: C_1  and  C_2
REMARK    2  A    between atoms: C_20  and  C_21
REMARK                            x       y       z     vdW  Elec       q    Type
REMARK                         _______ _______ _______ _____ _____    ______ ____
ROOT
ATOM      1  C   UNL     1       7.509  18.100  26.994  0.00  0.00    +0.000 C 
ATOM      2  C   UNL     1       7.606  17.237  25.792  0.00  0.00    +0.000 A 
ATOM      3  N   UNL     1       6.582  16.712  25.148  0.00  0.00    +0.000 NA
ATOM      4  N   UNL     1       6.983  15.777  24.203  0.00  0.00    +0.000 NA
ATOM      5  C   UNL     1       8.289  15.724  24.113  0.00  0.00    +0.000 A 
ATOM      6  N   UNL     1       9.068  14.930  23.312  0.00  0.00    +0.000 N 
ATOM      7  C   UNL     1       9.548  15.576  22.190  0.00  0.00    +0.000 C 
ATOM      8  O   UNL     1       9.743  16.766  21.993  0.00  0.00    +0.000 OA
ATOM      9  C   UNL     1       9.738  14.555  21.155  0.00  0.00    +0.000 A 
ATOM     10  O   UNL     1      10.407  14.829  20.009  0.00  0.00    +0.000 OA
ATOM     11  C   UNL     1      10.804  13.746  19.275  0.00  0.00    +0.000 A 
ATOM     12  C   UNL     1      11.748  13.993  18.279  0.00  0.00    +0.000 A 
ATOM     13  C   UNL     1      12.107  12.980  17.408  0.00  0.00    +0.000 A 
ATOM     14  C   UNL     1      11.498  11.722  17.525  0.00  0.00    +0.000 A 
ATOM     15  C   UNL     1      10.601  11.457  18.571  0.00  0.00    +0.000 A 
ATOM     16  C   UNL     1      10.281  12.467  19.485  0.00  0.00    +0.000 A 
ATOM     17  C   UNL     1       9.460  12.223  20.717  0.00  0.00    +0.000 A 
ATOM     18  O   UNL     1       9.022  11.116  20.988  0.00  0.00    +0.000 OA
ATOM     19  C   UNL     1       9.267  13.383  21.605  0.00  0.00    +0.000 A 
ATOM     20  C   UNL     1       9.021  13.500  23.077  0.00  0.00    +0.000 C 
ATOM     21  S   UNL     1       9.137  16.748  25.192  0.00  0.00    +0.000 S 
ENDROOT
BRANCH  20  22
ATOM     22  C   UNL     1       8.203  12.622  24.003  0.00  0.00    +0.000 A 
ATOM     23  C   UNL     1       7.018  12.061  23.457  0.00  0.00    +0.000 A 
ATOM     24  C   UNL     1       6.000  11.556  24.266  0.00  0.00    +0.000 A 
ATOM     25  C   UNL     1       6.166  11.563  25.642  0.00  0.00    +0.000 A 
ATOM     26 CL   UNL     1       4.843  11.132  26.655  0.00  0.00    +0.000 Cl
ATOM     27  C   UNL     1       7.374  11.980  26.195  0.00  0.00    +0.000 A 
ATOM     28  C   UNL     1       8.400  12.497  25.381  0.00  0.00    +0.000 A 
ENDBRANCH  20  22
TORSDOF 1
ENDMDL
MODEL 6
REMARK VINA RESULT:      -6.2      5.105      8.741
REMARK  Name = 
REMARK  2 active torsions:
REMARK  status: ('A' for Active; 'I' for Inactive)
REMARK    1  A    between atoms: C_1  and  C_2
REMARK    2  A    between atoms: C_20  and  C_21
REMARK                            x       y       z     vdW  Elec       q    Type
REMARK                         _______ _______ _______ _____ _____    ______ ____
ROOT
ATOM      1  C   UNL     1       4.829   0.147  19.464  0.00  0.00    +0.000 C 
ATOM      2  C   UNL     1       4.093   1.415  19.237  0.00  0.00    +0.000 A 
ATOM      3  N   UNL     1       3.203   1.618  18.285  0.00  0.00    +0.000 NA
ATOM      4  N   UNL     1       2.846   2.955  18.179  0.00  0.00    +0.000 NA
ATOM      5  C   UNL     1       3.408   3.672  19.121  0.00  0.00    +0.000 A 
ATOM      6  N   UNL     1       3.316   5.019  19.352  0.00  0.00    +0.000 N 
ATOM      7  C   UNL     1       2.434   5.351  20.361  0.00  0.00    +0.000 C 
ATOM      8  O   UNL     1       2.050   4.690  21.315  0.00  0.00    +0.000 OA
ATOM      9  C   UNL     1       1.925   6.693  20.064  0.00  0.00    +0.000 A 
ATOM     10  O   UNL     1       1.211   7.394  20.978  0.00  0.00    +0.000 OA
ATOM     11  C   UNL     1       1.069   8.730  20.727  0.00  0.00    +0.000 A 
ATOM     12  C   UNL     1       0.619   9.508  21.792  0.00  0.00    +0.000 A 
ATOM     13  C   UNL     1       0.325  10.846  21.589  0.00  0.00    +0.000 A 
ATOM     14  C   UNL     1       0.463  11.395  20.305  0.00  0.00    +0.000 A 
ATOM     15  C   UNL     1       0.982  10.626  19.253  0.00  0.00    +0.000 A 
ATOM     16  C   UNL     1       1.331   9.289  19.473  0.00  0.00    +0.000 A 
ATOM     17  C   UNL     1       2.037   8.450  18.450  0.00  0.00    +0.000 A 
ATOM     18  O   UNL     1       2.346   8.895  17.355  0.00  0.00    +0.000 OA
ATOM     19  C   UNL     1       2.385   7.080  18.865  0.00  0.00    +0.000 A 
ATOM     20  C   UNL     1       3.471   6.140  18.445  0.00  0.00    +0.000 C 
ATOM     21  S   UNL     1       4.449   2.808  20.171  0.00  0.00    +0.000 S 
ENDROOT
BRANCH  20  22
ATOM     22  C   UNL     1       4.089   5.910  17.079  0.00  0.00    +0.000 A 
ATOM     23  C   UNL     1       4.291   4.557  16.698  0.00  0.00    +0.000 A 
ATOM     24  C   UNL     1       5.163   4.203  15.668  0.00  0.00    +0.000 A 
ATOM     25  C   UNL     1       5.820   5.202  14.968  0.00  0.00    +0.000 A 
ATOM     26 CL   UNL     1       7.045   4.776  13.836  0.00  0.00    +0.000 Cl
ATOM     27  C   UNL     1       5.534   6.540  15.230  0.00  0.00    +0.000 A 
ATOM     28  C   UNL     1       4.660   6.899  16.275  0.00  0.00    +0.000 A 
ENDBRANCH  20  22
TORSDOF 1
ENDMDL
MODEL 7
REMARK VINA RESULT:      -6.1      4.040      8.093
REMARK  Name = 
REMARK  2 active torsions:
REMARK  status: ('A' for Active; 'I' for Inactive)
REMARK    1  A    between atoms: C_1  and  C_2
REMARK    2  A    between atoms: C_20  and  C_21
REMARK                            x       y       z     vdW  Elec       q    Type
REMARK                         _______ _______ _______ _____ _____    ______ ____
ROOT
ATOM      1  C   UNL     1       3.925  15.407  19.721  0.00  0.00    +0.000 C 
ATOM      2  C   UNL     1       2.723  15.157  20.552  0.00  0.00    +0.000 A 
ATOM      3  N   UNL     1       2.736  14.731  21.801  0.00  0.00    +0.000 NA
ATOM      4  N   UNL     1       1.470  14.379  22.246  0.00  0.00    +0.000 NA
ATOM      5  C   UNL     1       0.557  14.654  21.347  0.00  0.00    +0.000 A 
ATOM      6  N   UNL     1      -0.797  14.449  21.401  0.00  0.00    +0.000 N 
ATOM      7  C   UNL     1      -1.518  15.585  21.709  0.00  0.00    +0.000 C 
ATOM      8  O   UNL     1      -1.233  16.763  21.548  0.00  0.00    +0.000 OA
ATOM      9  C   UNL     1      -2.745  15.147  22.380  0.00  0.00    +0.000 A 
ATOM     10  O   UNL     1      -3.768  16.005  22.611  0.00  0.00    +0.000 OA
ATOM     11  C   UNL     1      -4.966  15.434  22.938  0.00  0.00    +0.000 A 
ATOM     12  C   UNL     1      -6.081  16.267  22.870  0.00  0.00    +0.000 A 
ATOM     13  C   UNL     1      -7.310  15.805  23.307  0.00  0.00    +0.000 A 
ATOM     14  C   UNL     1      -7.412  14.509  23.836  0.00  0.00    +0.000 A 
ATOM     15  C   UNL     1      -6.302  13.651  23.839  0.00  0.00    +0.000 A 
ATOM     16  C   UNL     1      -5.073  14.101  23.345  0.00  0.00    +0.000 A 
ATOM     17  C   UNL     1      -3.886  13.201  23.166  0.00  0.00    +0.000 A 
ATOM     18  O   UNL     1      -3.932  12.013  23.447  0.00  0.00    +0.000 OA
ATOM     19  C   UNL     1      -2.687  13.821  22.577  0.00  0.00    +0.000 A 
ATOM     20  C   UNL     1      -1.554  13.269  21.769  0.00  0.00    +0.000 C 
ATOM     21  S   UNL     1       1.152  15.303  19.879  0.00  0.00    +0.000 S 
ENDROOT
BRANCH  20  22
ATOM     22  C   UNL     1      -0.845  11.932  21.869  0.00  0.00    +0.000 A 
ATOM     23  C   UNL     1      -0.280  11.426  20.669  0.00  0.00    +0.000 A 
ATOM     24  C   UNL     1       0.063  10.082  20.524  0.00  0.00    +0.000 A 
ATOM     25  C   UNL     1      -0.111   9.223  21.597  0.00  0.00    +0.000 A 
ATOM     26 CL   UNL     1       0.118   7.531  21.372  0.00  0.00    +0.000 Cl
ATOM     27  C   UNL     1      -0.533   9.721  22.827  0.00  0.00    +0.000 A 
ATOM     28  C   UNL     1      -0.888  11.076  22.973  0.00  0.00    +0.000 A 
ENDBRANCH  20  22
TORSDOF 1
ENDMDL
MODEL 8
REMARK VINA RESULT:      -6.1      7.767      9.112
REMARK  Name = 
REMARK  2 active torsions:
REMARK  status: ('A' for Active; 'I' for Inactive)
REMARK    1  A    between atoms: C_1  and  C_2
REMARK    2  A    between atoms: C_20  and  C_21
REMARK                            x       y       z     vdW  Elec       q    Type
REMARK                         _______ _______ _______ _____ _____    ______ ____
ROOT
ATOM      1  C   UNL     1       1.802  17.009  22.518  0.00  0.00    +0.000 C 
ATOM      2  C   UNL     1       2.911  16.088  22.173  0.00  0.00    +0.000 A 
ATOM      3  N   UNL     1       2.903  14.782  22.362  0.00  0.00    +0.000 NA
ATOM      4  N   UNL     1       4.151  14.215  22.150  0.00  0.00    +0.000 NA
ATOM      5  C   UNL     1       5.009  15.105  21.713  0.00  0.00    +0.000 A 
ATOM      6  N   UNL     1       6.333  14.947  21.399  0.00  0.00    +0.000 N 
ATOM      7  C   UNL     1       6.571  14.831  20.043  0.00  0.00    +0.000 C 
ATOM      8  O   UNL     1       5.914  15.233  19.095  0.00  0.00    +0.000 OA
ATOM      9  C   UNL     1       7.787  14.028  19.888  0.00  0.00    +0.000 A 
ATOM     10  O   UNL     1       8.412  13.920  18.690  0.00  0.00    +0.000 OA
ATOM     11  C   UNL     1       9.687  13.430  18.723  0.00  0.00    +0.000 A 
ATOM     12  C   UNL     1      10.442  13.605  17.564  0.00  0.00    +0.000 A 
ATOM     13  C   UNL     1      11.696  13.026  17.468  0.00  0.00    +0.000 A 
ATOM     14  C   UNL     1      12.181  12.250  18.530  0.00  0.00    +0.000 A 
ATOM     15  C   UNL     1      11.449  12.135  19.722  0.00  0.00    +0.000 A 
ATOM     16  C   UNL     1      10.206  12.766  19.839  0.00  0.00    +0.000 A 
ATOM     17  C   UNL     1       9.437  12.824  21.126  0.00  0.00    +0.000 A 
ATOM     18  O   UNL     1       9.861  12.314  22.151  0.00  0.00    +0.000 OA
ATOM     19  C   UNL     1       8.173  13.580  21.092  0.00  0.00    +0.000 A 
ATOM     20  C   UNL     1       7.406  14.319  22.144  0.00  0.00    +0.000 C 
ATOM     21  S   UNL     1       4.399  16.699  21.576  0.00  0.00    +0.000 S 
ENDROOT
BRANCH  20  22
ATOM     22  C   UNL     1       7.202  13.994  23.611  0.00  0.00    +0.000 A 
ATOM     23  C   UNL     1       7.325  15.078  24.520  0.00  0.00    +0.000 A 
ATOM     24  C   UNL     1       7.531  14.877  25.885  0.00  0.00    +0.000 A 
ATOM     25  C   UNL     1       7.574  13.582  26.376  0.00  0.00    +0.000 A 
ATOM     26 CL   UNL     1       8.024  13.314  28.015  0.00  0.00    +0.000 Cl
ATOM     27  C   UNL     1       7.318  12.507  25.528  0.00  0.00    +0.000 A 
ATOM     28  C   UNL     1       7.119  12.707  24.149  0.00  0.00    +0.000 A 
ENDBRANCH  20  22
TORSDOF 1
ENDMDL
MODEL 9
REMARK VINA RESULT:      -6.1      3.605      7.491
REMARK  Name = 
REMARK  2 active torsions:
REMARK  status: ('A' for Active; 'I' for Inactive)
REMARK    1  A    between atoms: C_1  and  C_2
REMARK    2  A    between atoms: C_20  and  C_21
REMARK                            x       y       z     vdW  Elec       q    Type
REMARK                         _______ _______ _______ _____ _____    ______ ____
ROOT
ATOM      1  C   UNL     1      -3.888   9.685  15.234  0.00  0.00    +0.000 C 
ATOM      2  C   UNL     1      -3.366  10.576  16.299  0.00  0.00    +0.000 A 
ATOM      3  N   UNL     1      -2.334  11.388  16.174  0.00  0.00    +0.000 NA
ATOM      4  N   UNL     1      -1.943  11.928  17.391  0.00  0.00    +0.000 NA
ATOM      5  C   UNL     1      -2.763  11.576  18.352  0.00  0.00    +0.000 A 
ATOM      6  N   UNL     1      -2.718  11.891  19.684  0.00  0.00    +0.000 N 
ATOM      7  C   UNL     1      -3.580  12.909  20.044  0.00  0.00    +0.000 C 
ATOM      8  O   UNL     1      -4.616  13.283  19.514  0.00  0.00    +0.000 OA
ATOM      9  C   UNL     1      -2.991  13.580  21.205  0.00  0.00    +0.000 A 
ATOM     10  O   UNL     1      -3.698  14.479  21.934  0.00  0.00    +0.000 OA
ATOM     11  C   UNL     1      -3.181  14.793  23.159  0.00  0.00    +0.000 A 
ATOM     12  C   UNL     1      -4.039  15.459  24.033  0.00  0.00    +0.000 A 
ATOM     13  C   UNL     1      -3.557  15.927  25.244  0.00  0.00    +0.000 A 
ATOM     14  C   UNL     1      -2.204  15.746  25.564  0.00  0.00    +0.000 A 
ATOM     15  C   UNL     1      -1.361  15.016  24.712  0.00  0.00    +0.000 A 
ATOM     16  C   UNL     1      -1.863  14.495  23.515  0.00  0.00    +0.000 A 
ATOM     17  C   UNL     1      -1.075  13.573  22.632  0.00  0.00    +0.000 A 
ATOM     18  O   UNL     1       0.062  13.227  22.915  0.00  0.00    +0.000 OA
ATOM     19  C   UNL     1      -1.774  13.067  21.438  0.00  0.00    +0.000 A 
ATOM     20  C   UNL     1      -1.622  11.816  20.630  0.00  0.00    +0.000 C 
ATOM     21  S   UNL     1      -4.032  10.527  17.879  0.00  0.00    +0.000 S 
ENDROOT
BRANCH  20  22
ATOM     22  C   UNL     1      -0.374  11.038  20.260  0.00  0.00    +0.000 A 
ATOM     23  C   UNL     1       0.517  11.670  19.353  0.00  0.00    +0.000 A 
ATOM     24  C   UNL     1       1.485  10.953  18.649  0.00  0.00    +0.000 A 
ATOM     25  C   UNL     1       1.610   9.592  18.873  0.00  0.00    +0.000 A 
ATOM     26 CL   UNL     1       2.658   8.663  17.871  0.00  0.00    +0.000 Cl
ATOM     27  C   UNL     1       0.843   8.974  19.857  0.00  0.00    +0.000 A 
ATOM     28  C   UNL     1      -0.141   9.694  20.563  0.00  0.00    +0.000 A 
ENDBRANCH  20  22
TORSDOF 1
ENDMDL
