MODEL 1
REMARK VINA RESULT:      -6.9      0.000      0.000
REMARK  Name = 
REMARK  4 active torsions:
REMARK  status: ('A' for Active; 'I' for Inactive)
REMARK    1  A    between atoms: C_5  and  C_6
REMARK    2  A    between atoms: C_6  and  S_7
REMARK    3  A    between atoms: S_7  and  C_8
REMARK    4  A    between atoms: C_10  and  C_11
REMARK                            x       y       z     vdW  Elec       q    Type
REMARK                         _______ _______ _______ _____ _____    ______ ____
ROOT
ATOM      1  C   UNL     1       6.947   4.686  16.048  0.00  0.00    +0.000 A 
ATOM      2  N   UNL     1       6.216   3.835  15.369  0.00  0.00    +0.000 NA
ATOM      3  C   UNL     1       6.479   4.181  14.048  0.00  0.00    +0.000 A 
ATOM      4  N   UNL     1       7.338   5.208  13.917  0.00  0.00    +0.000 NA
ATOM      5  N   UNL     1       7.614   5.503  15.194  0.00  0.00    +0.000 N 
ATOM      6  H   UNL     1       8.249   6.259  15.414  0.00  0.00    +0.000 HD
ENDROOT
BRANCH   3   7
ATOM      7  C   UNL     1       5.882   3.496  12.902  0.00  0.00    +0.000 A 
ATOM      8  C   UNL     1       6.554   2.460  12.255  0.00  0.00    +0.000 A 
ATOM      9  C   UNL     1       5.938   1.847  11.175  0.00  0.00    +0.000 A 
ATOM     10  N   UNL     1       4.721   2.192  10.703  0.00  0.00    +0.000 NA
ATOM     11  C   UNL     1       4.088   3.198  11.340  0.00  0.00    +0.000 A 
ATOM     12  C   UNL     1       4.619   3.870  12.429  0.00  0.00    +0.000 A 
ENDBRANCH   3   7
BRANCH   1  13
ATOM     13  S   UNL     1       7.157   4.889  17.743  0.00  0.00    +0.000 S 
BRANCH  13  14
ATOM     14  C   UNL     1       5.705   5.869  18.212  0.00  0.00    +0.000 C 
BRANCH  14  19
ATOM     15 CL   UNL     1       0.802   2.359  18.662  0.00  0.00    +0.000 Cl
ATOM     16  C   UNL     1       2.199   3.357  18.528  0.00  0.00    +0.000 A 
ATOM     17  C   UNL     1       3.437   2.876  18.945  0.00  0.00    +0.000 A 
ATOM     18  C   UNL     1       4.571   3.689  18.841  0.00  0.00    +0.000 A 
ATOM     19  C   UNL     1       4.473   4.993  18.328  0.00  0.00    +0.000 A 
ATOM     20  C   UNL     1       3.218   5.456  17.901  0.00  0.00    +0.000 A 
ATOM     21  C   UNL     1       2.084   4.642  18.003  0.00  0.00    +0.000 A 
ENDBRANCH  14  19
ENDBRANCH  13  14
ENDBRANCH   1  13
TORSDOF 4
ENDMDL
MODEL 2
REMARK VINA RESULT:      -6.9      2.885      3.717
REMARK  Name = 
REMARK  4 active torsions:
REMARK  status: ('A' for Active; 'I' for Inactive)
REMARK    1  A    between atoms: C_5  and  C_6
REMARK    2  A    between atoms: C_6  and  S_7
REMARK    3  A    between atoms: S_7  and  C_8
REMARK    4  A    between atoms: C_10  and  C_11
REMARK                            x       y       z     vdW  Elec       q    Type
REMARK                         _______ _______ _______ _____ _____    ______ ____
ROOT
ATOM      1  C   UNL     1       5.931   4.771  17.975  0.00  0.00    +0.000 A 
ATOM      2  N   UNL     1       5.576   4.808  16.713  0.00  0.00    +0.000 NA
ATOM      3  C   UNL     1       6.766   4.541  16.045  0.00  0.00    +0.000 A 
ATOM      4  N   UNL     1       7.815   4.349  16.864  0.00  0.00    +0.000 NA
ATOM      5  N   UNL     1       7.256   4.501  18.072  0.00  0.00    +0.000 N 
ATOM      6  H   UNL     1       7.821   4.412  18.907  0.00  0.00    +0.000 HD
ENDROOT
BRANCH   3   7
ATOM      7  C   UNL     1       6.875   4.473  14.589  0.00  0.00    +0.000 A 
ATOM      8  C   UNL     1       7.748   5.310  13.894  0.00  0.00    +0.000 A 
ATOM      9  C   UNL     1       7.810   5.201  12.514  0.00  0.00    +0.000 A 
ATOM     10  N   UNL     1       7.073   4.330  11.791  0.00  0.00    +0.000 NA
ATOM     11  C   UNL     1       6.234   3.530  12.480  0.00  0.00    +0.000 A 
ATOM     12  C   UNL     1       6.102   3.563  13.858  0.00  0.00    +0.000 A 
ENDBRANCH   3   7
BRANCH   1  13
ATOM     13  S   UNL     1       5.011   5.001  19.410  0.00  0.00    +0.000 S 
BRANCH  13  14
ATOM     14  C   UNL     1       3.307   5.047  18.791  0.00  0.00    +0.000 C 
BRANCH  14  19
ATOM     15 CL   UNL     1       0.900  10.557  19.435  0.00  0.00    +0.000 Cl
ATOM     16  C   UNL     1       1.581   8.986  19.249  0.00  0.00    +0.000 A 
ATOM     17  C   UNL     1       1.543   8.085  20.309  0.00  0.00    +0.000 A 
ATOM     18  C   UNL     1       2.101   6.811  20.159  0.00  0.00    +0.000 A 
ATOM     19  C   UNL     1       2.709   6.432  18.951  0.00  0.00    +0.000 A 
ATOM     20  C   UNL     1       2.725   7.350  17.889  0.00  0.00    +0.000 A 
ATOM     21  C   UNL     1       2.166   8.625  18.038  0.00  0.00    +0.000 A 
ENDBRANCH  14  19
ENDBRANCH  13  14
ENDBRANCH   1  13
TORSDOF 4
ENDMDL
MODEL 3
REMARK VINA RESULT:      -6.9      4.181      7.119
REMARK  Name = 
REMARK  4 active torsions:
REMARK  status: ('A' for Active; 'I' for Inactive)
REMARK    1  A    between atoms: C_5  and  C_6
REMARK    2  A    between atoms: C_6  and  S_7
REMARK    3  A    between atoms: S_7  and  C_8
REMARK    4  A    between atoms: C_10  and  C_11
REMARK                            x       y       z     vdW  Elec       q    Type
REMARK                         _______ _______ _______ _____ _____    ______ ____
ROOT
ATOM      1  C   UNL     1       7.704   6.746  18.083  0.00  0.00    +0.000 A 
ATOM      2  N   UNL     1       8.419   7.605  18.769  0.00  0.00    +0.000 NA
ATOM      3  C   UNL     1       8.177   8.807  18.113  0.00  0.00    +0.000 A 
ATOM      4  N   UNL     1       7.347   8.693  17.062  0.00  0.00    +0.000 NA
ATOM      5  N   UNL     1       7.067   7.384  17.070  0.00  0.00    +0.000 N 
ATOM      6  H   UNL     1       6.450   6.992  16.370  0.00  0.00    +0.000 HD
ENDROOT
BRANCH   3   7
ATOM      7  C   UNL     1       8.767  10.082  18.523  0.00  0.00    +0.000 A 
ATOM      8  C   UNL     1       8.627  11.224  17.735  0.00  0.00    +0.000 A 
ATOM      9  C   UNL     1       9.206  12.404  18.174  0.00  0.00    +0.000 A 
ATOM     10  N   UNL     1       9.905  12.521  19.324  0.00  0.00    +0.000 NA
ATOM     11  C   UNL     1      10.030  11.406  20.071  0.00  0.00    +0.000 A 
ATOM     12  C   UNL     1       9.487  10.181  19.719  0.00  0.00    +0.000 A 
ENDBRANCH   3   7
BRANCH   1  13
ATOM     13  S   UNL     1       7.484   5.052  18.283  0.00  0.00    +0.000 S 
BRANCH  13  14
ATOM     14  C   UNL     1       6.104   4.693  17.163  0.00  0.00    +0.000 C 
BRANCH  14  19
ATOM     15 CL   UNL     1       0.937   4.057  20.240  0.00  0.00    +0.000 Cl
ATOM     16  C   UNL     1       2.410   4.242  19.367  0.00  0.00    +0.000 A 
ATOM     17  C   UNL     1       2.434   5.003  18.203  0.00  0.00    +0.000 A 
ATOM     18  C   UNL     1       3.630   5.149  17.490  0.00  0.00    +0.000 A 
ATOM     19  C   UNL     1       4.808   4.527  17.934  0.00  0.00    +0.000 A 
ATOM     20  C   UNL     1       4.767   3.774  19.118  0.00  0.00    +0.000 A 
ATOM     21  C   UNL     1       3.571   3.629  19.832  0.00  0.00    +0.000 A 
ENDBRANCH  14  19
ENDBRANCH  13  14
ENDBRANCH   1  13
TORSDOF 4
ENDMDL
MODEL 4
REMARK VINA RESULT:      -6.9      4.373      7.325
REMARK  Name = 
REMARK  4 active torsions:
REMARK  status: ('A' for Active; 'I' for Inactive)
REMARK    1  A    between atoms: C_5  and  C_6
REMARK    2  A    between atoms: C_6  and  S_7
REMARK    3  A    between atoms: S_7  and  C_8
REMARK    4  A    between atoms: C_10  and  C_11
REMARK                            x       y       z     vdW  Elec       q    Type
REMARK                         _______ _______ _______ _____ _____    ______ ____
ROOT
ATOM      1  C   UNL     1       7.784   6.964  18.150  0.00  0.00    +0.000 A 
ATOM      2  N   UNL     1       8.532   7.727  18.909  0.00  0.00    +0.000 NA
ATOM      3  C   UNL     1       8.440   8.970  18.290  0.00  0.00    +0.000 A 
ATOM      4  N   UNL     1       7.667   8.971  17.190  0.00  0.00    +0.000 NA
ATOM      5  N   UNL     1       7.269   7.694  17.129  0.00  0.00    +0.000 N 
ATOM      6  H   UNL     1       6.661   7.387  16.381  0.00  0.00    +0.000 HD
ENDROOT
BRANCH   3   7
ATOM      7  C   UNL     1       9.118  10.168  18.784  0.00  0.00    +0.000 A 
ATOM      8  C   UNL     1       9.272  10.395  20.151  0.00  0.00    +0.000 A 
ATOM      9  C   UNL     1       9.924  11.547  20.560  0.00  0.00    +0.000 A 
ATOM     10  N   UNL     1      10.424  12.474  19.714  0.00  0.00    +0.000 NA
ATOM     11  C   UNL     1      10.265  12.238  18.396  0.00  0.00    +0.000 A 
ATOM     12  C   UNL     1       9.629  11.116  17.889  0.00  0.00    +0.000 A 
ENDBRANCH   3   7
BRANCH   1  13
ATOM     13  S   UNL     1       7.399   5.292  18.267  0.00  0.00    +0.000 S 
BRANCH  13  14
ATOM     14  C   UNL     1       5.979   5.128  17.151  0.00  0.00    +0.000 C 
BRANCH  14  19
ATOM     15 CL   UNL     1       0.913   3.996  20.253  0.00  0.00    +0.000 Cl
ATOM     16  C   UNL     1       2.358   4.322  19.374  0.00  0.00    +0.000 A 
ATOM     17  C   UNL     1       2.356   5.288  18.372  0.00  0.00    +0.000 A 
ATOM     18  C   UNL     1       3.528   5.548  17.654  0.00  0.00    +0.000 A 
ATOM     19  C   UNL     1       4.709   4.838  17.927  0.00  0.00    +0.000 A 
ATOM     20  C   UNL     1       4.695   3.877  18.951  0.00  0.00    +0.000 A 
ATOM     21  C   UNL     1       3.522   3.618  19.670  0.00  0.00    +0.000 A 
ENDBRANCH  14  19
ENDBRANCH  13  14
ENDBRANCH   1  13
TORSDOF 4
ENDMDL
MODEL 5
REMARK VINA RESULT:      -6.9      2.866      3.737
REMARK  Name = 
REMARK  4 active torsions:
REMARK  status: ('A' for Active; 'I' for Inactive)
REMARK    1  A    between atoms: C_5  and  C_6
REMARK    2  A    between atoms: C_6  and  S_7
REMARK    3  A    between atoms: S_7  and  C_8
REMARK    4  A    between atoms: C_10  and  C_11
REMARK                            x       y       z     vdW  Elec       q    Type
REMARK                         _______ _______ _______ _____ _____    ______ ____
ROOT
ATOM      1  C   UNL     1       5.852   4.737  17.869  0.00  0.00    +0.000 A 
ATOM      2  N   UNL     1       5.508   4.773  16.604  0.00  0.00    +0.000 NA
ATOM      3  C   UNL     1       6.707   4.523  15.946  0.00  0.00    +0.000 A 
ATOM      4  N   UNL     1       7.752   4.342  16.774  0.00  0.00    +0.000 NA
ATOM      5  N   UNL     1       7.180   4.483  17.977  0.00  0.00    +0.000 N 
ATOM      6  H   UNL     1       7.738   4.400  18.817  0.00  0.00    +0.000 HD
ENDROOT
BRANCH   3   7
ATOM      7  C   UNL     1       6.830   4.461  14.490  0.00  0.00    +0.000 A 
ATOM      8  C   UNL     1       7.715   5.295  13.808  0.00  0.00    +0.000 A 
ATOM      9  C   UNL     1       7.790   5.190  12.428  0.00  0.00    +0.000 A 
ATOM     10  N   UNL     1       7.054   4.328  11.694  0.00  0.00    +0.000 NA
ATOM     11  C   UNL     1       6.203   3.532  12.371  0.00  0.00    +0.000 A 
ATOM     12  C   UNL     1       6.057   3.559  13.748  0.00  0.00    +0.000 A 
ENDBRANCH   3   7
BRANCH   1  13
ATOM     13  S   UNL     1       4.917   4.951  19.296  0.00  0.00    +0.000 S 
BRANCH  13  14
ATOM     14  C   UNL     1       3.220   5.008  18.659  0.00  0.00    +0.000 C 
BRANCH  14  19
ATOM     15 CL   UNL     1       0.733  10.429  19.654  0.00  0.00    +0.000 Cl
ATOM     16  C   UNL     1       1.446   8.887  19.373  0.00  0.00    +0.000 A 
ATOM     17  C   UNL     1       1.915   8.562  18.103  0.00  0.00    +0.000 A 
ATOM     18  C   UNL     1       2.489   7.307  17.873  0.00  0.00    +0.000 A 
ATOM     19  C   UNL     1       2.591   6.365  18.911  0.00  0.00    +0.000 A 
ATOM     20  C   UNL     1       2.125   6.716  20.187  0.00  0.00    +0.000 A 
ATOM     21  C   UNL     1       1.551   7.973  20.418  0.00  0.00    +0.000 A 
ENDBRANCH  14  19
ENDBRANCH  13  14
ENDBRANCH   1  13
TORSDOF 4
ENDMDL
MODEL 6
REMARK VINA RESULT:      -6.8      0.193      1.063
REMARK  Name = 
REMARK  4 active torsions:
REMARK  status: ('A' for Active; 'I' for Inactive)
REMARK    1  A    between atoms: C_5  and  C_6
REMARK    2  A    between atoms: C_6  and  S_7
REMARK    3  A    between atoms: S_7  and  C_8
REMARK    4  A    between atoms: C_10  and  C_11
REMARK                            x       y       z     vdW  Elec       q    Type
REMARK                         _______ _______ _______ _____ _____    ______ ____
ROOT
ATOM      1  C   UNL     1       6.927   4.730  16.244  0.00  0.00    +0.000 A 
ATOM      2  N   UNL     1       6.209   3.893  15.535  0.00  0.00    +0.000 NA
ATOM      3  C   UNL     1       6.506   4.257  14.226  0.00  0.00    +0.000 A 
ATOM      4  N   UNL     1       7.372   5.282  14.132  0.00  0.00    +0.000 NA
ATOM      5  N   UNL     1       7.618   5.556  15.420  0.00  0.00    +0.000 N 
ATOM      6  H   UNL     1       8.251   6.306  15.666  0.00  0.00    +0.000 HD
ENDROOT
BRANCH   3   7
ATOM      7  C   UNL     1       5.934   3.593  13.055  0.00  0.00    +0.000 A 
ATOM      8  C   UNL     1       4.621   3.844  12.657  0.00  0.00    +0.000 A 
ATOM      9  C   UNL     1       4.133   3.187  11.539  0.00  0.00    +0.000 A 
ATOM     10  N   UNL     1       4.851   2.310  10.804  0.00  0.00    +0.000 NA
ATOM     11  C   UNL     1       6.117   2.079  11.205  0.00  0.00    +0.000 A 
ATOM     12  C   UNL     1       6.696   2.688  12.307  0.00  0.00    +0.000 A 
ENDBRANCH   3   7
BRANCH   1  13
ATOM     13  S   UNL     1       7.096   4.905  17.947  0.00  0.00    +0.000 S 
BRANCH  13  14
ATOM     14  C   UNL     1       5.624   5.863  18.399  0.00  0.00    +0.000 C 
BRANCH  14  19
ATOM     15 CL   UNL     1       0.743   2.302  18.646  0.00  0.00    +0.000 Cl
ATOM     16  C   UNL     1       2.134   3.314  18.570  0.00  0.00    +0.000 A 
ATOM     17  C   UNL     1       3.355   2.852  19.053  0.00  0.00    +0.000 A 
ATOM     18  C   UNL     1       4.483   3.677  18.997  0.00  0.00    +0.000 A 
ATOM     19  C   UNL     1       4.397   4.974  18.465  0.00  0.00    +0.000 A 
ATOM     20  C   UNL     1       3.160   5.418  17.970  0.00  0.00    +0.000 A 
ATOM     21  C   UNL     1       2.031   4.592  18.025  0.00  0.00    +0.000 A 
ENDBRANCH  14  19
ENDBRANCH  13  14
ENDBRANCH   1  13
TORSDOF 4
ENDMDL
MODEL 7
REMARK VINA RESULT:      -6.8      2.946      3.824
REMARK  Name = 
REMARK  4 active torsions:
REMARK  status: ('A' for Active; 'I' for Inactive)
REMARK    1  A    between atoms: C_5  and  C_6
REMARK    2  A    between atoms: C_6  and  S_7
REMARK    3  A    between atoms: S_7  and  C_8
REMARK    4  A    between atoms: C_10  and  C_11
REMARK                            x       y       z     vdW  Elec       q    Type
REMARK                         _______ _______ _______ _____ _____    ______ ____
ROOT
ATOM      1  C   UNL     1       5.752   4.757  17.829  0.00  0.00    +0.000 A 
ATOM      2  N   UNL     1       5.439   4.810  16.557  0.00  0.00    +0.000 NA
ATOM      3  C   UNL     1       6.644   4.517  15.926  0.00  0.00    +0.000 A 
ATOM      4  N   UNL     1       7.661   4.295  16.778  0.00  0.00    +0.000 NA
ATOM      5  N   UNL     1       7.066   4.453  17.967  0.00  0.00    +0.000 N 
ATOM      6  H   UNL     1       7.601   4.346  18.820  0.00  0.00    +0.000 HD
ENDROOT
BRANCH   3   7
ATOM      7  C   UNL     1       6.799   4.455  14.473  0.00  0.00    +0.000 A 
ATOM      8  C   UNL     1       6.091   3.524  13.714  0.00  0.00    +0.000 A 
ATOM      9  C   UNL     1       6.277   3.512  12.341  0.00  0.00    +0.000 A 
ATOM     10  N   UNL     1       7.108   4.350  11.684  0.00  0.00    +0.000 NA
ATOM     11  C   UNL     1       7.785   5.242  12.435  0.00  0.00    +0.000 A 
ATOM     12  C   UNL     1       7.666   5.333  13.812  0.00  0.00    +0.000 A 
ENDBRANCH   3   7
BRANCH   1  13
ATOM     13  S   UNL     1       4.791   5.002  19.235  0.00  0.00    +0.000 S 
BRANCH  13  14
ATOM     14  C   UNL     1       3.121   5.180  18.553  0.00  0.00    +0.000 C 
BRANCH  14  19
ATOM     15 CL   UNL     1       0.638  10.411  20.295  0.00  0.00    +0.000 Cl
ATOM     16  C   UNL     1       1.350   8.923  19.801  0.00  0.00    +0.000 A 
ATOM     17  C   UNL     1       1.837   8.785  18.505  0.00  0.00    +0.000 A 
ATOM     18  C   UNL     1       2.411   7.574  18.102  0.00  0.00    +0.000 A 
ATOM     19  C   UNL     1       2.492   6.489  18.991  0.00  0.00    +0.000 A 
ATOM     20  C   UNL     1       2.007   6.652  20.298  0.00  0.00    +0.000 A 
ATOM     21  C   UNL     1       1.434   7.865  20.702  0.00  0.00    +0.000 A 
ENDBRANCH  14  19
ENDBRANCH  13  14
ENDBRANCH   1  13
TORSDOF 4
ENDMDL
MODEL 8
REMARK VINA RESULT:      -6.8      4.060      6.966
REMARK  Name = 
REMARK  4 active torsions:
REMARK  status: ('A' for Active; 'I' for Inactive)
REMARK    1  A    between atoms: C_5  and  C_6
REMARK    2  A    between atoms: C_6  and  S_7
REMARK    3  A    between atoms: S_7  and  C_8
REMARK    4  A    between atoms: C_10  and  C_11
REMARK                            x       y       z     vdW  Elec       q    Type
REMARK                         _______ _______ _______ _____ _____    ______ ____
ROOT
ATOM      1  C   UNL     1       7.051   6.953  17.200  0.00  0.00    +0.000 A 
ATOM      2  N   UNL     1       7.252   8.243  17.086  0.00  0.00    +0.000 NA
ATOM      3  C   UNL     1       8.132   8.515  18.129  0.00  0.00    +0.000 A 
ATOM      4  N   UNL     1       8.457   7.434  18.860  0.00  0.00    +0.000 NA
ATOM      5  N   UNL     1       7.760   6.467  18.249  0.00  0.00    +0.000 N 
ATOM      6  H   UNL     1       7.807   5.516  18.591  0.00  0.00    +0.000 HD
ENDROOT
BRANCH   3   7
ATOM      7  C   UNL     1       8.658   9.850  18.411  0.00  0.00    +0.000 A 
ATOM      8  C   UNL     1       8.377  10.926  17.570  0.00  0.00    +0.000 A 
ATOM      9  C   UNL     1       8.901  12.169  17.888  0.00  0.00    +0.000 A 
ATOM     10  N   UNL     1       9.676  12.407  18.969  0.00  0.00    +0.000 NA
ATOM     11  C   UNL     1       9.938  11.355  19.769  0.00  0.00    +0.000 A 
ATOM     12  C   UNL     1       9.459  10.076  19.537  0.00  0.00    +0.000 A 
ENDBRANCH   3   7
BRANCH   1  13
ATOM     13  S   UNL     1       6.082   5.878  16.269  0.00  0.00    +0.000 S 
BRANCH  13  14
ATOM     14  C   UNL     1       6.046   4.382  17.294  0.00  0.00    +0.000 C 
BRANCH  14  19
ATOM     15 CL   UNL     1       0.767   3.904  20.205  0.00  0.00    +0.000 Cl
ATOM     16  C   UNL     1       2.272   4.044  19.379  0.00  0.00    +0.000 A 
ATOM     17  C   UNL     1       2.354   4.796  18.211  0.00  0.00    +0.000 A 
ATOM     18  C   UNL     1       3.575   4.905  17.537  0.00  0.00    +0.000 A 
ATOM     19  C   UNL     1       4.722   4.256  18.023  0.00  0.00    +0.000 A 
ATOM     20  C   UNL     1       4.623   3.513  19.210  0.00  0.00    +0.000 A 
ATOM     21  C   UNL     1       3.401   3.405  19.885  0.00  0.00    +0.000 A 
ENDBRANCH  14  19
ENDBRANCH  13  14
ENDBRANCH   1  13
TORSDOF 4
ENDMDL
MODEL 9
REMARK VINA RESULT:      -6.7      4.085      6.911
REMARK  Name = 
REMARK  4 active torsions:
REMARK  status: ('A' for Active; 'I' for Inactive)
REMARK    1  A    between atoms: C_5  and  C_6
REMARK    2  A    between atoms: C_6  and  S_7
REMARK    3  A    between atoms: S_7  and  C_8
REMARK    4  A    between atoms: C_10  and  C_11
REMARK                            x       y       z     vdW  Elec       q    Type
REMARK                         _______ _______ _______ _____ _____    ______ ____
ROOT
ATOM      1  C   UNL     1       7.061   6.991  17.214  0.00  0.00    +0.000 A 
ATOM      2  N   UNL     1       7.284   8.277  17.093  0.00  0.00    +0.000 NA
ATOM      3  C   UNL     1       8.157   8.543  18.142  0.00  0.00    +0.000 A 
ATOM      4  N   UNL     1       8.458   7.462  18.883  0.00  0.00    +0.000 NA
ATOM      5  N   UNL     1       7.753   6.502  18.273  0.00  0.00    +0.000 N 
ATOM      6  H   UNL     1       7.782   5.552  18.621  0.00  0.00    +0.000 HD
ENDROOT
BRANCH   3   7
ATOM      7  C   UNL     1       8.701   9.872  18.421  0.00  0.00    +0.000 A 
ATOM      8  C   UNL     1       8.403  10.957  17.598  0.00  0.00    +0.000 A 
ATOM      9  C   UNL     1       8.946  12.193  17.912  0.00  0.00    +0.000 A 
ATOM     10  N   UNL     1       9.753  12.416  18.971  0.00  0.00    +0.000 NA
ATOM     11  C   UNL     1      10.031  11.355  19.755  0.00  0.00    +0.000 A 
ATOM     12  C   UNL     1       9.536  10.082  19.525  0.00  0.00    +0.000 A 
ENDBRANCH   3   7
BRANCH   1  13
ATOM     13  S   UNL     1       6.086   5.925  16.280  0.00  0.00    +0.000 S 
BRANCH  13  14
ATOM     14  C   UNL     1       6.042   4.426  17.300  0.00  0.00    +0.000 C 
BRANCH  14  19
ATOM     15 CL   UNL     1       0.768   3.919  20.214  0.00  0.00    +0.000 Cl
ATOM     16  C   UNL     1       2.268   4.060  19.380  0.00  0.00    +0.000 A 
ATOM     17  C   UNL     1       3.383   3.365  19.840  0.00  0.00    +0.000 A 
ATOM     18  C   UNL     1       4.604   3.484  19.166  0.00  0.00    +0.000 A 
ATOM     19  C   UNL     1       4.719   4.305  18.032  0.00  0.00    +0.000 A 
ATOM     20  C   UNL     1       3.580   4.987  17.576  0.00  0.00    +0.000 A 
ATOM     21  C   UNL     1       2.358   4.868  18.250  0.00  0.00    +0.000 A 
ENDBRANCH  14  19
ENDBRANCH  13  14
ENDBRANCH   1  13
TORSDOF 4
ENDMDL
