MODEL 1
REMARK VINA RESULT:      -8.5      0.000      0.000
REMARK  Name = 
REMARK  4 active torsions:
REMARK  status: ('A' for Active; 'I' for Inactive)
REMARK    1  A    between atoms: C_1  and  O_2
REMARK    2  A    between atoms: O_2  and  C_3
REMARK    3  A    between atoms: C_6  and  C_7
REMARK    4  A    between atoms: C_20  and  C_21
REMARK                            x       y       z     vdW  Elec       q    Type
REMARK                         _______ _______ _______ _____ _____    ______ ____
ROOT
ATOM      1  C   UNL     1       0.177   9.942  20.449  0.00  0.00    +0.000 A 
ATOM      2  O   UNL     1       0.257   9.354  21.683  0.00  0.00    +0.000 OA
ATOM      3  N   UNL     1       1.109   8.246  21.616  0.00  0.00    +0.000 NA
ATOM      4  C   UNL     1       1.513   8.221  20.349  0.00  0.00    +0.000 A 
ATOM      5  C   UNL     1       0.980   9.263  19.566  0.00  0.00    +0.000 A 
ATOM      6  C   UNL     1       1.182   9.350  18.082  0.00  0.00    +0.000 C 
ATOM      7  C   UNL     1       2.493   8.656  17.614  0.00  0.00    +0.000 C 
ATOM      8  C   UNL     1       2.800   7.404  18.393  0.00  0.00    +0.000 A 
ATOM      9  C   UNL     1       2.375   7.226  19.696  0.00  0.00    +0.000 A 
ATOM     10  N   UNL     1       2.854   6.058  20.184  0.00  0.00    +0.000 N 
ATOM     11  C   UNL     1       3.633   5.457  19.219  0.00  0.00    +0.000 A 
ATOM     12  C   UNL     1       4.375   4.277  19.293  0.00  0.00    +0.000 A 
ATOM     13  C   UNL     1       5.089   3.886  18.160  0.00  0.00    +0.000 A 
ATOM     14  C   UNL     1       5.040   4.627  16.974  0.00  0.00    +0.000 A 
ATOM     15  C   UNL     1       5.804   4.155  15.770  0.00  0.00    +0.000 C 
ATOM     16  C   UNL     1       4.301   5.826  16.928  0.00  0.00    +0.000 A 
ATOM     17  C   UNL     1       3.591   6.259  18.070  0.00  0.00    +0.000 A 
ATOM     18  H   UNL     1       2.668   5.692  21.107  0.00  0.00    +0.000 HD
ENDROOT
BRANCH   1  22
ATOM     19  C   UNL     1      -3.057  12.650  20.167  0.00  0.00    +0.000 A 
ATOM     20  C   UNL     1      -2.679  11.896  19.054  0.00  0.00    +0.000 A 
ATOM     21  C   UNL     1      -1.552  11.083  19.115  0.00  0.00    +0.000 A 
ATOM     22  C   UNL     1      -0.782  11.017  20.281  0.00  0.00    +0.000 A 
ATOM     23  C   UNL     1      -1.076  11.879  21.343  0.00  0.00    +0.000 A 
ATOM     24  C   UNL     1      -2.215  12.684  21.286  0.00  0.00    +0.000 A 
ATOM     25 BR   UNL     1      -2.634  13.739  22.812  0.00  0.00    +0.000 Br
BRANCH  19  27
ATOM     26  C   UNL     1      -5.391  12.531  20.372  0.00  0.00    +0.000 C 
ATOM     27  O   UNL     1      -4.234  13.352  20.202  0.00  0.00    +0.000 OA
ENDBRANCH  19  27
ENDBRANCH   1  22
TORSDOF 2
ENDMDL
MODEL 2
REMARK VINA RESULT:      -8.5      3.724      8.990
REMARK  Name = 
REMARK  4 active torsions:
REMARK  status: ('A' for Active; 'I' for Inactive)
REMARK    1  A    between atoms: C_1  and  O_2
REMARK    2  A    between atoms: O_2  and  C_3
REMARK    3  A    between atoms: C_6  and  C_7
REMARK    4  A    between atoms: C_20  and  C_21
REMARK                            x       y       z     vdW  Elec       q    Type
REMARK                         _______ _______ _______ _____ _____    ______ ____
ROOT
ATOM      1  C   UNL     1       2.534   7.442  18.492  0.00  0.00    +0.000 A 
ATOM      2  O   UNL     1       2.592   8.210  17.359  0.00  0.00    +0.000 OA
ATOM      3  N   UNL     1       1.895   9.404  17.570  0.00  0.00    +0.000 NA
ATOM      4  C   UNL     1       1.457   9.310  18.823  0.00  0.00    +0.000 A 
ATOM      5  C   UNL     1       1.833   8.114  19.464  0.00  0.00    +0.000 A 
ATOM      6  C   UNL     1       1.333   7.729  20.825  0.00  0.00    +0.000 C 
ATOM      7  C   UNL     1       0.959   8.961  21.697  0.00  0.00    +0.000 C 
ATOM      8  C   UNL     1       0.332  10.073  20.896  0.00  0.00    +0.000 A 
ATOM      9  C   UNL     1       0.606  10.259  19.555  0.00  0.00    +0.000 A 
ATOM     10  N   UNL     1      -0.020  11.369  19.103  0.00  0.00    +0.000 N 
ATOM     11  C   UNL     1      -0.697  11.957  20.150  0.00  0.00    +0.000 A 
ATOM     12  C   UNL     1      -1.430  13.145  20.171  0.00  0.00    +0.000 A 
ATOM     13  C   UNL     1      -2.022  13.522  21.377  0.00  0.00    +0.000 A 
ATOM     14  C   UNL     1      -1.920  12.724  22.521  0.00  0.00    +0.000 A 
ATOM     15  C   UNL     1      -2.596  13.156  23.792  0.00  0.00    +0.000 C 
ATOM     16  C   UNL     1      -1.160  11.539  22.483  0.00  0.00    +0.000 A 
ATOM     17  C   UNL     1      -0.526  11.148  21.282  0.00  0.00    +0.000 A 
ATOM     18  H   UNL     1       0.008  11.709  18.152  0.00  0.00    +0.000 HD
ENDROOT
BRANCH   1  22
ATOM     19  C   UNL     1       4.045   3.516  18.917  0.00  0.00    +0.000 A 
ATOM     20  C   UNL     1       4.924   4.601  18.863  0.00  0.00    +0.000 A 
ATOM     21  C   UNL     1       4.436   5.881  18.619  0.00  0.00    +0.000 A 
ATOM     22  C   UNL     1       3.068   6.096  18.417  0.00  0.00    +0.000 A 
ATOM     23  C   UNL     1       2.210   4.995  18.327  0.00  0.00    +0.000 A 
ATOM     24  C   UNL     1       2.698   3.713  18.585  0.00  0.00    +0.000 A 
ATOM     25 BR   UNL     1       1.458   2.271  18.575  0.00  0.00    +0.000 Br
BRANCH  19  27
ATOM     26  C   UNL     1       4.458   2.058  20.707  0.00  0.00    +0.000 C 
ATOM     27  O   UNL     1       4.459   2.265  19.294  0.00  0.00    +0.000 OA
ENDBRANCH  19  27
ENDBRANCH   1  22
TORSDOF 2
ENDMDL
MODEL 3
REMARK VINA RESULT:      -8.5      3.727      9.088
REMARK  Name = 
REMARK  4 active torsions:
REMARK  status: ('A' for Active; 'I' for Inactive)
REMARK    1  A    between atoms: C_1  and  O_2
REMARK    2  A    between atoms: O_2  and  C_3
REMARK    3  A    between atoms: C_6  and  C_7
REMARK    4  A    between atoms: C_20  and  C_21
REMARK                            x       y       z     vdW  Elec       q    Type
REMARK                         _______ _______ _______ _____ _____    ______ ____
ROOT
ATOM      1  C   UNL     1       2.250   8.057  18.694  0.00  0.00    +0.000 A 
ATOM      2  O   UNL     1       2.165   8.842  17.575  0.00  0.00    +0.000 OA
ATOM      3  N   UNL     1       1.332   9.936  17.835  0.00  0.00    +0.000 NA
ATOM      4  C   UNL     1       0.961   9.770  19.102  0.00  0.00    +0.000 A 
ATOM      5  C   UNL     1       1.510   8.622  19.705  0.00  0.00    +0.000 A 
ATOM      6  C   UNL     1       1.119   8.158  21.077  0.00  0.00    +0.000 C 
ATOM      7  C   UNL     1       0.629   9.320  21.986  0.00  0.00    +0.000 C 
ATOM      8  C   UNL     1      -0.165  10.355  21.231  0.00  0.00    +0.000 A 
ATOM      9  C   UNL     1       0.029  10.593  19.885  0.00  0.00    +0.000 A 
ATOM     10  N   UNL     1      -0.750  11.622  19.479  0.00  0.00    +0.000 N 
ATOM     11  C   UNL     1      -1.452  12.105  20.562  0.00  0.00    +0.000 A 
ATOM     12  C   UNL     1      -2.327  13.190  20.634  0.00  0.00    +0.000 A 
ATOM     13  C   UNL     1      -2.911  13.473  21.870  0.00  0.00    +0.000 A 
ATOM     14  C   UNL     1      -2.664  12.678  22.993  0.00  0.00    +0.000 A 
ATOM     15  C   UNL     1      -3.336  13.004  24.297  0.00  0.00    +0.000 C 
ATOM     16  C   UNL     1      -1.763  11.599  22.903  0.00  0.00    +0.000 A 
ATOM     17  C   UNL     1      -1.135  11.308  21.671  0.00  0.00    +0.000 A 
ATOM     18  H   UNL     1      -0.804  11.976  18.534  0.00  0.00    +0.000 HD
ENDROOT
BRANCH   1  22
ATOM     19  C   UNL     1       3.803   4.199  17.934  0.00  0.00    +0.000 A 
ATOM     20  C   UNL     1       2.957   4.409  19.026  0.00  0.00    +0.000 A 
ATOM     21  C   UNL     1       2.529   5.696  19.338  0.00  0.00    +0.000 A 
ATOM     22  C   UNL     1       2.945   6.791  18.573  0.00  0.00    +0.000 A 
ATOM     23  C   UNL     1       3.904   6.600  17.572  0.00  0.00    +0.000 A 
ATOM     24  C   UNL     1       4.322   5.307  17.251  0.00  0.00    +0.000 A 
ATOM     25 BR   UNL     1       5.529   5.100  15.796  0.00  0.00    +0.000 Br
BRANCH  19  27
ATOM     26  C   UNL     1       3.443   1.895  18.188  0.00  0.00    +0.000 C 
ATOM     27  O   UNL     1       4.135   2.941  17.504  0.00  0.00    +0.000 OA
ENDBRANCH  19  27
ENDBRANCH   1  22
TORSDOF 2
ENDMDL
MODEL 4
REMARK VINA RESULT:      -8.4      3.871      8.818
REMARK  Name = 
REMARK  4 active torsions:
REMARK  status: ('A' for Active; 'I' for Inactive)
REMARK    1  A    between atoms: C_1  and  O_2
REMARK    2  A    between atoms: O_2  and  C_3
REMARK    3  A    between atoms: C_6  and  C_7
REMARK    4  A    between atoms: C_20  and  C_21
REMARK                            x       y       z     vdW  Elec       q    Type
REMARK                         _______ _______ _______ _____ _____    ______ ____
ROOT
ATOM      1  C   UNL     1       2.607   6.275  19.288  0.00  0.00    +0.000 A 
ATOM      2  O   UNL     1       2.135   5.915  20.523  0.00  0.00    +0.000 OA
ATOM      3  N   UNL     1       1.467   7.000  21.101  0.00  0.00    +0.000 NA
ATOM      4  C   UNL     1       1.554   7.962  20.186  0.00  0.00    +0.000 A 
ATOM      5  C   UNL     1       2.242   7.572  19.021  0.00  0.00    +0.000 A 
ATOM      6  C   UNL     1       2.586   8.532  17.921  0.00  0.00    +0.000 C 
ATOM      7  C   UNL     1       1.601   9.733  17.843  0.00  0.00    +0.000 C 
ATOM      8  C   UNL     1       1.143  10.199  19.201  0.00  0.00    +0.000 A 
ATOM      9  C   UNL     1       1.080   9.349  20.288  0.00  0.00    +0.000 A 
ATOM     10  N   UNL     1       0.560   9.998  21.355  0.00  0.00    +0.000 N 
ATOM     11  C   UNL     1       0.240  11.286  20.981  0.00  0.00    +0.000 A 
ATOM     12  C   UNL     1      -0.371  12.295  21.727  0.00  0.00    +0.000 A 
ATOM     13  C   UNL     1      -0.587  13.524  21.103  0.00  0.00    +0.000 A 
ATOM     14  C   UNL     1      -0.176  13.758  19.787  0.00  0.00    +0.000 A 
ATOM     15  C   UNL     1      -0.406  15.105  19.164  0.00  0.00    +0.000 C 
ATOM     16  C   UNL     1       0.422  12.719  19.046  0.00  0.00    +0.000 A 
ATOM     17  C   UNL     1       0.627  11.456  19.645  0.00  0.00    +0.000 A 
ATOM     18  H   UNL     1       0.429   9.599  22.274  0.00  0.00    +0.000 HD
ENDROOT
BRANCH   1  22
ATOM     19  C   UNL     1       5.106   3.953  16.792  0.00  0.00    +0.000 A 
ATOM     20  C   UNL     1       3.723   3.759  16.770  0.00  0.00    +0.000 A 
ATOM     21  C   UNL     1       2.910   4.448  17.664  0.00  0.00    +0.000 A 
ATOM     22  C   UNL     1       3.463   5.331  18.597  0.00  0.00    +0.000 A 
ATOM     23  C   UNL     1       4.855   5.416  18.715  0.00  0.00    +0.000 A 
ATOM     24  C   UNL     1       5.669   4.735  17.809  0.00  0.00    +0.000 A 
ATOM     25 BR   UNL     1       7.549   4.991  17.938  0.00  0.00    +0.000 Br
BRANCH  19  27
ATOM     26  C   UNL     1       5.933   4.121  14.603  0.00  0.00    +0.000 C 
ATOM     27  O   UNL     1       5.931   3.409  15.841  0.00  0.00    +0.000 OA
ENDBRANCH  19  27
ENDBRANCH   1  22
TORSDOF 2
ENDMDL
MODEL 5
REMARK VINA RESULT:      -8.2      1.976      2.777
REMARK  Name = 
REMARK  4 active torsions:
REMARK  status: ('A' for Active; 'I' for Inactive)
REMARK    1  A    between atoms: C_1  and  O_2
REMARK    2  A    between atoms: O_2  and  C_3
REMARK    3  A    between atoms: C_6  and  C_7
REMARK    4  A    between atoms: C_20  and  C_21
REMARK                            x       y       z     vdW  Elec       q    Type
REMARK                         _______ _______ _______ _____ _____    ______ ____
ROOT
ATOM      1  C   UNL     1       1.229   7.821  20.620  0.00  0.00    +0.000 A 
ATOM      2  O   UNL     1       1.217   6.666  21.356  0.00  0.00    +0.000 OA
ATOM      3  N   UNL     1       2.018   5.705  20.727  0.00  0.00    +0.000 NA
ATOM      4  C   UNL     1       2.486   6.326  19.648  0.00  0.00    +0.000 A 
ATOM      5  C   UNL     1       2.044   7.658  19.527  0.00  0.00    +0.000 A 
ATOM      6  C   UNL     1       2.328   8.502  18.319  0.00  0.00    +0.000 C 
ATOM      7  C   UNL     1       3.627   8.073  17.580  0.00  0.00    +0.000 C 
ATOM      8  C   UNL     1       3.833   6.580  17.582  0.00  0.00    +0.000 A 
ATOM      9  C   UNL     1       3.332   5.770  18.583  0.00  0.00    +0.000 A 
ATOM     10  N   UNL     1       3.729   4.492  18.386  0.00  0.00    +0.000 N 
ATOM     11  C   UNL     1       4.528   4.440  17.265  0.00  0.00    +0.000 A 
ATOM     12  C   UNL     1       5.208   3.352  16.715  0.00  0.00    +0.000 A 
ATOM     13  C   UNL     1       5.961   3.571  15.561  0.00  0.00    +0.000 A 
ATOM     14  C   UNL     1       6.009   4.827  14.948  0.00  0.00    +0.000 A 
ATOM     15  C   UNL     1       6.812   5.012  13.692  0.00  0.00    +0.000 C 
ATOM     16  C   UNL     1       5.332   5.917  15.531  0.00  0.00    +0.000 A 
ATOM     17  C   UNL     1       4.584   5.728  16.715  0.00  0.00    +0.000 A 
ATOM     18  H   UNL     1       3.478   3.707  18.971  0.00  0.00    +0.000 HD
ENDROOT
BRANCH   1  22
ATOM     19  C   UNL     1      -0.849  11.245  21.972  0.00  0.00    +0.000 A 
ATOM     20  C   UNL     1      -0.608  10.184  22.847  0.00  0.00    +0.000 A 
ATOM     21  C   UNL     1      -0.017   9.015  22.378  0.00  0.00    +0.000 A 
ATOM     22  C   UNL     1       0.333   8.884  21.030  0.00  0.00    +0.000 A 
ATOM     23  C   UNL     1      -0.039   9.887  20.127  0.00  0.00    +0.000 A 
ATOM     24  C   UNL     1      -0.619  11.064  20.601  0.00  0.00    +0.000 A 
ATOM     25 BR   UNL     1      -0.985  12.443  19.344  0.00  0.00    +0.000 Br
BRANCH  19  27
ATOM     26  C   UNL     1      -2.522  12.400  23.144  0.00  0.00    +0.000 C 
ATOM     27  O   UNL     1      -1.296  12.464  22.413  0.00  0.00    +0.000 OA
ENDBRANCH  19  27
ENDBRANCH   1  22
TORSDOF 2
ENDMDL
MODEL 6
REMARK VINA RESULT:      -8.2      3.638      8.947
REMARK  Name = 
REMARK  4 active torsions:
REMARK  status: ('A' for Active; 'I' for Inactive)
REMARK    1  A    between atoms: C_1  and  O_2
REMARK    2  A    between atoms: O_2  and  C_3
REMARK    3  A    between atoms: C_6  and  C_7
REMARK    4  A    between atoms: C_20  and  C_21
REMARK                            x       y       z     vdW  Elec       q    Type
REMARK                         _______ _______ _______ _____ _____    ______ ____
ROOT
ATOM      1  C   UNL     1       2.175   7.583  18.862  0.00  0.00    +0.000 A 
ATOM      2  O   UNL     1       2.356   8.295  17.706  0.00  0.00    +0.000 OA
ATOM      3  N   UNL     1       1.858   9.592  17.874  0.00  0.00    +0.000 NA
ATOM      4  C   UNL     1       1.410   9.609  19.127  0.00  0.00    +0.000 A 
ATOM      5  C   UNL     1       1.590   8.390  19.808  0.00  0.00    +0.000 A 
ATOM      6  C   UNL     1       1.034   8.134  21.177  0.00  0.00    +0.000 C 
ATOM      7  C   UNL     1       0.861   9.437  22.008  0.00  0.00    +0.000 C 
ATOM      8  C   UNL     1       0.419  10.608  21.168  0.00  0.00    +0.000 A 
ATOM      9  C   UNL     1       0.721  10.705  19.823  0.00  0.00    +0.000 A 
ATOM     10  N   UNL     1       0.280  11.886  19.333  0.00  0.00    +0.000 N 
ATOM     11  C   UNL     1      -0.295  12.607  20.356  0.00  0.00    +0.000 A 
ATOM     12  C   UNL     1      -0.828  13.897  20.335  0.00  0.00    +0.000 A 
ATOM     13  C   UNL     1      -1.354  14.403  21.525  0.00  0.00    +0.000 A 
ATOM     14  C   UNL     1      -1.382  13.636  22.695  0.00  0.00    +0.000 A 
ATOM     15  C   UNL     1      -1.981  14.212  23.947  0.00  0.00    +0.000 C 
ATOM     16  C   UNL     1      -0.820  12.344  22.699  0.00  0.00    +0.000 A 
ATOM     17  C   UNL     1      -0.256  11.819  21.515  0.00  0.00    +0.000 A 
ATOM     18  H   UNL     1       0.363  12.186  18.371  0.00  0.00    +0.000 HD
ENDROOT
BRANCH   1  22
ATOM     19  C   UNL     1       3.620   3.618  19.102  0.00  0.00    +0.000 A 
ATOM     20  C   UNL     1       3.918   4.404  17.986  0.00  0.00    +0.000 A 
ATOM     21  C   UNL     1       3.358   5.670  17.857  0.00  0.00    +0.000 A 
ATOM     22  C   UNL     1       2.488   6.168  18.833  0.00  0.00    +0.000 A 
ATOM     23  C   UNL     1       2.077   5.328  19.875  0.00  0.00    +0.000 A 
ATOM     24  C   UNL     1       2.650   4.063  20.010  0.00  0.00    +0.000 A 
ATOM     25 BR   UNL     1       2.149   3.018  21.517  0.00  0.00    +0.000 Br
BRANCH  19  27
ATOM     26  C   UNL     1       3.750   1.336  18.571  0.00  0.00    +0.000 C 
ATOM     27  O   UNL     1       4.256   2.427  19.343  0.00  0.00    +0.000 OA
ENDBRANCH  19  27
ENDBRANCH   1  22
TORSDOF 2
ENDMDL
MODEL 7
REMARK VINA RESULT:      -8.1      2.697      3.091
REMARK  Name = 
REMARK  4 active torsions:
REMARK  status: ('A' for Active; 'I' for Inactive)
REMARK    1  A    between atoms: C_1  and  O_2
REMARK    2  A    between atoms: O_2  and  C_3
REMARK    3  A    between atoms: C_6  and  C_7
REMARK    4  A    between atoms: C_20  and  C_21
REMARK                            x       y       z     vdW  Elec       q    Type
REMARK                         _______ _______ _______ _____ _____    ______ ____
ROOT
ATOM      1  C   UNL     1       1.080  10.448  19.909  0.00  0.00    +0.000 A 
ATOM      2  O   UNL     1       0.846  10.307  21.251  0.00  0.00    +0.000 OA
ATOM      3  N   UNL     1       1.102   8.985  21.632  0.00  0.00    +0.000 NA
ATOM      4  C   UNL     1       1.489   8.391  20.507  0.00  0.00    +0.000 A 
ATOM      5  C   UNL     1       1.512   9.251  19.393  0.00  0.00    +0.000 A 
ATOM      6  C   UNL     1       1.777   8.767  17.997  0.00  0.00    +0.000 C 
ATOM      7  C   UNL     1       2.643   7.475  17.965  0.00  0.00    +0.000 C 
ATOM      8  C   UNL     1       2.322   6.531  19.095  0.00  0.00    +0.000 A 
ATOM      9  C   UNL     1       1.823   6.974  20.304  0.00  0.00    +0.000 A 
ATOM     10  N   UNL     1       1.703   5.936  21.164  0.00  0.00    +0.000 N 
ATOM     11  C   UNL     1       2.152   4.790  20.545  0.00  0.00    +0.000 A 
ATOM     12  C   UNL     1       2.273   3.498  21.061  0.00  0.00    +0.000 A 
ATOM     13  C   UNL     1       2.765   2.504  20.214  0.00  0.00    +0.000 A 
ATOM     14  C   UNL     1       3.095   2.776  18.882  0.00  0.00    +0.000 A 
ATOM     15  C   UNL     1       3.597   1.669  17.999  0.00  0.00    +0.000 C 
ATOM     16  C   UNL     1       2.984   4.091  18.388  0.00  0.00    +0.000 A 
ATOM     17  C   UNL     1       2.515   5.122  19.232  0.00  0.00    +0.000 A 
ATOM     18  H   UNL     1       1.342   5.998  22.106  0.00  0.00    +0.000 HD
ENDROOT
BRANCH   1  22
ATOM     19  C   UNL     1       0.038  14.369  18.722  0.00  0.00    +0.000 A 
ATOM     20  C   UNL     1      -0.962  13.427  18.974  0.00  0.00    +0.000 A 
ATOM     21  C   UNL     1      -0.620  12.110  19.263  0.00  0.00    +0.000 A 
ATOM     22  C   UNL     1       0.721  11.712  19.296  0.00  0.00    +0.000 A 
ATOM     23  C   UNL     1       1.712  12.618  18.903  0.00  0.00    +0.000 A 
ATOM     24  C   UNL     1       1.369  13.942  18.626  0.00  0.00    +0.000 A 
ATOM     25 BR   UNL     1       2.774  15.158  18.223  0.00  0.00    +0.000 Br
BRANCH  19  27
ATOM     26  C   UNL     1      -0.544  16.369  19.801  0.00  0.00    +0.000 C 
ATOM     27  O   UNL     1      -0.242  15.704  18.574  0.00  0.00    +0.000 OA
ENDBRANCH  19  27
ENDBRANCH   1  22
TORSDOF 2
ENDMDL
MODEL 8
REMARK VINA RESULT:      -8.0      3.763      9.123
REMARK  Name = 
REMARK  4 active torsions:
REMARK  status: ('A' for Active; 'I' for Inactive)
REMARK    1  A    between atoms: C_1  and  O_2
REMARK    2  A    between atoms: O_2  and  C_3
REMARK    3  A    between atoms: C_6  and  C_7
REMARK    4  A    between atoms: C_20  and  C_21
REMARK                            x       y       z     vdW  Elec       q    Type
REMARK                         _______ _______ _______ _____ _____    ______ ____
ROOT
ATOM      1  C   UNL     1       2.557   7.874  18.391  0.00  0.00    +0.000 A 
ATOM      2  O   UNL     1       2.444   8.671  17.283  0.00  0.00    +0.000 OA
ATOM      3  N   UNL     1       1.579   9.736  17.561  0.00  0.00    +0.000 NA
ATOM      4  C   UNL     1       1.218   9.541  18.827  0.00  0.00    +0.000 A 
ATOM      5  C   UNL     1       1.804   8.402  19.412  0.00  0.00    +0.000 A 
ATOM      6  C   UNL     1       1.432   7.907  20.779  0.00  0.00    +0.000 C 
ATOM      7  C   UNL     1       0.911   9.042  21.706  0.00  0.00    +0.000 C 
ATOM      8  C   UNL     1       0.083  10.062  20.968  0.00  0.00    +0.000 A 
ATOM      9  C   UNL     1       0.265  10.325  19.624  0.00  0.00    +0.000 A 
ATOM     10  N   UNL     1      -0.547  11.335  19.236  0.00  0.00    +0.000 N 
ATOM     11  C   UNL     1      -1.258  11.782  20.328  0.00  0.00    +0.000 A 
ATOM     12  C   UNL     1      -2.165  12.839  20.419  0.00  0.00    +0.000 A 
ATOM     13  C   UNL     1      -2.753  13.087  21.660  0.00  0.00    +0.000 A 
ATOM     14  C   UNL     1      -2.478  12.284  22.771  0.00  0.00    +0.000 A 
ATOM     15  C   UNL     1      -3.154  12.571  24.082  0.00  0.00    +0.000 C 
ATOM     16  C   UNL     1      -1.544  11.234  22.663  0.00  0.00    +0.000 A 
ATOM     17  C   UNL     1      -0.913  10.980  21.425  0.00  0.00    +0.000 A 
ATOM     18  H   UNL     1      -0.614  11.700  18.296  0.00  0.00    +0.000 HD
ENDROOT
BRANCH   1  22
ATOM     19  C   UNL     1       4.736   4.404  17.353  0.00  0.00    +0.000 A 
ATOM     20  C   UNL     1       3.339   4.372  17.372  0.00  0.00    +0.000 A 
ATOM     21  C   UNL     1       2.624   5.480  17.813  0.00  0.00    +0.000 A 
ATOM     22  C   UNL     1       3.289   6.631  18.249  0.00  0.00    +0.000 A 
ATOM     23  C   UNL     1       4.683   6.611  18.367  0.00  0.00    +0.000 A 
ATOM     24  C   UNL     1       5.400   5.504  17.911  0.00  0.00    +0.000 A 
ATOM     25 BR   UNL     1       7.299   5.586  17.978  0.00  0.00    +0.000 Br
BRANCH  19  27
ATOM     26  C   UNL     1       5.801   3.608  15.420  0.00  0.00    +0.000 C 
ATOM     27  O   UNL     1       5.478   3.395  16.795  0.00  0.00    +0.000 OA
ENDBRANCH  19  27
ENDBRANCH   1  22
TORSDOF 2
ENDMDL
MODEL 9
REMARK VINA RESULT:      -7.9      1.533      1.778
REMARK  Name = 
REMARK  4 active torsions:
REMARK  status: ('A' for Active; 'I' for Inactive)
REMARK    1  A    between atoms: C_1  and  O_2
REMARK    2  A    between atoms: O_2  and  C_3
REMARK    3  A    between atoms: C_6  and  C_7
REMARK    4  A    between atoms: C_20  and  C_21
REMARK                            x       y       z     vdW  Elec       q    Type
REMARK                         _______ _______ _______ _____ _____    ______ ____
ROOT
ATOM      1  C   UNL     1       0.349  10.360  20.524  0.00  0.00    +0.000 A 
ATOM      2  O   UNL     1       0.333   9.799  21.773  0.00  0.00    +0.000 OA
ATOM      3  N   UNL     1       1.032   8.587  21.748  0.00  0.00    +0.000 NA
ATOM      4  C   UNL     1       1.450   8.477  20.489  0.00  0.00    +0.000 A 
ATOM      5  C   UNL     1       1.070   9.559  19.672  0.00  0.00    +0.000 A 
ATOM      6  C   UNL     1       1.306   9.581  18.191  0.00  0.00    +0.000 C 
ATOM      7  C   UNL     1       2.521   8.710  17.764  0.00  0.00    +0.000 C 
ATOM      8  C   UNL     1       2.648   7.448  18.579  0.00  0.00    +0.000 A 
ATOM      9  C   UNL     1       2.183   7.361  19.876  0.00  0.00    +0.000 A 
ATOM     10  N   UNL     1       2.497   6.154  20.401  0.00  0.00    +0.000 N 
ATOM     11  C   UNL     1       3.205   5.431  19.465  0.00  0.00    +0.000 A 
ATOM     12  C   UNL     1       3.784   4.166  19.581  0.00  0.00    +0.000 A 
ATOM     13  C   UNL     1       4.459   3.656  18.470  0.00  0.00    +0.000 A 
ATOM     14  C   UNL     1       4.526   4.366  17.267  0.00  0.00    +0.000 A 
ATOM     15  C   UNL     1       5.240   3.767  16.090  0.00  0.00    +0.000 C 
ATOM     16  C   UNL     1       3.952   5.650  17.179  0.00  0.00    +0.000 A 
ATOM     17  C   UNL     1       3.287   6.201  18.297  0.00  0.00    +0.000 A 
ATOM     18  H   UNL     1       2.250   5.839  21.329  0.00  0.00    +0.000 HD
ENDROOT
BRANCH   1  22
ATOM     19  C   UNL     1      -1.761  14.023  20.471  0.00  0.00    +0.000 A 
ATOM     20  C   UNL     1      -2.360  12.879  21.005  0.00  0.00    +0.000 A 
ATOM     21  C   UNL     1      -1.709  11.652  20.928  0.00  0.00    +0.000 A 
ATOM     22  C   UNL     1      -0.457  11.547  20.313  0.00  0.00    +0.000 A 
ATOM     23  C   UNL     1       0.076  12.659  19.653  0.00  0.00    +0.000 A 
ATOM     24  C   UNL     1      -0.572  13.893  19.742  0.00  0.00    +0.000 A 
ATOM     25 BR   UNL     1       0.266  15.397  18.934  0.00  0.00    +0.000 Br
BRANCH  19  27
ATOM     26  C   UNL     1      -2.496  15.627  22.017  0.00  0.00    +0.000 C 
ATOM     27  O   UNL     1      -2.297  15.273  20.648  0.00  0.00    +0.000 OA
ENDBRANCH  19  27
ENDBRANCH   1  22
TORSDOF 2
ENDMDL
