MODEL 1
REMARK VINA RESULT:      -8.1      0.000      0.000
REMARK  Name = 
REMARK  8 active torsions:
REMARK  status: ('A' for Active; 'I' for Inactive)
REMARK    1  A    between atoms: C_1  and  C_2
REMARK    2  A    between atoms: C_5  and  C_6
REMARK    3  A    between atoms: C_7  and  S_8
REMARK    4  A    between atoms: S_8  and  N_11
REMARK    5  A    between atoms: C_16  and  C_17
REMARK    6  A    between atoms: C_17  and  N_18
REMARK    7  A    between atoms: C_19  and  C_21
REMARK    8  A    between atoms: N_23  and  C_24
REMARK                            x       y       z     vdW  Elec       q    Type
REMARK                         _______ _______ _______ _____ _____    ______ ____
ROOT
ATOM      1  N   UNL     1       3.044   3.450  19.143  0.00  0.00    +0.000 NA
ATOM      2  C   UNL     1       3.690   2.883  20.321  0.00  0.00    +0.000 C 
ATOM      3  C   UNL     1       2.590   2.428  21.262  0.00  0.00    +0.000 C 
ATOM      4  C   UNL     1       1.530   3.508  21.447  0.00  0.00    +0.000 C 
ATOM      5  O   UNL     1       1.090   4.073  20.215  0.00  0.00    +0.000 OA
ATOM      6  C   UNL     1       2.143   4.578  19.385  0.00  0.00    +0.000 C 
ENDROOT
BRANCH   1   7
ATOM      7  S   UNL     1       3.532   3.042  17.603  0.00  0.00    +0.000 S 
ATOM      8  O   UNL     1       2.530   3.576  16.699  0.00  0.00    +0.000 OA
ATOM      9  O   UNL     1       3.875   1.638  17.557  0.00  0.00    +0.000 OA
BRANCH   7  16
ATOM     10  C   UNL     1       7.542   5.737  19.670  0.00  0.00    +0.000 C 
ATOM     11  C   UNL     1       6.855   5.264  18.423  0.00  0.00    +0.000 A 
ATOM     12  C   UNL     1       7.259   5.720  17.169  0.00  0.00    +0.000 A 
ATOM     13  C   UNL     1       6.580   5.311  16.018  0.00  0.00    +0.000 A 
ATOM     14  C   UNL     1       5.470   4.444  16.087  0.00  0.00    +0.000 A 
ATOM     15  C   UNL     1       4.785   4.081  14.802  0.00  0.00    +0.000 C 
ATOM     16  C   UNL     1       5.045   4.001  17.355  0.00  0.00    +0.000 A 
ATOM     17  C   UNL     1       5.749   4.405  18.508  0.00  0.00    +0.000 A 
ENDBRANCH   7  16
ENDBRANCH   1   7
BRANCH   6  18
ATOM     18  C   UNL     1       2.834   5.830  20.016  0.00  0.00    +0.000 C 
BRANCH  18  19
ATOM     19  N   UNL     1       2.248   7.115  19.618  0.00  0.00    +0.000 N 
ATOM     20  C   UNL     1       2.594   7.752  18.440  0.00  0.00    +0.000 C 
ATOM     21  O   UNL     1       3.393   7.330  17.616  0.00  0.00    +0.000 OA
ATOM     22  H   UNL     1       1.616   7.609  20.243  0.00  0.00    +0.000 HD
BRANCH  20  23
ATOM     23  C   UNL     1       1.874   9.113  18.195  0.00  0.00    +0.000 C 
ATOM     24  O   UNL     1       2.243   9.836  17.283  0.00  0.00    +0.000 OA
ATOM     25  N   UNL     1       0.841   9.371  19.074  0.00  0.00    +0.000 N 
ATOM     26  H   UNL     1       0.605   8.627  19.723  0.00  0.00    +0.000 HD
BRANCH  25  27
ATOM     27  C   UNL     1       0.040  10.582  19.025  0.00  0.00    +0.000 C 
ATOM     28  C   UNL     1      -1.203  10.466  18.146  0.00  0.00    +0.000 C 
ATOM     29  C   UNL     1      -2.058  11.656  18.577  0.00  0.00    +0.000 C 
ATOM     30  C   UNL     1      -1.721  11.898  20.049  0.00  0.00    +0.000 C 
ATOM     31  C   UNL     1      -0.564  10.955  20.380  0.00  0.00    +0.000 C 
ENDBRANCH  25  27
ENDBRANCH  20  23
ENDBRANCH  18  19
ENDBRANCH   6  18
TORSDOF 6
ENDMDL
MODEL 2
REMARK VINA RESULT:      -7.7      1.443      2.586
REMARK  Name = 
REMARK  8 active torsions:
REMARK  status: ('A' for Active; 'I' for Inactive)
REMARK    1  A    between atoms: C_1  and  C_2
REMARK    2  A    between atoms: C_5  and  C_6
REMARK    3  A    between atoms: C_7  and  S_8
REMARK    4  A    between atoms: S_8  and  N_11
REMARK    5  A    between atoms: C_16  and  C_17
REMARK    6  A    between atoms: C_17  and  N_18
REMARK    7  A    between atoms: C_19  and  C_21
REMARK    8  A    between atoms: N_23  and  C_24
REMARK                            x       y       z     vdW  Elec       q    Type
REMARK                         _______ _______ _______ _____ _____    ______ ____
ROOT
ATOM      1  N   UNL     1       3.330   4.078  19.331  0.00  0.00    +0.000 NA
ATOM      2  C   UNL     1       3.252   4.250  20.776  0.00  0.00    +0.000 C 
ATOM      3  C   UNL     1       1.782   4.241  21.152  0.00  0.00    +0.000 C 
ATOM      4  C   UNL     1       0.970   5.165  20.252  0.00  0.00    +0.000 C 
ATOM      5  O   UNL     1       1.252   4.982  18.867  0.00  0.00    +0.000 OA
ATOM      6  C   UNL     1       2.638   5.086  18.526  0.00  0.00    +0.000 C 
ENDROOT
BRANCH   1   7
ATOM      7  S   UNL     1       4.386   2.988  18.640  0.00  0.00    +0.000 S 
ATOM      8  O   UNL     1       3.578   2.084  17.842  0.00  0.00    +0.000 OA
ATOM      9  O   UNL     1       5.275   2.464  19.653  0.00  0.00    +0.000 OA
BRANCH   7  16
ATOM     10  C   UNL     1       5.941   3.968  13.717  0.00  0.00    +0.000 C 
ATOM     11  C   UNL     1       6.048   4.339  15.167  0.00  0.00    +0.000 A 
ATOM     12  C   UNL     1       7.001   5.260  15.600  0.00  0.00    +0.000 A 
ATOM     13  C   UNL     1       7.125   5.560  16.959  0.00  0.00    +0.000 A 
ATOM     14  C   UNL     1       6.309   4.939  17.927  0.00  0.00    +0.000 A 
ATOM     15  C   UNL     1       6.532   5.302  19.367  0.00  0.00    +0.000 C 
ATOM     16  C   UNL     1       5.362   3.990  17.495  0.00  0.00    +0.000 A 
ATOM     17  C   UNL     1       5.233   3.709  16.120  0.00  0.00    +0.000 A 
ENDBRANCH   7  16
ENDBRANCH   1   7
BRANCH   6  18
ATOM     18  C   UNL     1       3.178   6.541  18.714  0.00  0.00    +0.000 C 
BRANCH  18  19
ATOM     19  N   UNL     1       2.162   7.522  19.111  0.00  0.00    +0.000 N 
ATOM     20  C   UNL     1       1.868   8.634  18.343  0.00  0.00    +0.000 C 
ATOM     21  O   UNL     1       2.395   8.917  17.275  0.00  0.00    +0.000 OA
ATOM     22  H   UNL     1       1.692   7.442  20.009  0.00  0.00    +0.000 HD
BRANCH  20  23
ATOM     23  C   UNL     1       0.767   9.566  18.934  0.00  0.00    +0.000 C 
ATOM     24  O   UNL     1       0.126  10.292  18.191  0.00  0.00    +0.000 OA
ATOM     25  N   UNL     1       0.621   9.468  20.304  0.00  0.00    +0.000 N 
ATOM     26  H   UNL     1       1.174   8.754  20.766  0.00  0.00    +0.000 HD
BRANCH  25  27
ATOM     27  C   UNL     1      -0.345  10.249  21.057  0.00  0.00    +0.000 C 
ATOM     28  C   UNL     1      -0.532   9.778  22.498  0.00  0.00    +0.000 C 
ATOM     29  C   UNL     1      -1.233  10.955  23.171  0.00  0.00    +0.000 C 
ATOM     30  C   UNL     1      -0.747  12.204  22.435  0.00  0.00    +0.000 C 
ATOM     31  C   UNL     1       0.085  11.704  21.254  0.00  0.00    +0.000 C 
ENDBRANCH  25  27
ENDBRANCH  20  23
ENDBRANCH  18  19
ENDBRANCH   6  18
TORSDOF 6
ENDMDL
MODEL 3
REMARK VINA RESULT:      -7.7      1.349      2.361
REMARK  Name = 
REMARK  8 active torsions:
REMARK  status: ('A' for Active; 'I' for Inactive)
REMARK    1  A    between atoms: C_1  and  C_2
REMARK    2  A    between atoms: C_5  and  C_6
REMARK    3  A    between atoms: C_7  and  S_8
REMARK    4  A    between atoms: S_8  and  N_11
REMARK    5  A    between atoms: C_16  and  C_17
REMARK    6  A    between atoms: C_17  and  N_18
REMARK    7  A    between atoms: C_19  and  C_21
REMARK    8  A    between atoms: N_23  and  C_24
REMARK                            x       y       z     vdW  Elec       q    Type
REMARK                         _______ _______ _______ _____ _____    ______ ____
ROOT
ATOM      1  N   UNL     1       3.259   3.813  19.440  0.00  0.00    +0.000 NA
ATOM      2  C   UNL     1       3.036   3.805  20.881  0.00  0.00    +0.000 C 
ATOM      3  C   UNL     1       1.536   3.738  21.103  0.00  0.00    +0.000 C 
ATOM      4  C   UNL     1       0.797   4.759  20.246  0.00  0.00    +0.000 C 
ATOM      5  O   UNL     1       1.218   4.750  18.884  0.00  0.00    +0.000 OA
ATOM      6  C   UNL     1       2.629   4.906  18.698  0.00  0.00    +0.000 C 
ENDROOT
BRANCH   1   7
ATOM      7  S   UNL     1       4.399   2.825  18.732  0.00  0.00    +0.000 S 
ATOM      8  O   UNL     1       3.667   1.872  17.917  0.00  0.00    +0.000 OA
ATOM      9  O   UNL     1       5.328   2.357  19.736  0.00  0.00    +0.000 OA
BRANCH   7  16
ATOM     10  C   UNL     1       5.754   4.093  13.815  0.00  0.00    +0.000 C 
ATOM     11  C   UNL     1       5.887   4.405  15.277  0.00  0.00    +0.000 A 
ATOM     12  C   UNL     1       6.807   5.354  15.722  0.00  0.00    +0.000 A 
ATOM     13  C   UNL     1       6.957   5.601  17.090  0.00  0.00    +0.000 A 
ATOM     14  C   UNL     1       6.202   4.898  18.052  0.00  0.00    +0.000 A 
ATOM     15  C   UNL     1       6.452   5.210  19.499  0.00  0.00    +0.000 C 
ATOM     16  C   UNL     1       5.290   3.923  17.605  0.00  0.00    +0.000 A 
ATOM     17  C   UNL     1       5.133   3.695  16.223  0.00  0.00    +0.000 A 
ENDBRANCH   7  16
ENDBRANCH   1   7
BRANCH   6  18
ATOM     18  C   UNL     1       3.118   6.332  19.114  0.00  0.00    +0.000 C 
BRANCH  18  19
ATOM     19  N   UNL     1       2.400   7.436  18.466  0.00  0.00    +0.000 N 
ATOM     20  C   UNL     1       1.740   8.413  19.189  0.00  0.00    +0.000 C 
ATOM     21  O   UNL     1       1.688   8.477  20.410  0.00  0.00    +0.000 OA
ATOM     22  H   UNL     1       2.310   7.469  17.455  0.00  0.00    +0.000 HD
BRANCH  20  23
ATOM     23  C   UNL     1       1.027   9.498  18.326  0.00  0.00    +0.000 C 
ATOM     24  O   UNL     1       1.668  10.138  17.508  0.00  0.00    +0.000 OA
ATOM     25  N   UNL     1      -0.324   9.626  18.586  0.00  0.00    +0.000 N 
ATOM     26  H   UNL     1      -0.723   8.958  19.237  0.00  0.00    +0.000 HD
BRANCH  25  27
ATOM     27  C   UNL     1      -1.177  10.579  17.898  0.00  0.00    +0.000 C 
ATOM     28  C   UNL     1      -2.082   9.948  16.841  0.00  0.00    +0.000 C 
ATOM     29  C   UNL     1      -3.129  11.026  16.577  0.00  0.00    +0.000 C 
ATOM     30  C   UNL     1      -3.276  11.794  17.891  0.00  0.00    +0.000 C 
ATOM     31  C   UNL     1      -2.193  11.250  18.823  0.00  0.00    +0.000 C 
ENDBRANCH  25  27
ENDBRANCH  20  23
ENDBRANCH  18  19
ENDBRANCH   6  18
TORSDOF 6
ENDMDL
MODEL 4
REMARK VINA RESULT:      -7.6      2.475      8.389
REMARK  Name = 
REMARK  8 active torsions:
REMARK  status: ('A' for Active; 'I' for Inactive)
REMARK    1  A    between atoms: C_1  and  C_2
REMARK    2  A    between atoms: C_5  and  C_6
REMARK    3  A    between atoms: C_7  and  S_8
REMARK    4  A    between atoms: S_8  and  N_11
REMARK    5  A    between atoms: C_16  and  C_17
REMARK    6  A    between atoms: C_17  and  N_18
REMARK    7  A    between atoms: C_19  and  C_21
REMARK    8  A    between atoms: N_23  and  C_24
REMARK                            x       y       z     vdW  Elec       q    Type
REMARK                         _______ _______ _______ _____ _____    ______ ____
ROOT
ATOM      1  N   UNL     1       0.560   9.685  20.606  0.00  0.00    +0.000 NA
ATOM      2  C   UNL     1      -0.782   9.425  21.116  0.00  0.00    +0.000 C 
ATOM      3  C   UNL     1      -0.817   9.906  22.555  0.00  0.00    +0.000 C 
ATOM      4  C   UNL     1       0.385   9.401  23.343  0.00  0.00    +0.000 C 
ATOM      5  O   UNL     1       1.621   9.596  22.660  0.00  0.00    +0.000 OA
ATOM      6  C   UNL     1       1.659   9.052  21.337  0.00  0.00    +0.000 C 
ENDROOT
BRANCH   1   7
ATOM      7  S   UNL     1       0.801  10.402  19.121  0.00  0.00    +0.000 S 
ATOM      8  O   UNL     1       1.344   9.373  18.253  0.00  0.00    +0.000 OA
ATOM      9  O   UNL     1       1.506  11.652  19.293  0.00  0.00    +0.000 OA
BRANCH   7  16
ATOM     10  C   UNL     1      -3.031   9.570  15.622  0.00  0.00    +0.000 C 
ATOM     11  C   UNL     1      -2.577  10.332  16.832  0.00  0.00    +0.000 A 
ATOM     12  C   UNL     1      -3.329  11.395  17.330  0.00  0.00    +0.000 A 
ATOM     13  C   UNL     1      -2.871  12.128  18.428  0.00  0.00    +0.000 A 
ATOM     14  C   UNL     1      -1.643  11.829  19.053  0.00  0.00    +0.000 A 
ATOM     15  C   UNL     1      -1.218  12.689  20.208  0.00  0.00    +0.000 C 
ATOM     16  C   UNL     1      -0.870  10.771  18.537  0.00  0.00    +0.000 A 
ATOM     17  C   UNL     1      -1.350  10.026  17.440  0.00  0.00    +0.000 A 
ENDBRANCH   7  16
ENDBRANCH   1   7
BRANCH   6  18
ATOM     18  C   UNL     1       1.609   7.489  21.347  0.00  0.00    +0.000 C 
BRANCH  18  19
ATOM     19  N   UNL     1       2.150   6.854  20.140  0.00  0.00    +0.000 N 
ATOM     20  C   UNL     1       2.040   5.495  19.908  0.00  0.00    +0.000 C 
ATOM     21  O   UNL     1       1.490   4.692  20.649  0.00  0.00    +0.000 OA
ATOM     22  H   UNL     1       2.688   7.396  19.470  0.00  0.00    +0.000 HD
BRANCH  20  23
ATOM     23  C   UNL     1       2.686   5.003  18.577  0.00  0.00    +0.000 C 
ATOM     24  O   UNL     1       1.980   4.525  17.703  0.00  0.00    +0.000 OA
ATOM     25  N   UNL     1       4.056   5.170  18.519  0.00  0.00    +0.000 N 
ATOM     26  H   UNL     1       4.483   5.663  19.297  0.00  0.00    +0.000 HD
BRANCH  25  27
ATOM     27  C   UNL     1       4.856   4.777  17.372  0.00  0.00    +0.000 C 
ATOM     28  C   UNL     1       4.960   5.853  16.293  0.00  0.00    +0.000 C 
ATOM     29  C   UNL     1       6.138   5.390  15.439  0.00  0.00    +0.000 C 
ATOM     30  C   UNL     1       7.068   4.634  16.389  0.00  0.00    +0.000 C 
ATOM     31  C   UNL     1       6.325   4.536  17.721  0.00  0.00    +0.000 C 
ENDBRANCH  25  27
ENDBRANCH  20  23
ENDBRANCH  18  19
ENDBRANCH   6  18
TORSDOF 6
ENDMDL
MODEL 5
REMARK VINA RESULT:      -7.4      0.979      1.194
REMARK  Name = 
REMARK  8 active torsions:
REMARK  status: ('A' for Active; 'I' for Inactive)
REMARK    1  A    between atoms: C_1  and  C_2
REMARK    2  A    between atoms: C_5  and  C_6
REMARK    3  A    between atoms: C_7  and  S_8
REMARK    4  A    between atoms: S_8  and  N_11
REMARK    5  A    between atoms: C_16  and  C_17
REMARK    6  A    between atoms: C_17  and  N_18
REMARK    7  A    between atoms: C_19  and  C_21
REMARK    8  A    between atoms: N_23  and  C_24
REMARK                            x       y       z     vdW  Elec       q    Type
REMARK                         _______ _______ _______ _____ _____    ______ ____
ROOT
ATOM      1  N   UNL     1       3.075   3.386  19.937  0.00  0.00    +0.000 NA
ATOM      2  C   UNL     1       2.569   3.048  21.262  0.00  0.00    +0.000 C 
ATOM      3  C   UNL     1       1.055   3.004  21.167  0.00  0.00    +0.000 C 
ATOM      4  C   UNL     1       0.503   4.234  20.455  0.00  0.00    +0.000 C 
ATOM      5  O   UNL     1       1.187   4.527  19.239  0.00  0.00    +0.000 OA
ATOM      6  C   UNL     1       2.607   4.654  19.374  0.00  0.00    +0.000 C 
ENDROOT
BRANCH   1   7
ATOM      7  S   UNL     1       4.333   2.539  19.246  0.00  0.00    +0.000 S 
ATOM      8  O   UNL     1       3.731   1.571  18.348  0.00  0.00    +0.000 OA
ATOM      9  O   UNL     1       5.249   2.103  20.275  0.00  0.00    +0.000 OA
BRANCH   7  16
ATOM     10  C   UNL     1       7.924   6.355  18.837  0.00  0.00    +0.000 C 
ATOM     11  C   UNL     1       6.854   5.556  18.152  0.00  0.00    +0.000 A 
ATOM     12  C   UNL     1       6.417   5.898  16.873  0.00  0.00    +0.000 A 
ATOM     13  C   UNL     1       5.385   5.176  16.265  0.00  0.00    +0.000 A 
ATOM     14  C   UNL     1       4.753   4.101  16.922  0.00  0.00    +0.000 A 
ATOM     15  C   UNL     1       3.636   3.402  16.203  0.00  0.00    +0.000 C 
ATOM     16  C   UNL     1       5.177   3.768  18.223  0.00  0.00    +0.000 A 
ATOM     17  C   UNL     1       6.231   4.491  18.819  0.00  0.00    +0.000 A 
ENDBRANCH   7  16
ENDBRANCH   1   7
BRANCH   6  18
ATOM     18  C   UNL     1       3.003   5.915  20.209  0.00  0.00    +0.000 C 
BRANCH  18  19
ATOM     19  N   UNL     1       2.348   7.157  19.786  0.00  0.00    +0.000 N 
ATOM     20  C   UNL     1       2.616   7.756  18.568  0.00  0.00    +0.000 C 
ATOM     21  O   UNL     1       3.396   7.331  17.726  0.00  0.00    +0.000 OA
ATOM     22  H   UNL     1       1.724   7.652  20.417  0.00  0.00    +0.000 HD
BRANCH  20  23
ATOM     23  C   UNL     1       1.830   9.076  18.300  0.00  0.00    +0.000 C 
ATOM     24  O   UNL     1       2.104   9.755  17.323  0.00  0.00    +0.000 OA
ATOM     25  N   UNL     1       0.855   9.352  19.238  0.00  0.00    +0.000 N 
ATOM     26  H   UNL     1       0.695   8.641  19.944  0.00  0.00    +0.000 HD
BRANCH  25  27
ATOM     27  C   UNL     1       0.009  10.531  19.180  0.00  0.00    +0.000 C 
ATOM     28  C   UNL     1      -1.329  10.298  18.482  0.00  0.00    +0.000 C 
ATOM     29  C   UNL     1      -2.168  11.501  18.906  0.00  0.00    +0.000 C 
ATOM     30  C   UNL     1      -1.660  11.893  20.294  0.00  0.00    +0.000 C 
ATOM     31  C   UNL     1      -0.435  11.018  20.560  0.00  0.00    +0.000 C 
ENDBRANCH  25  27
ENDBRANCH  20  23
ENDBRANCH  18  19
ENDBRANCH   6  18
TORSDOF 6
ENDMDL
MODEL 6
REMARK VINA RESULT:      -7.3      2.804      8.237
REMARK  Name = 
REMARK  8 active torsions:
REMARK  status: ('A' for Active; 'I' for Inactive)
REMARK    1  A    between atoms: C_1  and  C_2
REMARK    2  A    between atoms: C_5  and  C_6
REMARK    3  A    between atoms: C_7  and  S_8
REMARK    4  A    between atoms: S_8  and  N_11
REMARK    5  A    between atoms: C_16  and  C_17
REMARK    6  A    between atoms: C_17  and  N_18
REMARK    7  A    between atoms: C_19  and  C_21
REMARK    8  A    between atoms: N_23  and  C_24
REMARK                            x       y       z     vdW  Elec       q    Type
REMARK                         _______ _______ _______ _____ _____    ______ ____
ROOT
ATOM      1  N   UNL     1       0.506   9.701  20.158  0.00  0.00    +0.000 NA
ATOM      2  C   UNL     1      -0.842   9.728  20.715  0.00  0.00    +0.000 C 
ATOM      3  C   UNL     1      -0.744  10.340  22.100  0.00  0.00    +0.000 C 
ATOM      4  C   UNL     1       0.379   9.707  22.913  0.00  0.00    +0.000 C 
ATOM      5  O   UNL     1       1.606   9.620  22.192  0.00  0.00    +0.000 OA
ATOM      6  C   UNL     1       1.504   8.956  20.928  0.00  0.00    +0.000 C 
ENDROOT
BRANCH   1   7
ATOM      7  S   UNL     1       0.815  10.223  18.606  0.00  0.00    +0.000 S 
ATOM      8  O   UNL     1      -0.358   9.889  17.820  0.00  0.00    +0.000 OA
ATOM      9  O   UNL     1       2.121   9.763  18.190  0.00  0.00    +0.000 OA
BRANCH   7  16
ATOM     10  C   UNL     1       3.598  14.577  19.560  0.00  0.00    +0.000 C 
ATOM     11  C   UNL     1       2.255  13.987  19.246  0.00  0.00    +0.000 A 
ATOM     12  C   UNL     1       1.104  14.775  19.276  0.00  0.00    +0.000 A 
ATOM     13  C   UNL     1      -0.147  14.203  19.030  0.00  0.00    +0.000 A 
ATOM     14  C   UNL     1      -0.287  12.826  18.760  0.00  0.00    +0.000 A 
ATOM     15  C   UNL     1      -1.673  12.295  18.537  0.00  0.00    +0.000 C 
ATOM     16  C   UNL     1       0.871  12.024  18.753  0.00  0.00    +0.000 A 
ATOM     17  C   UNL     1       2.130  12.614  18.984  0.00  0.00    +0.000 A 
ENDBRANCH   7  16
ENDBRANCH   1   7
BRANCH   6  18
ATOM     18  C   UNL     1       1.186   7.434  21.091  0.00  0.00    +0.000 C 
BRANCH  18  19
ATOM     19  N   UNL     1       2.228   6.535  20.583  0.00  0.00    +0.000 N 
ATOM     20  C   UNL     1       2.015   5.180  20.410  0.00  0.00    +0.000 C 
ATOM     21  O   UNL     1       0.967   4.592  20.642  0.00  0.00    +0.000 OA
ATOM     22  H   UNL     1       3.168   6.881  20.410  0.00  0.00    +0.000 HD
BRANCH  20  23
ATOM     23  C   UNL     1       3.244   4.386  19.870  0.00  0.00    +0.000 C 
ATOM     24  O   UNL     1       3.274   3.171  19.978  0.00  0.00    +0.000 OA
ATOM     25  N   UNL     1       4.217   5.179  19.293  0.00  0.00    +0.000 N 
ATOM     26  H   UNL     1       4.000   6.166  19.205  0.00  0.00    +0.000 HD
BRANCH  25  27
ATOM     27  C   UNL     1       5.444   4.645  18.730  0.00  0.00    +0.000 C 
ATOM     28  C   UNL     1       5.517   4.735  17.207  0.00  0.00    +0.000 C 
ATOM     29  C   UNL     1       6.998   4.518  16.906  0.00  0.00    +0.000 C 
ATOM     30  C   UNL     1       7.753   5.066  18.117  0.00  0.00    +0.000 C 
ATOM     31  C   UNL     1       6.688   5.429  19.153  0.00  0.00    +0.000 C 
ENDBRANCH  25  27
ENDBRANCH  20  23
ENDBRANCH  18  19
ENDBRANCH   6  18
TORSDOF 6
ENDMDL
MODEL 7
REMARK VINA RESULT:      -7.3      4.196      6.902
REMARK  Name = 
REMARK  8 active torsions:
REMARK  status: ('A' for Active; 'I' for Inactive)
REMARK    1  A    between atoms: C_1  and  C_2
REMARK    2  A    between atoms: C_5  and  C_6
REMARK    3  A    between atoms: C_7  and  S_8
REMARK    4  A    between atoms: S_8  and  N_11
REMARK    5  A    between atoms: C_16  and  C_17
REMARK    6  A    between atoms: C_17  and  N_18
REMARK    7  A    between atoms: C_19  and  C_21
REMARK    8  A    between atoms: N_23  and  C_24
REMARK                            x       y       z     vdW  Elec       q    Type
REMARK                         _______ _______ _______ _____ _____    ______ ____
ROOT
ATOM      1  N   UNL     1       5.458   4.599  17.032  0.00  0.00    +0.000 NA
ATOM      2  C   UNL     1       4.727   4.366  15.792  0.00  0.00    +0.000 C 
ATOM      3  C   UNL     1       5.731   3.883  14.762  0.00  0.00    +0.000 C 
ATOM      4  C   UNL     1       6.973   4.766  14.734  0.00  0.00    +0.000 C 
ATOM      5  O   UNL     1       7.501   5.025  16.033  0.00  0.00    +0.000 OA
ATOM      6  C   UNL     1       6.554   5.567  16.960  0.00  0.00    +0.000 C 
ENDROOT
BRANCH   1   7
ATOM      7  S   UNL     1       4.892   4.033  18.494  0.00  0.00    +0.000 S 
ATOM      8  O   UNL     1       5.972   4.207  19.447  0.00  0.00    +0.000 OA
ATOM      9  O   UNL     1       4.289   2.732  18.311  0.00  0.00    +0.000 OA
BRANCH   7  16
ATOM     10  C   UNL     1       2.549   8.673  17.718  0.00  0.00    +0.000 C 
ATOM     11  C   UNL     1       2.591   7.403  18.517  0.00  0.00    +0.000 A 
ATOM     12  C   UNL     1       1.800   7.249  19.656  0.00  0.00    +0.000 A 
ATOM     13  C   UNL     1       1.885   6.081  20.419  0.00  0.00    +0.000 A 
ATOM     14  C   UNL     1       2.770   5.039  20.075  0.00  0.00    +0.000 A 
ATOM     15  C   UNL     1       2.814   3.835  20.970  0.00  0.00    +0.000 C 
ATOM     16  C   UNL     1       3.587   5.202  18.939  0.00  0.00    +0.000 A 
ATOM     17  C   UNL     1       3.481   6.376  18.166  0.00  0.00    +0.000 A 
ENDBRANCH   7  16
ENDBRANCH   1   7
BRANCH   6  18
ATOM     18  C   UNL     1       6.111   7.013  16.564  0.00  0.00    +0.000 C 
BRANCH  18  19
ATOM     19  N   UNL     1       6.921   8.083  17.156  0.00  0.00    +0.000 N 
ATOM     20  C   UNL     1       7.843   7.843  18.159  0.00  0.00    +0.000 C 
ATOM     21  O   UNL     1       8.089   6.748  18.648  0.00  0.00    +0.000 OA
ATOM     22  H   UNL     1       6.773   9.051  16.887  0.00  0.00    +0.000 HD
BRANCH  20  23
ATOM     23  C   UNL     1       8.601   9.106  18.669  0.00  0.00    +0.000 C 
ATOM     24  O   UNL     1       9.234   9.052  19.711  0.00  0.00    +0.000 OA
ATOM     25  N   UNL     1       8.476  10.208  17.846  0.00  0.00    +0.000 N 
ATOM     26  H   UNL     1       7.984  10.064  16.970  0.00  0.00    +0.000 HD
BRANCH  25  27
ATOM     27  C   UNL     1       9.099  11.489  18.134  0.00  0.00    +0.000 C 
ATOM     28  C   UNL     1      10.526  11.615  17.605  0.00  0.00    +0.000 C 
ATOM     29  C   UNL     1      10.793  13.117  17.653  0.00  0.00    +0.000 C 
ATOM     30  C   UNL     1       9.435  13.788  17.441  0.00  0.00    +0.000 C 
ATOM     31  C   UNL     1       8.401  12.662  17.446  0.00  0.00    +0.000 C 
ENDBRANCH  25  27
ENDBRANCH  20  23
ENDBRANCH  18  19
ENDBRANCH   6  18
TORSDOF 6
ENDMDL
MODEL 8
REMARK VINA RESULT:      -7.2      1.275      1.461
REMARK  Name = 
REMARK  8 active torsions:
REMARK  status: ('A' for Active; 'I' for Inactive)
REMARK    1  A    between atoms: C_1  and  C_2
REMARK    2  A    between atoms: C_5  and  C_6
REMARK    3  A    between atoms: C_7  and  S_8
REMARK    4  A    between atoms: S_8  and  N_11
REMARK    5  A    between atoms: C_16  and  C_17
REMARK    6  A    between atoms: C_17  and  N_18
REMARK    7  A    between atoms: C_19  and  C_21
REMARK    8  A    between atoms: N_23  and  C_24
REMARK                            x       y       z     vdW  Elec       q    Type
REMARK                         _______ _______ _______ _____ _____    ______ ____
ROOT
ATOM      1  N   UNL     1       3.049   3.520  19.053  0.00  0.00    +0.000 NA
ATOM      2  C   UNL     1       3.597   2.940  20.274  0.00  0.00    +0.000 C 
ATOM      3  C   UNL     1       2.424   2.582  21.168  0.00  0.00    +0.000 C 
ATOM      4  C   UNL     1       1.433   3.734  21.277  0.00  0.00    +0.000 C 
ATOM      5  O   UNL     1       1.092   4.297  20.013  0.00  0.00    +0.000 OA
ATOM      6  C   UNL     1       2.215   4.711  19.226  0.00  0.00    +0.000 C 
ENDROOT
BRANCH   1   7
ATOM      7  S   UNL     1       3.583   3.043  17.548  0.00  0.00    +0.000 S 
ATOM      8  O   UNL     1       2.608   3.536  16.592  0.00  0.00    +0.000 OA
ATOM      9  O   UNL     1       3.925   1.639  17.576  0.00  0.00    +0.000 OA
BRANCH   7  16
ATOM     10  C   UNL     1       7.589   5.740  19.621  0.00  0.00    +0.000 C 
ATOM     11  C   UNL     1       6.911   5.255  18.372  0.00  0.00    +0.000 A 
ATOM     12  C   UNL     1       7.329   5.694  17.117  0.00  0.00    +0.000 A 
ATOM     13  C   UNL     1       6.658   5.274  15.965  0.00  0.00    +0.000 A 
ATOM     14  C   UNL     1       5.542   4.415  16.034  0.00  0.00    +0.000 A 
ATOM     15  C   UNL     1       4.867   4.041  14.747  0.00  0.00    +0.000 C 
ATOM     16  C   UNL     1       5.103   3.990  17.303  0.00  0.00    +0.000 A 
ATOM     17  C   UNL     1       5.799   4.404  18.457  0.00  0.00    +0.000 A 
ENDBRANCH   7  16
ENDBRANCH   1   7
BRANCH   6  18
ATOM     18  C   UNL     1       2.958   5.929  19.865  0.00  0.00    +0.000 C 
BRANCH  18  19
ATOM     19  N   UNL     1       2.494   7.240  19.396  0.00  0.00    +0.000 N 
ATOM     20  C   UNL     1       1.622   8.021  20.132  0.00  0.00    +0.000 C 
ATOM     21  O   UNL     1       1.158   7.728  21.225  0.00  0.00    +0.000 OA
ATOM     22  H   UNL     1       2.752   7.578  18.473  0.00  0.00    +0.000 HD
BRANCH  20  23
ATOM     23  C   UNL     1       1.235   9.377  19.465  0.00  0.00    +0.000 C 
ATOM     24  O   UNL     1       1.350   9.512  18.258  0.00  0.00    +0.000 OA
ATOM     25  N   UNL     1       0.776  10.331  20.353  0.00  0.00    +0.000 N 
ATOM     26  H   UNL     1       0.660  10.031  21.315  0.00  0.00    +0.000 HD
BRANCH  25  27
ATOM     27  C   UNL     1       0.366  11.663  19.945  0.00  0.00    +0.000 C 
ATOM     28  C   UNL     1       1.432  12.425  19.160  0.00  0.00    +0.000 C 
ATOM     29  C   UNL     1       0.652  13.564  18.510  0.00  0.00    +0.000 C 
ATOM     30  C   UNL     1      -0.761  13.024  18.284  0.00  0.00    +0.000 C 
ATOM     31  C   UNL     1      -0.804  11.654  18.961  0.00  0.00    +0.000 C 
ENDBRANCH  25  27
ENDBRANCH  20  23
ENDBRANCH  18  19
ENDBRANCH   6  18
TORSDOF 6
ENDMDL
MODEL 9
REMARK VINA RESULT:      -7.1      1.338      1.555
REMARK  Name = 
REMARK  8 active torsions:
REMARK  status: ('A' for Active; 'I' for Inactive)
REMARK    1  A    between atoms: C_1  and  C_2
REMARK    2  A    between atoms: C_5  and  C_6
REMARK    3  A    between atoms: C_7  and  S_8
REMARK    4  A    between atoms: S_8  and  N_11
REMARK    5  A    between atoms: C_16  and  C_17
REMARK    6  A    between atoms: C_17  and  N_18
REMARK    7  A    between atoms: C_19  and  C_21
REMARK    8  A    between atoms: N_23  and  C_24
REMARK                            x       y       z     vdW  Elec       q    Type
REMARK                         _______ _______ _______ _____ _____    ______ ____
ROOT
ATOM      1  N   UNL     1       3.180   3.559  19.700  0.00  0.00    +0.000 NA
ATOM      2  C   UNL     1       2.797   3.382  21.095  0.00  0.00    +0.000 C 
ATOM      3  C   UNL     1       1.286   3.235  21.132  0.00  0.00    +0.000 C 
ATOM      4  C   UNL     1       0.600   4.319  20.307  0.00  0.00    +0.000 C 
ATOM      5  O   UNL     1       1.171   4.477  19.011  0.00  0.00    +0.000 OA
ATOM      6  C   UNL     1       2.585   4.705  19.010  0.00  0.00    +0.000 C 
ENDROOT
BRANCH   1   7
ATOM      7  S   UNL     1       4.440   2.698  19.029  0.00  0.00    +0.000 S 
ATOM      8  O   UNL     1       3.850   1.803  18.050  0.00  0.00    +0.000 OA
ATOM      9  O   UNL     1       5.282   2.171  20.079  0.00  0.00    +0.000 OA
BRANCH   7  16
ATOM     10  C   UNL     1       8.090   6.479  19.046  0.00  0.00    +0.000 C 
ATOM     11  C   UNL     1       7.078   5.711  18.246  0.00  0.00    +0.000 A 
ATOM     12  C   UNL     1       6.760   6.092  16.943  0.00  0.00    +0.000 A 
ATOM     13  C   UNL     1       5.780   5.399  16.227  0.00  0.00    +0.000 A 
ATOM     14  C   UNL     1       5.081   4.315  16.795  0.00  0.00    +0.000 A 
ATOM     15  C   UNL     1       4.025   3.649  15.960  0.00  0.00    +0.000 C 
ATOM     16  C   UNL     1       5.384   3.943  18.119  0.00  0.00    +0.000 A 
ATOM     17  C   UNL     1       6.387   4.637  18.827  0.00  0.00    +0.000 A 
ENDBRANCH   7  16
ENDBRANCH   1   7
BRANCH   6  18
ATOM     18  C   UNL     1       2.953   6.092  19.631  0.00  0.00    +0.000 C 
BRANCH  18  19
ATOM     19  N   UNL     1       2.338   7.242  18.960  0.00  0.00    +0.000 N 
ATOM     20  C   UNL     1       1.731   8.269  19.661  0.00  0.00    +0.000 C 
ATOM     21  O   UNL     1       1.648   8.342  20.879  0.00  0.00    +0.000 OA
ATOM     22  H   UNL     1       2.280   7.278  17.946  0.00  0.00    +0.000 HD
BRANCH  20  23
ATOM     23  C   UNL     1       1.125   9.399  18.774  0.00  0.00    +0.000 C 
ATOM     24  O   UNL     1       1.833   9.979  17.966  0.00  0.00    +0.000 OA
ATOM     25  N   UNL     1      -0.216   9.637  19.004  0.00  0.00    +0.000 N 
ATOM     26  H   UNL     1      -0.681   9.009  19.651  0.00  0.00    +0.000 HD
BRANCH  25  27
ATOM     27  C   UNL     1      -0.976  10.649  18.290  0.00  0.00    +0.000 C 
ATOM     28  C   UNL     1      -1.884  10.085  17.200  0.00  0.00    +0.000 C 
ATOM     29  C   UNL     1      -2.844  11.234  16.904  0.00  0.00    +0.000 C 
ATOM     30  C   UNL     1      -2.982  12.009  18.215  0.00  0.00    +0.000 C 
ATOM     31  C   UNL     1      -1.974  11.388  19.182  0.00  0.00    +0.000 C 
ENDBRANCH  25  27
ENDBRANCH  20  23
ENDBRANCH  18  19
ENDBRANCH   6  18
TORSDOF 6
ENDMDL
