MODEL 1
REMARK VINA RESULT:      -9.5      0.000      0.000
REMARK  Name = 
REMARK  5 active torsions:
REMARK  status: ('A' for Active; 'I' for Inactive)
REMARK    1  A    between atoms: C_4  and  C_5
REMARK    2  A    between atoms: C_8  and  O_9
REMARK    3  A    between atoms: O_9  and  C_10
REMARK    4  A    between atoms: C_10  and  C_11
REMARK    5  A    between atoms: C_20  and  C_21
REMARK                            x       y       z     vdW  Elec       q    Type
REMARK                         _______ _______ _______ _____ _____    ______ ____
ROOT
ATOM      1  N   UNL     1       2.351   3.335  21.127  0.00  0.00    +0.000 N 
ATOM      2  C   UNL     1       2.556   4.448  20.345  0.00  0.00    +0.000 A 
ATOM      3  N   UNL     1       3.375   4.323  19.299  0.00  0.00    +0.000 NA
ATOM      4  C   UNL     1       3.580   5.405  18.514  0.00  0.00    +0.000 A 
ATOM      5  C   UNL     1       2.953   6.606  18.769  0.00  0.00    +0.000 A 
ATOM      6  C   UNL     1       2.126   6.620  19.864  0.00  0.00    +0.000 A 
ATOM      7  N   UNL     1       1.905   5.558  20.670  0.00  0.00    +0.000 NA
ATOM      8  H   UNL     1       2.556   2.499  20.599  0.00  0.00    +0.000 HD
ATOM      9  H   UNL     1       1.456   3.380  21.593  0.00  0.00    +0.000 HD
ENDROOT
BRANCH   6  10
ATOM     10  C   UNL     1       1.457   7.881  20.287  0.00  0.00    +0.000 A 
ATOM     11  N   UNL     1       0.803   8.004  21.401  0.00  0.00    +0.000 NA
ATOM     12  C   UNL     1       0.196   9.251  21.665  0.00  0.00    +0.000 A 
ATOM     13  C   UNL     1      -0.395   9.477  22.910  0.00  0.00    +0.000 A 
ATOM     14  C   UNL     1      -1.015  10.701  23.194  0.00  0.00    +0.000 A 
ATOM     15  C   UNL     1      -1.070  11.706  22.226  0.00  0.00    +0.000 A 
ATOM     16  C   UNL     1      -0.487  11.497  20.979  0.00  0.00    +0.000 A 
ATOM     17  C   UNL     1       0.154  10.281  20.719  0.00  0.00    +0.000 A 
ATOM     18  C   UNL     1       0.851  10.063  19.444  0.00  0.00    +0.000 A 
ATOM     19  O   UNL     1       0.773  10.846  18.506  0.00  0.00    +0.000 OA
ATOM     20  N   UNL     1       1.572   8.902  19.372  0.00  0.00    +0.000 N 
ATOM     21  H   UNL     1       2.077   8.718  18.513  0.00  0.00    +0.000 HD
ENDBRANCH   6  10
BRANCH   4  22
ATOM     22  C   UNL     1       4.531   5.222  17.402  0.00  0.00    +0.000 A 
ATOM     23  C   UNL     1       5.019   6.315  16.669  0.00  0.00    +0.000 A 
ATOM     24  C   UNL     1       5.957   6.146  15.649  0.00  0.00    +0.000 A 
ATOM     25  C   UNL     1       6.449   4.878  15.348  0.00  0.00    +0.000 A 
ATOM     26  C   UNL     1       5.934   3.771  16.016  0.00  0.00    +0.000 A 
ATOM     27  C   UNL     1       4.989   3.942  17.035  0.00  0.00    +0.000 A 
BRANCH  25  28
ATOM     28  O   UNL     1       7.425   4.623  14.423  0.00  0.00    +0.000 OA
BRANCH  28  29
ATOM     29  C   UNL     1       7.081   4.980  13.084  0.00  0.00    +0.000 C 
BRANCH  29  30
ATOM     30  C   UNL     1       6.626   3.752  12.345  0.00  0.00    +0.000 A 
ATOM     31  C   UNL     1       5.262   3.484  12.172  0.00  0.00    +0.000 A 
ATOM     32  C   UNL     1       4.853   2.348  11.476  0.00  0.00    +0.000 A 
ATOM     33  C   UNL     1       5.801   1.470  10.952  0.00  0.00    +0.000 A 
ATOM     34  C   UNL     1       7.161   1.724  11.126  0.00  0.00    +0.000 A 
ATOM     35  C   UNL     1       7.572   2.858  11.824  0.00  0.00    +0.000 A 
ENDBRANCH  29  30
ENDBRANCH  28  29
ENDBRANCH  25  28
ENDBRANCH   4  22
TORSDOF 5
ENDMDL
MODEL 2
REMARK VINA RESULT:      -9.3      1.101      1.912
REMARK  Name = 
REMARK  5 active torsions:
REMARK  status: ('A' for Active; 'I' for Inactive)
REMARK    1  A    between atoms: C_4  and  C_5
REMARK    2  A    between atoms: C_8  and  O_9
REMARK    3  A    between atoms: O_9  and  C_10
REMARK    4  A    between atoms: C_10  and  C_11
REMARK    5  A    between atoms: C_20  and  C_21
REMARK                            x       y       z     vdW  Elec       q    Type
REMARK                         _______ _______ _______ _____ _____    ______ ____
ROOT
ATOM      1  N   UNL     1       2.147   3.675  21.297  0.00  0.00    +0.000 N 
ATOM      2  C   UNL     1       2.465   4.734  20.479  0.00  0.00    +0.000 A 
ATOM      3  N   UNL     1       3.347   4.515  19.502  0.00  0.00    +0.000 NA
ATOM      4  C   UNL     1       3.664   5.543  18.684  0.00  0.00    +0.000 A 
ATOM      5  C   UNL     1       3.086   6.786  18.835  0.00  0.00    +0.000 A 
ATOM      6  C   UNL     1       2.187   6.897  19.866  0.00  0.00    +0.000 A 
ATOM      7  N   UNL     1       1.854   5.890  20.703  0.00  0.00    +0.000 NA
ATOM      8  H   UNL     1       2.343   2.803  20.825  0.00  0.00    +0.000 HD
ATOM      9  H   UNL     1       1.225   3.788  21.694  0.00  0.00    +0.000 HD
ENDROOT
BRANCH   6  10
ATOM     10  C   UNL     1       1.559   8.210  20.179  0.00  0.00    +0.000 A 
ATOM     11  N   UNL     1       1.372   9.142  19.296  0.00  0.00    +0.000 NA
ATOM     12  C   UNL     1       0.787  10.349  19.737  0.00  0.00    +0.000 A 
ATOM     13  C   UNL     1       0.435  11.324  18.801  0.00  0.00    +0.000 A 
ATOM     14  C   UNL     1      -0.136  12.535  19.212  0.00  0.00    +0.000 A 
ATOM     15  C   UNL     1      -0.339  12.795  20.569  0.00  0.00    +0.000 A 
ATOM     16  C   UNL     1       0.007  11.835  21.516  0.00  0.00    +0.000 A 
ATOM     17  C   UNL     1       0.549  10.618  21.090  0.00  0.00    +0.000 A 
ATOM     18  C   UNL     1       0.845   9.553  22.057  0.00  0.00    +0.000 A 
ATOM     19  O   UNL     1       0.790   9.727  23.268  0.00  0.00    +0.000 OA
ATOM     20  N   UNL     1       1.219   8.358  21.504  0.00  0.00    +0.000 N 
ATOM     21  H   UNL     1       1.423   7.593  22.137  0.00  0.00    +0.000 HD
ENDBRANCH   6  10
BRANCH   4  22
ATOM     22  C   UNL     1       4.678   5.256  17.653  0.00  0.00    +0.000 A 
ATOM     23  C   UNL     1       4.666   4.052  16.930  0.00  0.00    +0.000 A 
ATOM     24  C   UNL     1       5.596   3.801  15.919  0.00  0.00    +0.000 A 
ATOM     25  C   UNL     1       6.554   4.758  15.590  0.00  0.00    +0.000 A 
ATOM     26  C   UNL     1       6.627   5.931  16.334  0.00  0.00    +0.000 A 
ATOM     27  C   UNL     1       5.697   6.179  17.351  0.00  0.00    +0.000 A 
BRANCH  25  28
ATOM     28  O   UNL     1       7.453   4.636  14.566  0.00  0.00    +0.000 OA
BRANCH  28  29
ATOM     29  C   UNL     1       6.955   5.036  13.288  0.00  0.00    +0.000 C 
BRANCH  29  30
ATOM     30  C   UNL     1       6.616   3.811  12.484  0.00  0.00    +0.000 A 
ATOM     31  C   UNL     1       5.284   3.417  12.303  0.00  0.00    +0.000 A 
ATOM     32  C   UNL     1       4.984   2.286  11.546  0.00  0.00    +0.000 A 
ATOM     33  C   UNL     1       6.010   1.538  10.970  0.00  0.00    +0.000 A 
ATOM     34  C   UNL     1       7.339   1.917  11.151  0.00  0.00    +0.000 A 
ATOM     35  C   UNL     1       7.642   3.046  11.909  0.00  0.00    +0.000 A 
ENDBRANCH  29  30
ENDBRANCH  28  29
ENDBRANCH  25  28
ENDBRANCH   4  22
TORSDOF 5
ENDMDL
MODEL 3
REMARK VINA RESULT:      -9.1      4.497      7.050
REMARK  Name = 
REMARK  5 active torsions:
REMARK  status: ('A' for Active; 'I' for Inactive)
REMARK    1  A    between atoms: C_4  and  C_5
REMARK    2  A    between atoms: C_8  and  O_9
REMARK    3  A    between atoms: O_9  and  C_10
REMARK    4  A    between atoms: C_10  and  C_11
REMARK    5  A    between atoms: C_20  and  C_21
REMARK                            x       y       z     vdW  Elec       q    Type
REMARK                         _______ _______ _______ _____ _____    ______ ____
ROOT
ATOM      1  N   UNL     1       0.787  13.587  21.458  0.00  0.00    +0.000 N 
ATOM      2  C   UNL     1       0.158  12.587  20.754  0.00  0.00    +0.000 A 
ATOM      3  N   UNL     1       0.841  11.461  20.539  0.00  0.00    +0.000 NA
ATOM      4  C   UNL     1       0.234  10.465  19.856  0.00  0.00    +0.000 A 
ATOM      5  C   UNL     1      -1.061  10.591  19.402  0.00  0.00    +0.000 A 
ATOM      6  C   UNL     1      -1.673  11.787  19.686  0.00  0.00    +0.000 A 
ATOM      7  N   UNL     1      -1.091  12.802  20.361  0.00  0.00    +0.000 NA
ATOM      8  H   UNL     1       1.531  13.199  22.021  0.00  0.00    +0.000 HD
ATOM      9  H   UNL     1       0.115  14.179  21.925  0.00  0.00    +0.000 HD
ENDROOT
BRANCH   6  10
ATOM     10  C   UNL     1      -3.043  12.072  19.177  0.00  0.00    +0.000 A 
ATOM     11  N   UNL     1      -3.979  12.599  19.903  0.00  0.00    +0.000 NA
ATOM     12  C   UNL     1      -5.241  12.792  19.300  0.00  0.00    +0.000 A 
ATOM     13  C   UNL     1      -6.235  13.485  19.994  0.00  0.00    +0.000 A 
ATOM     14  C   UNL     1      -7.500  13.680  19.423  0.00  0.00    +0.000 A 
ATOM     15  C   UNL     1      -7.791  13.163  18.159  0.00  0.00    +0.000 A 
ATOM     16  C   UNL     1      -6.811  12.469  17.453  0.00  0.00    +0.000 A 
ATOM     17  C   UNL     1      -5.544  12.307  18.022  0.00  0.00    +0.000 A 
ATOM     18  C   UNL     1      -4.465  11.654  17.269  0.00  0.00    +0.000 A 
ATOM     19  O   UNL     1      -4.655  11.088  16.200  0.00  0.00    +0.000 OA
ATOM     20  N   UNL     1      -3.235  11.698  17.867  0.00  0.00    +0.000 N 
ATOM     21  H   UNL     1      -2.460  11.267  17.375  0.00  0.00    +0.000 HD
ENDBRANCH   6  10
BRANCH   4  22
ATOM     22  C   UNL     1       1.053   9.264  19.608  0.00  0.00    +0.000 A 
ATOM     23  C   UNL     1       1.287   8.316  20.617  0.00  0.00    +0.000 A 
ATOM     24  C   UNL     1       2.020   7.154  20.368  0.00  0.00    +0.000 A 
ATOM     25  C   UNL     1       2.523   6.899  19.095  0.00  0.00    +0.000 A 
ATOM     26  C   UNL     1       2.360   7.852  18.094  0.00  0.00    +0.000 A 
ATOM     27  C   UNL     1       1.629   9.019  18.347  0.00  0.00    +0.000 A 
BRANCH  25  28
ATOM     28  O   UNL     1       3.183   5.755  18.736  0.00  0.00    +0.000 OA
BRANCH  28  29
ATOM     29  C   UNL     1       3.966   5.870  17.547  0.00  0.00    +0.000 C 
BRANCH  29  30
ATOM     30  C   UNL     1       5.403   6.107  17.922  0.00  0.00    +0.000 A 
ATOM     31  C   UNL     1       5.988   5.419  18.993  0.00  0.00    +0.000 A 
ATOM     32  C   UNL     1       7.324   5.640  19.323  0.00  0.00    +0.000 A 
ATOM     33  C   UNL     1       8.084   6.552  18.591  0.00  0.00    +0.000 A 
ATOM     34  C   UNL     1       7.508   7.247  17.528  0.00  0.00    +0.000 A 
ATOM     35  C   UNL     1       6.173   7.029  17.198  0.00  0.00    +0.000 A 
ENDBRANCH  29  30
ENDBRANCH  28  29
ENDBRANCH  25  28
ENDBRANCH   4  22
TORSDOF 5
ENDMDL
MODEL 4
REMARK VINA RESULT:      -9.1      0.449      1.266
REMARK  Name = 
REMARK  5 active torsions:
REMARK  status: ('A' for Active; 'I' for Inactive)
REMARK    1  A    between atoms: C_4  and  C_5
REMARK    2  A    between atoms: C_8  and  O_9
REMARK    3  A    between atoms: O_9  and  C_10
REMARK    4  A    between atoms: C_10  and  C_11
REMARK    5  A    between atoms: C_20  and  C_21
REMARK                            x       y       z     vdW  Elec       q    Type
REMARK                         _______ _______ _______ _____ _____    ______ ____
ROOT
ATOM      1  N   UNL     1       2.814   3.172  20.848  0.00  0.00    +0.000 N 
ATOM      2  C   UNL     1       2.988   4.318  20.107  0.00  0.00    +0.000 A 
ATOM      3  N   UNL     1       3.855   4.271  19.094  0.00  0.00    +0.000 NA
ATOM      4  C   UNL     1       4.031   5.386  18.350  0.00  0.00    +0.000 A 
ATOM      5  C   UNL     1       3.327   6.542  18.612  0.00  0.00    +0.000 A 
ATOM      6  C   UNL     1       2.455   6.476  19.670  0.00  0.00    +0.000 A 
ATOM      7  N   UNL     1       2.262   5.379  20.435  0.00  0.00    +0.000 NA
ATOM      8  H   UNL     1       3.089   2.364  20.305  0.00  0.00    +0.000 HD
ATOM      9  H   UNL     1       1.900   3.152  21.275  0.00  0.00    +0.000 HD
ENDROOT
BRANCH   6  10
ATOM     10  C   UNL     1       1.698   7.684  20.099  0.00  0.00    +0.000 A 
ATOM     11  N   UNL     1       1.106   7.785  21.249  0.00  0.00    +0.000 NA
ATOM     12  C   UNL     1       0.402   8.979  21.516  0.00  0.00    +0.000 A 
ATOM     13  C   UNL     1      -0.129   9.193  22.790  0.00  0.00    +0.000 A 
ATOM     14  C   UNL     1      -0.842  10.364  23.079  0.00  0.00    +0.000 A 
ATOM     15  C   UNL     1      -1.051  11.325  22.088  0.00  0.00    +0.000 A 
ATOM     16  C   UNL     1      -0.529  11.128  20.813  0.00  0.00    +0.000 A 
ATOM     17  C   UNL     1       0.205   9.968  20.546  0.00  0.00    +0.000 A 
ATOM     18  C   UNL     1       0.839   9.771  19.235  0.00  0.00    +0.000 A 
ATOM     19  O   UNL     1       0.630  10.511  18.283  0.00  0.00    +0.000 OA
ATOM     20  N   UNL     1       1.660   8.679  19.150  0.00  0.00    +0.000 N 
ATOM     21  H   UNL     1       2.126   8.512  18.265  0.00  0.00    +0.000 HD
ENDBRANCH   6  10
BRANCH   4  22
ATOM     22  C   UNL     1       5.036   5.290  17.275  0.00  0.00    +0.000 A 
ATOM     23  C   UNL     1       5.878   4.173  17.158  0.00  0.00    +0.000 A 
ATOM     24  C   UNL     1       6.796   4.060  16.112  0.00  0.00    +0.000 A 
ATOM     25  C   UNL     1       6.880   5.054  15.140  0.00  0.00    +0.000 A 
ATOM     26  C   UNL     1       6.102   6.200  15.268  0.00  0.00    +0.000 A 
ATOM     27  C   UNL     1       5.187   6.315  16.322  0.00  0.00    +0.000 A 
BRANCH  25  28
ATOM     28  O   UNL     1       7.688   4.995  14.037  0.00  0.00    +0.000 OA
BRANCH  28  29
ATOM     29  C   UNL     1       7.017   5.220  12.797  0.00  0.00    +0.000 C 
BRANCH  29  30
ATOM     30  C   UNL     1       6.617   3.898  12.203  0.00  0.00    +0.000 A 
ATOM     31  C   UNL     1       7.584   3.003  11.728  0.00  0.00    +0.000 A 
ATOM     32  C   UNL     1       7.199   1.776  11.190  0.00  0.00    +0.000 A 
ATOM     33  C   UNL     1       5.849   1.436  11.116  0.00  0.00    +0.000 A 
ATOM     34  C   UNL     1       4.879   2.325  11.579  0.00  0.00    +0.000 A 
ATOM     35  C   UNL     1       5.260   3.552  12.115  0.00  0.00    +0.000 A 
ENDBRANCH  29  30
ENDBRANCH  28  29
ENDBRANCH  25  28
ENDBRANCH   4  22
TORSDOF 5
ENDMDL
MODEL 5
REMARK VINA RESULT:      -9.0      4.747      7.093
REMARK  Name = 
REMARK  5 active torsions:
REMARK  status: ('A' for Active; 'I' for Inactive)
REMARK    1  A    between atoms: C_4  and  C_5
REMARK    2  A    between atoms: C_8  and  O_9
REMARK    3  A    between atoms: O_9  and  C_10
REMARK    4  A    between atoms: C_10  and  C_11
REMARK    5  A    between atoms: C_20  and  C_21
REMARK                            x       y       z     vdW  Elec       q    Type
REMARK                         _______ _______ _______ _____ _____    ______ ____
ROOT
ATOM      1  N   UNL     1      -2.553  11.705  16.910  0.00  0.00    +0.000 N 
ATOM      2  C   UNL     1      -1.841  11.473  18.065  0.00  0.00    +0.000 A 
ATOM      3  N   UNL     1      -0.847  10.585  18.007  0.00  0.00    +0.000 NA
ATOM      4  C   UNL     1      -0.132  10.352  19.131  0.00  0.00    +0.000 A 
ATOM      5  C   UNL     1      -0.404  11.018  20.307  0.00  0.00    +0.000 A 
ATOM      6  C   UNL     1      -1.441  11.916  20.250  0.00  0.00    +0.000 A 
ATOM      7  N   UNL     1      -2.177  12.166  19.145  0.00  0.00    +0.000 NA
ATOM      8  H   UNL     1      -1.999  11.449  16.105  0.00  0.00    +0.000 HD
ATOM      9  H   UNL     1      -2.960  12.629  16.916  0.00  0.00    +0.000 HD
ENDROOT
BRANCH   6  10
ATOM     10  C   UNL     1      -1.881  12.636  21.477  0.00  0.00    +0.000 A 
ATOM     11  N   UNL     1      -1.113  13.434  22.151  0.00  0.00    +0.000 NA
ATOM     12  C   UNL     1      -1.652  14.034  23.310  0.00  0.00    +0.000 A 
ATOM     13  C   UNL     1      -0.914  15.007  23.986  0.00  0.00    +0.000 A 
ATOM     14  C   UNL     1      -1.421  15.609  25.146  0.00  0.00    +0.000 A 
ATOM     15  C   UNL     1      -2.663  15.226  25.655  0.00  0.00    +0.000 A 
ATOM     16  C   UNL     1      -3.412  14.256  24.993  0.00  0.00    +0.000 A 
ATOM     17  C   UNL     1      -2.907  13.684  23.821  0.00  0.00    +0.000 A 
ATOM     18  C   UNL     1      -3.709  12.720  23.055  0.00  0.00    +0.000 A 
ATOM     19  O   UNL     1      -4.761  12.256  23.474  0.00  0.00    +0.000 OA
ATOM     20  N   UNL     1      -3.176  12.356  21.848  0.00  0.00    +0.000 N 
ATOM     21  H   UNL     1      -3.703  11.700  21.283  0.00  0.00    +0.000 HD
ENDBRANCH   6  10
BRANCH   4  22
ATOM     22  C   UNL     1       0.923   9.327  19.020  0.00  0.00    +0.000 A 
ATOM     23  C   UNL     1       1.246   8.490  20.100  0.00  0.00    +0.000 A 
ATOM     24  C   UNL     1       2.209   7.487  19.980  0.00  0.00    +0.000 A 
ATOM     25  C   UNL     1       2.863   7.280  18.767  0.00  0.00    +0.000 A 
ATOM     26  C   UNL     1       2.608   8.137  17.702  0.00  0.00    +0.000 A 
ATOM     27  C   UNL     1       1.645   9.147  17.825  0.00  0.00    +0.000 A 
BRANCH  25  28
ATOM     28  O   UNL     1       3.761   6.276  18.531  0.00  0.00    +0.000 OA
BRANCH  28  29
ATOM     29  C   UNL     1       3.221   5.148  17.840  0.00  0.00    +0.000 C 
BRANCH  29  30
ATOM     30  C   UNL     1       2.575   4.222  18.833  0.00  0.00    +0.000 A 
ATOM     31  C   UNL     1       3.210   3.910  20.042  0.00  0.00    +0.000 A 
ATOM     32  C   UNL     1       2.595   3.058  20.958  0.00  0.00    +0.000 A 
ATOM     33  C   UNL     1       1.345   2.509  20.673  0.00  0.00    +0.000 A 
ATOM     34  C   UNL     1       0.709   2.808  19.469  0.00  0.00    +0.000 A 
ATOM     35  C   UNL     1       1.323   3.657  18.550  0.00  0.00    +0.000 A 
ENDBRANCH  29  30
ENDBRANCH  28  29
ENDBRANCH  25  28
ENDBRANCH   4  22
TORSDOF 5
ENDMDL
MODEL 6
REMARK VINA RESULT:      -9.0      1.149      1.898
REMARK  Name = 
REMARK  5 active torsions:
REMARK  status: ('A' for Active; 'I' for Inactive)
REMARK    1  A    between atoms: C_4  and  C_5
REMARK    2  A    between atoms: C_8  and  O_9
REMARK    3  A    between atoms: O_9  and  C_10
REMARK    4  A    between atoms: C_10  and  C_11
REMARK    5  A    between atoms: C_20  and  C_21
REMARK                            x       y       z     vdW  Elec       q    Type
REMARK                         _______ _______ _______ _____ _____    ______ ____
ROOT
ATOM      1  N   UNL     1       2.121   3.434  20.512  0.00  0.00    +0.000 N 
ATOM      2  C   UNL     1       2.453   4.570  19.811  0.00  0.00    +0.000 A 
ATOM      3  N   UNL     1       3.308   4.439  18.795  0.00  0.00    +0.000 NA
ATOM      4  C   UNL     1       3.638   5.544  18.090  0.00  0.00    +0.000 A 
ATOM      5  C   UNL     1       3.100   6.777  18.394  0.00  0.00    +0.000 A 
ATOM      6  C   UNL     1       2.225   6.795  19.452  0.00  0.00    +0.000 A 
ATOM      7  N   UNL     1       1.880   5.709  20.178  0.00  0.00    +0.000 NA
ATOM      8  H   UNL     1       2.282   2.616  19.941  0.00  0.00    +0.000 HD
ATOM      9  H   UNL     1       1.211   3.526  20.941  0.00  0.00    +0.000 HD
ENDROOT
BRANCH   6  10
ATOM     10  C   UNL     1       1.643   8.081  19.926  0.00  0.00    +0.000 A 
ATOM     11  N   UNL     1       1.266   9.032  19.128  0.00  0.00    +0.000 NA
ATOM     12  C   UNL     1       0.753  10.209  19.715  0.00  0.00    +0.000 A 
ATOM     13  C   UNL     1       0.204  11.200  18.898  0.00  0.00    +0.000 A 
ATOM     14  C   UNL     1      -0.302  12.383  19.454  0.00  0.00    +0.000 A 
ATOM     15  C   UNL     1      -0.241  12.598  20.832  0.00  0.00    +0.000 A 
ATOM     16  C   UNL     1       0.304  11.621  21.660  0.00  0.00    +0.000 A 
ATOM     17  C   UNL     1       0.779  10.432  21.096  0.00  0.00    +0.000 A 
ATOM     18  C   UNL     1       1.282   9.349  21.951  0.00  0.00    +0.000 A 
ATOM     19  O   UNL     1       1.461   9.486  23.154  0.00  0.00    +0.000 OA
ATOM     20  N   UNL     1       1.566   8.181  21.295  0.00  0.00    +0.000 N 
ATOM     21  H   UNL     1       1.906   7.404  21.851  0.00  0.00    +0.000 HD
ENDBRANCH   6  10
BRANCH   4  22
ATOM     22  C   UNL     1       4.622   5.348  17.010  0.00  0.00    +0.000 A 
ATOM     23  C   UNL     1       5.041   6.415  16.198  0.00  0.00    +0.000 A 
ATOM     24  C   UNL     1       6.010   6.239  15.208  0.00  0.00    +0.000 A 
ATOM     25  C   UNL     1       6.602   4.993  15.016  0.00  0.00    +0.000 A 
ATOM     26  C   UNL     1       6.159   3.906  15.764  0.00  0.00    +0.000 A 
ATOM     27  C   UNL     1       5.183   4.083  16.752  0.00  0.00    +0.000 A 
BRANCH  25  28
ATOM     28  O   UNL     1       7.612   4.742  14.129  0.00  0.00    +0.000 OA
BRANCH  28  29
ATOM     29  C   UNL     1       7.278   4.988  12.762  0.00  0.00    +0.000 C 
BRANCH  29  30
ATOM     30  C   UNL     1       6.744   3.723  12.148  0.00  0.00    +0.000 A 
ATOM     31  C   UNL     1       7.614   2.728  11.685  0.00  0.00    +0.000 A 
ATOM     32  C   UNL     1       7.106   1.555  11.128  0.00  0.00    +0.000 A 
ATOM     33  C   UNL     1       5.728   1.370  11.025  0.00  0.00    +0.000 A 
ATOM     34  C   UNL     1       4.854   2.358  11.475  0.00  0.00    +0.000 A 
ATOM     35  C   UNL     1       5.360   3.532  12.031  0.00  0.00    +0.000 A 
ENDBRANCH  29  30
ENDBRANCH  28  29
ENDBRANCH  25  28
ENDBRANCH   4  22
TORSDOF 5
ENDMDL
MODEL 7
REMARK VINA RESULT:      -9.0      3.995      6.587
REMARK  Name = 
REMARK  5 active torsions:
REMARK  status: ('A' for Active; 'I' for Inactive)
REMARK    1  A    between atoms: C_4  and  C_5
REMARK    2  A    between atoms: C_8  and  O_9
REMARK    3  A    between atoms: O_9  and  C_10
REMARK    4  A    between atoms: C_10  and  C_11
REMARK    5  A    between atoms: C_20  and  C_21
REMARK                            x       y       z     vdW  Elec       q    Type
REMARK                         _______ _______ _______ _____ _____    ______ ____
ROOT
ATOM      1  N   UNL     1       1.117  13.505  21.168  0.00  0.00    +0.000 N 
ATOM      2  C   UNL     1       0.425  12.477  20.570  0.00  0.00    +0.000 A 
ATOM      3  N   UNL     1       1.060  11.313  20.420  0.00  0.00    +0.000 NA
ATOM      4  C   UNL     1       0.392  10.290  19.842  0.00  0.00    +0.000 A 
ATOM      5  C   UNL     1      -0.916  10.429  19.428  0.00  0.00    +0.000 A 
ATOM      6  C   UNL     1      -1.474  11.666  19.638  0.00  0.00    +0.000 A 
ATOM      7  N   UNL     1      -0.830  12.708  20.208  0.00  0.00    +0.000 NA
ATOM      8  H   UNL     1       1.869  13.134  21.732  0.00  0.00    +0.000 HD
ATOM      9  H   UNL     1       0.485  14.156  21.612  0.00  0.00    +0.000 HD
ENDROOT
BRANCH   6  10
ATOM     10  C   UNL     1      -2.852  11.961  19.160  0.00  0.00    +0.000 A 
ATOM     11  N   UNL     1      -3.792  12.421  19.928  0.00  0.00    +0.000 NA
ATOM     12  C   UNL     1      -5.061  12.634  19.348  0.00  0.00    +0.000 A 
ATOM     13  C   UNL     1      -6.061  13.259  20.095  0.00  0.00    +0.000 A 
ATOM     14  C   UNL     1      -7.334  13.472  19.548  0.00  0.00    +0.000 A 
ATOM     15  C   UNL     1      -7.626  13.039  18.254  0.00  0.00    +0.000 A 
ATOM     16  C   UNL     1      -6.641  12.412  17.495  0.00  0.00    +0.000 A 
ATOM     17  C   UNL     1      -5.367  12.232  18.043  0.00  0.00    +0.000 A 
ATOM     18  C   UNL     1      -4.284  11.651  17.238  0.00  0.00    +0.000 A 
ATOM     19  O   UNL     1      -4.473  11.158  16.134  0.00  0.00    +0.000 OA
ATOM     20  N   UNL     1      -3.049  11.676  17.829  0.00  0.00    +0.000 N 
ATOM     21  H   UNL     1      -2.272  11.293  17.303  0.00  0.00    +0.000 HD
ENDBRANCH   6  10
BRANCH   4  22
ATOM     22  C   UNL     1       1.158   9.043  19.659  0.00  0.00    +0.000 A 
ATOM     23  C   UNL     1       1.283   8.103  20.694  0.00  0.00    +0.000 A 
ATOM     24  C   UNL     1       1.966   6.900  20.506  0.00  0.00    +0.000 A 
ATOM     25  C   UNL     1       2.526   6.595  19.268  0.00  0.00    +0.000 A 
ATOM     26  C   UNL     1       2.471   7.537  18.245  0.00  0.00    +0.000 A 
ATOM     27  C   UNL     1       1.790   8.746  18.437  0.00  0.00    +0.000 A 
BRANCH  25  28
ATOM     28  O   UNL     1       3.142   5.412  18.964  0.00  0.00    +0.000 OA
BRANCH  28  29
ATOM     29  C   UNL     1       4.536   5.372  19.276  0.00  0.00    +0.000 C 
BRANCH  29  30
ATOM     30  C   UNL     1       5.310   5.012  18.038  0.00  0.00    +0.000 A 
ATOM     31  C   UNL     1       6.708   4.929  18.064  0.00  0.00    +0.000 A 
ATOM     32  C   UNL     1       7.412   4.583  16.912  0.00  0.00    +0.000 A 
ATOM     33  C   UNL     1       6.727   4.324  15.726  0.00  0.00    +0.000 A 
ATOM     34  C   UNL     1       5.337   4.411  15.688  0.00  0.00    +0.000 A 
ATOM     35  C   UNL     1       4.630   4.758  16.837  0.00  0.00    +0.000 A 
ENDBRANCH  29  30
ENDBRANCH  28  29
ENDBRANCH  25  28
ENDBRANCH   4  22
TORSDOF 5
ENDMDL
MODEL 8
REMARK VINA RESULT:      -8.9      3.782      6.287
REMARK  Name = 
REMARK  5 active torsions:
REMARK  status: ('A' for Active; 'I' for Inactive)
REMARK    1  A    between atoms: C_4  and  C_5
REMARK    2  A    between atoms: C_8  and  O_9
REMARK    3  A    between atoms: O_9  and  C_10
REMARK    4  A    between atoms: C_10  and  C_11
REMARK    5  A    between atoms: C_20  and  C_21
REMARK                            x       y       z     vdW  Elec       q    Type
REMARK                         _______ _______ _______ _____ _____    ______ ____
ROOT
ATOM      1  N   UNL     1       1.945  13.600  18.326  0.00  0.00    +0.000 N 
ATOM      2  C   UNL     1       1.111  12.524  18.523  0.00  0.00    +0.000 A 
ATOM      3  N   UNL     1       1.676  11.323  18.658  0.00  0.00    +0.000 NA
ATOM      4  C   UNL     1       0.871  10.256  18.861  0.00  0.00    +0.000 A 
ATOM      5  C   UNL     1      -0.498  10.395  18.945  0.00  0.00    +0.000 A 
ATOM      6  C   UNL     1      -0.971  11.676  18.802  0.00  0.00    +0.000 A 
ATOM      7  N   UNL     1      -0.193  12.760  18.593  0.00  0.00    +0.000 NA
ATOM      8  H   UNL     1       2.871  13.387  18.671  0.00  0.00    +0.000 HD
ATOM      9  H   UNL     1       1.517  14.455  18.651  0.00  0.00    +0.000 HD
ENDROOT
BRANCH   6  10
ATOM     10  C   UNL     1      -2.436  11.941  18.793  0.00  0.00    +0.000 A 
ATOM     11  N   UNL     1      -3.111  12.263  19.853  0.00  0.00    +0.000 NA
ATOM     12  C   UNL     1      -4.501  12.462  19.705  0.00  0.00    +0.000 A 
ATOM     13  C   UNL     1      -5.243  12.947  20.784  0.00  0.00    +0.000 A 
ATOM     14  C   UNL     1      -6.626  13.143  20.668  0.00  0.00    +0.000 A 
ATOM     15  C   UNL     1      -7.285  12.833  19.477  0.00  0.00    +0.000 A 
ATOM     16  C   UNL     1      -6.560  12.347  18.391  0.00  0.00    +0.000 A 
ATOM     17  C   UNL     1      -5.176  12.184  18.511  0.00  0.00    +0.000 A 
ATOM     18  C   UNL     1      -4.373  11.754  17.359  0.00  0.00    +0.000 A 
ATOM     19  O   UNL     1      -4.874  11.370  16.311  0.00  0.00    +0.000 OA
ATOM     20  N   UNL     1      -3.018  11.787  17.556  0.00  0.00    +0.000 N 
ATOM     21  H   UNL     1      -2.427  11.507  16.782  0.00  0.00    +0.000 HD
ENDBRANCH   6  10
BRANCH   4  22
ATOM     22  C   UNL     1       1.547   8.949  18.955  0.00  0.00    +0.000 A 
ATOM     23  C   UNL     1       2.219   8.392  17.855  0.00  0.00    +0.000 A 
ATOM     24  C   UNL     1       2.902   7.178  17.958  0.00  0.00    +0.000 A 
ATOM     25  C   UNL     1       2.947   6.497  19.172  0.00  0.00    +0.000 A 
ATOM     26  C   UNL     1       2.235   6.995  20.259  0.00  0.00    +0.000 A 
ATOM     27  C   UNL     1       1.547   8.210  20.153  0.00  0.00    +0.000 A 
BRANCH  25  28
ATOM     28  O   UNL     1       3.653   5.346  19.391  0.00  0.00    +0.000 OA
BRANCH  28  29
ATOM     29  C   UNL     1       3.569   4.388  18.334  0.00  0.00    +0.000 C 
BRANCH  29  30
ATOM     30  C   UNL     1       4.851   4.404  17.548  0.00  0.00    +0.000 A 
ATOM     31  C   UNL     1       6.069   4.714  18.167  0.00  0.00    +0.000 A 
ATOM     32  C   UNL     1       7.251   4.715  17.428  0.00  0.00    +0.000 A 
ATOM     33  C   UNL     1       7.225   4.412  16.067  0.00  0.00    +0.000 A 
ATOM     34  C   UNL     1       6.017   4.111  15.441  0.00  0.00    +0.000 A 
ATOM     35  C   UNL     1       4.834   4.111  16.176  0.00  0.00    +0.000 A 
ENDBRANCH  29  30
ENDBRANCH  28  29
ENDBRANCH  25  28
ENDBRANCH   4  22
TORSDOF 5
ENDMDL
MODEL 9
REMARK VINA RESULT:      -8.8      4.029      6.540
REMARK  Name = 
REMARK  5 active torsions:
REMARK  status: ('A' for Active; 'I' for Inactive)
REMARK    1  A    between atoms: C_4  and  C_5
REMARK    2  A    between atoms: C_8  and  O_9
REMARK    3  A    between atoms: O_9  and  C_10
REMARK    4  A    between atoms: C_10  and  C_11
REMARK    5  A    between atoms: C_20  and  C_21
REMARK                            x       y       z     vdW  Elec       q    Type
REMARK                         _______ _______ _______ _____ _____    ______ ____
ROOT
ATOM      1  N   UNL     1       0.999  13.521  21.224  0.00  0.00    +0.000 N 
ATOM      2  C   UNL     1       0.331  12.498  20.592  0.00  0.00    +0.000 A 
ATOM      3  N   UNL     1       0.985  11.349  20.419  0.00  0.00    +0.000 NA
ATOM      4  C   UNL     1       0.340  10.331  19.808  0.00  0.00    +0.000 A 
ATOM      5  C   UNL     1      -0.965  10.459  19.383  0.00  0.00    +0.000 A 
ATOM      6  C   UNL     1      -1.545  11.681  19.620  0.00  0.00    +0.000 A 
ATOM      7  N   UNL     1      -0.925  12.719  20.223  0.00  0.00    +0.000 NA
ATOM      8  H   UNL     1       1.751  13.148  21.787  0.00  0.00    +0.000 HD
ATOM      9  H   UNL     1       0.352  14.151  21.678  0.00  0.00    +0.000 HD
ENDROOT
BRANCH   6  10
ATOM     10  C   UNL     1      -2.924  11.967  19.135  0.00  0.00    +0.000 A 
ATOM     11  N   UNL     1      -3.868  12.428  19.896  0.00  0.00    +0.000 NA
ATOM     12  C   UNL     1      -5.136  12.631  19.310  0.00  0.00    +0.000 A 
ATOM     13  C   UNL     1      -6.141  13.258  20.049  0.00  0.00    +0.000 A 
ATOM     14  C   UNL     1      -7.413  13.460  19.496  0.00  0.00    +0.000 A 
ATOM     15  C   UNL     1      -7.699  13.016  18.204  0.00  0.00    +0.000 A 
ATOM     16  C   UNL     1      -6.709  12.388  17.453  0.00  0.00    +0.000 A 
ATOM     17  C   UNL     1      -5.435  12.218  18.007  0.00  0.00    +0.000 A 
ATOM     18  C   UNL     1      -4.347  11.635  17.211  0.00  0.00    +0.000 A 
ATOM     19  O   UNL     1      -4.530  11.132  16.110  0.00  0.00    +0.000 OA
ATOM     20  N   UNL     1      -3.114  11.670  17.806  0.00  0.00    +0.000 N 
ATOM     21  H   UNL     1      -2.334  11.287  17.285  0.00  0.00    +0.000 HD
ENDBRANCH   6  10
BRANCH   4  22
ATOM     22  C   UNL     1       1.128   9.102  19.602  0.00  0.00    +0.000 A 
ATOM     23  C   UNL     1       1.767   8.838  18.379  0.00  0.00    +0.000 A 
ATOM     24  C   UNL     1       2.554   7.699  18.200  0.00  0.00    +0.000 A 
ATOM     25  C   UNL     1       2.740   6.801  19.249  0.00  0.00    +0.000 A 
ATOM     26  C   UNL     1       2.067   7.005  20.449  0.00  0.00    +0.000 A 
ATOM     27  C   UNL     1       1.274   8.146  20.625  0.00  0.00    +0.000 A 
BRANCH  25  28
ATOM     28  O   UNL     1       3.555   5.703  19.194  0.00  0.00    +0.000 OA
BRANCH  28  29
ATOM     29  C   UNL     1       3.400   4.906  18.019  0.00  0.00    +0.000 C 
BRANCH  29  30
ATOM     30  C   UNL     1       4.740   4.731  17.359  0.00  0.00    +0.000 A 
ATOM     31  C   UNL     1       4.833   4.379  16.007  0.00  0.00    +0.000 A 
ATOM     32  C   UNL     1       6.082   4.231  15.405  0.00  0.00    +0.000 A 
ATOM     33  C   UNL     1       7.244   4.428  16.149  0.00  0.00    +0.000 A 
ATOM     34  C   UNL     1       7.161   4.771  17.497  0.00  0.00    +0.000 A 
ATOM     35  C   UNL     1       5.915   4.918  18.102  0.00  0.00    +0.000 A 
ENDBRANCH  29  30
ENDBRANCH  28  29
ENDBRANCH  25  28
ENDBRANCH   4  22
TORSDOF 5
ENDMDL
