MODEL 1
REMARK VINA RESULT:      -6.8      0.000      0.000
REMARK  Name = 
REMARK  8 active torsions:
REMARK  status: ('A' for Active; 'I' for Inactive)
REMARK    1  A    between atoms: C_1  and  C_2
REMARK    2  A    between atoms: C_2  and  C_3
REMARK    3  A    between atoms: C_3  and  C_4
REMARK    4  A    between atoms: C_7  and  C_8
REMARK    5  A    between atoms: C_10  and  C_11
REMARK    6  A    between atoms: C_11  and  N_12
REMARK    7  A    between atoms: C_18  and  C_19
REMARK    8  A    between atoms: N_20  and  C_21
REMARK                            x       y       z     vdW  Elec       q    Type
REMARK                         _______ _______ _______ _____ _____    ______ ____
ROOT
ATOM      1  C   UNL     1      -0.249  10.680  20.398  0.00  0.00    +0.000 A 
ATOM      2  C   UNL     1      -0.130  11.167  21.691  0.00  0.00    +0.000 A 
ATOM      3  C   UNL     1      -1.108  12.163  21.919  0.00  0.00    +0.000 A 
ATOM      4  C   UNL     1      -1.865  12.247  20.756  0.00  0.00    +0.000 A 
ATOM      5  C   UNL     1      -3.075  13.100  20.546  0.00  0.00    +0.000 C 
ATOM      6  N   UNL     1      -1.372  11.313  19.828  0.00  0.00    +0.000 N 
ENDROOT
BRANCH   6   7
ATOM      7  C   UNL     1      -1.968  11.007  18.556  0.00  0.00    +0.000 A 
ATOM      8  C   UNL     1      -1.797  11.865  17.458  0.00  0.00    +0.000 A 
ATOM      9  C   UNL     1      -2.370  11.557  16.218  0.00  0.00    +0.000 A 
ATOM     10  C   UNL     1      -3.085  10.375  16.055  0.00  0.00    +0.000 A 
ATOM     11 CL   UNL     1      -3.756   9.986  14.521  0.00  0.00    +0.000 Cl
ATOM     12  C   UNL     1      -3.252   9.504  17.129  0.00  0.00    +0.000 A 
ATOM     13  C   UNL     1      -2.719   9.830  18.386  0.00  0.00    +0.000 A 
ENDBRANCH   6   7
BRANCH   1  17
ATOM     14  C   UNL     1       2.396   7.801  18.554  0.00  0.00    +0.000 A 
ATOM     15  C   UNL     1       1.988   7.658  19.883  0.00  0.00    +0.000 A 
ATOM     16  C   UNL     1       1.129   8.593  20.470  0.00  0.00    +0.000 A 
ATOM     17  C   UNL     1       0.682   9.720  19.757  0.00  0.00    +0.000 A 
ATOM     18  C   UNL     1       1.174   9.902  18.459  0.00  0.00    +0.000 A 
ATOM     19  C   UNL     1       1.982   8.937  17.849  0.00  0.00    +0.000 A 
BRANCH  14  20
ATOM     20  C   UNL     1       3.315   6.796  17.903  0.00  0.00    +0.000 C 
BRANCH  20  22
ATOM     21  C   UNL     1       2.327   4.486  17.765  0.00  0.00    +0.000 C 
ATOM     22  C   UNL     1       3.256   5.406  18.543  0.00  0.00    +0.000 C 
ENDBRANCH  20  22
ENDBRANCH  14  20
ENDBRANCH   1  17
BRANCH   3  23
ATOM     23  C   UNL     1      -1.302  12.909  23.211  0.00  0.00    +0.000 C 
BRANCH  23  24
ATOM     24  N   UNL     1      -1.141  14.370  23.032  0.00  0.00    +0.000 NA
ATOM     25  C   UNL     1       0.175  14.671  22.421  0.00  0.00    +0.000 C 
ATOM     26  C   UNL     1       0.522  16.154  22.261  0.00  0.00    +0.000 C 
ATOM     27  S   UNL     1       0.563  17.019  23.854  0.00  0.00    +0.000 S 
ATOM     28  C   UNL     1      -1.102  16.538  24.384  0.00  0.00    +0.000 C 
ATOM     29  C   UNL     1      -1.289  15.016  24.357  0.00  0.00    +0.000 C 
ENDBRANCH  23  24
ENDBRANCH   3  23
TORSDOF 6
ENDMDL
MODEL 2
REMARK VINA RESULT:      -6.7      3.337      4.641
REMARK  Name = 
REMARK  8 active torsions:
REMARK  status: ('A' for Active; 'I' for Inactive)
REMARK    1  A    between atoms: C_1  and  C_2
REMARK    2  A    between atoms: C_2  and  C_3
REMARK    3  A    between atoms: C_3  and  C_4
REMARK    4  A    between atoms: C_7  and  C_8
REMARK    5  A    between atoms: C_10  and  C_11
REMARK    6  A    between atoms: C_11  and  N_12
REMARK    7  A    between atoms: C_18  and  C_19
REMARK    8  A    between atoms: N_20  and  C_21
REMARK                            x       y       z     vdW  Elec       q    Type
REMARK                         _______ _______ _______ _____ _____    ______ ____
ROOT
ATOM      1  C   UNL     1      -0.174  11.407  21.240  0.00  0.00    +0.000 A 
ATOM      2  C   UNL     1      -1.220  11.179  22.121  0.00  0.00    +0.000 A 
ATOM      3  C   UNL     1      -1.507  12.362  22.840  0.00  0.00    +0.000 A 
ATOM      4  C   UNL     1      -0.647  13.339  22.353  0.00  0.00    +0.000 A 
ATOM      5  C   UNL     1      -0.633  14.782  22.743  0.00  0.00    +0.000 C 
ATOM      6  N   UNL     1       0.151  12.775  21.341  0.00  0.00    +0.000 N 
ENDROOT
BRANCH   6   7
ATOM      7  C   UNL     1       1.072  13.497  20.506  0.00  0.00    +0.000 A 
ATOM      8  C   UNL     1       2.447  13.502  20.791  0.00  0.00    +0.000 A 
ATOM      9  C   UNL     1       3.341  14.196  19.967  0.00  0.00    +0.000 A 
ATOM     10  C   UNL     1       2.877  14.859  18.836  0.00  0.00    +0.000 A 
ATOM     11 CL   UNL     1       3.985  15.681  17.811  0.00  0.00    +0.000 Cl
ATOM     12  C   UNL     1       1.519  14.852  18.529  0.00  0.00    +0.000 A 
ATOM     13  C   UNL     1       0.611  14.197  19.376  0.00  0.00    +0.000 A 
ENDBRANCH   6   7
BRANCH   1  17
ATOM     14  C   UNL     1       1.820   8.463  18.782  0.00  0.00    +0.000 A 
ATOM     15  C   UNL     1       1.250   9.607  18.217  0.00  0.00    +0.000 A 
ATOM     16  C   UNL     1       0.610  10.556  19.023  0.00  0.00    +0.000 A 
ATOM     17  C   UNL     1       0.488  10.371  20.411  0.00  0.00    +0.000 A 
ATOM     18  C   UNL     1       0.978   9.176  20.950  0.00  0.00    +0.000 A 
ATOM     19  C   UNL     1       1.673   8.255  20.158  0.00  0.00    +0.000 A 
BRANCH  14  20
ATOM     20  C   UNL     1       2.522   7.434  17.929  0.00  0.00    +0.000 C 
BRANCH  20  22
ATOM     21  C   UNL     1       2.132   4.956  18.127  0.00  0.00    +0.000 C 
ATOM     22  C   UNL     1       2.886   6.153  18.686  0.00  0.00    +0.000 C 
ENDBRANCH  20  22
ENDBRANCH  14  20
ENDBRANCH   1  17
BRANCH   3  23
ATOM     23  C   UNL     1      -2.591  12.509  23.873  0.00  0.00    +0.000 C 
BRANCH  23  24
ATOM     24  N   UNL     1      -3.937  12.313  23.288  0.00  0.00    +0.000 NA
ATOM     25  C   UNL     1      -4.078  13.110  22.047  0.00  0.00    +0.000 C 
ATOM     26  C   UNL     1      -5.456  13.081  21.379  0.00  0.00    +0.000 C 
ATOM     27  S   UNL     1      -6.755  13.724  22.470  0.00  0.00    +0.000 S 
ATOM     28  C   UNL     1      -6.409  12.619  23.863  0.00  0.00    +0.000 C 
ATOM     29  C   UNL     1      -4.942  12.704  24.305  0.00  0.00    +0.000 C 
ENDBRANCH  23  24
ENDBRANCH   3  23
TORSDOF 6
ENDMDL
MODEL 3
REMARK VINA RESULT:      -6.7      0.344      1.387
REMARK  Name = 
REMARK  8 active torsions:
REMARK  status: ('A' for Active; 'I' for Inactive)
REMARK    1  A    between atoms: C_1  and  C_2
REMARK    2  A    between atoms: C_2  and  C_3
REMARK    3  A    between atoms: C_3  and  C_4
REMARK    4  A    between atoms: C_7  and  C_8
REMARK    5  A    between atoms: C_10  and  C_11
REMARK    6  A    between atoms: C_11  and  N_12
REMARK    7  A    between atoms: C_18  and  C_19
REMARK    8  A    between atoms: N_20  and  C_21
REMARK                            x       y       z     vdW  Elec       q    Type
REMARK                         _______ _______ _______ _____ _____    ______ ____
ROOT
ATOM      1  C   UNL     1      -0.220  10.606  20.345  0.00  0.00    +0.000 A 
ATOM      2  C   UNL     1      -0.100  11.106  21.633  0.00  0.00    +0.000 A 
ATOM      3  C   UNL     1      -1.071  12.111  21.848  0.00  0.00    +0.000 A 
ATOM      4  C   UNL     1      -1.825  12.189  20.683  0.00  0.00    +0.000 A 
ATOM      5  C   UNL     1      -3.029  13.048  20.462  0.00  0.00    +0.000 C 
ATOM      6  N   UNL     1      -1.337  11.241  19.765  0.00  0.00    +0.000 N 
ENDROOT
BRANCH   6   7
ATOM      7  C   UNL     1      -1.933  10.927  18.495  0.00  0.00    +0.000 A 
ATOM      8  C   UNL     1      -2.674   9.747  18.322  0.00  0.00    +0.000 A 
ATOM      9  C   UNL     1      -3.263   9.452  17.086  0.00  0.00    +0.000 A 
ATOM     10  C   UNL     1      -3.148  10.347  16.027  0.00  0.00    +0.000 A 
ATOM     11 CL   UNL     1      -3.902   9.994  14.524  0.00  0.00    +0.000 Cl
ATOM     12  C   UNL     1      -2.430  11.529  16.186  0.00  0.00    +0.000 A 
ATOM     13  C   UNL     1      -1.799  11.809  17.407  0.00  0.00    +0.000 A 
ENDBRANCH   6   7
BRANCH   1  17
ATOM     14  C   UNL     1       2.541   7.849  18.484  0.00  0.00    +0.000 A 
ATOM     15  C   UNL     1       2.024   8.940  17.778  0.00  0.00    +0.000 A 
ATOM     16  C   UNL     1       1.134   9.829  18.391  0.00  0.00    +0.000 A 
ATOM     17  C   UNL     1       0.705   9.633  19.715  0.00  0.00    +0.000 A 
ATOM     18  C   UNL     1       1.154   8.485  20.379  0.00  0.00    +0.000 A 
ATOM     19  C   UNL     1       2.093   7.630  19.791  0.00  0.00    +0.000 A 
BRANCH  14  20
ATOM     20  C   UNL     1       3.510   6.887  17.841  0.00  0.00    +0.000 C 
BRANCH  20  22
ATOM     21  C   UNL     1       4.837   5.250  19.216  0.00  0.00    +0.000 C 
ATOM     22  C   UNL     1       3.523   5.501  18.492  0.00  0.00    +0.000 C 
ENDBRANCH  20  22
ENDBRANCH  14  20
ENDBRANCH   1  17
BRANCH   3  23
ATOM     23  C   UNL     1      -1.263  12.872  23.132  0.00  0.00    +0.000 C 
BRANCH  23  24
ATOM     24  N   UNL     1      -1.109  14.331  22.935  0.00  0.00    +0.000 NA
ATOM     25  C   UNL     1       0.223  14.634  22.359  0.00  0.00    +0.000 C 
ATOM     26  C   UNL     1       0.562  16.117  22.186  0.00  0.00    +0.000 C 
ATOM     27  S   UNL     1       0.548  17.007  23.766  0.00  0.00    +0.000 S 
ATOM     28  C   UNL     1      -1.128  16.520  24.254  0.00  0.00    +0.000 C 
ATOM     29  C   UNL     1      -1.302  14.996  24.245  0.00  0.00    +0.000 C 
ENDBRANCH  23  24
ENDBRANCH   3  23
TORSDOF 6
ENDMDL
MODEL 4
REMARK VINA RESULT:      -6.6      3.417      4.666
REMARK  Name = 
REMARK  8 active torsions:
REMARK  status: ('A' for Active; 'I' for Inactive)
REMARK    1  A    between atoms: C_1  and  C_2
REMARK    2  A    between atoms: C_2  and  C_3
REMARK    3  A    between atoms: C_3  and  C_4
REMARK    4  A    between atoms: C_7  and  C_8
REMARK    5  A    between atoms: C_10  and  C_11
REMARK    6  A    between atoms: C_11  and  N_12
REMARK    7  A    between atoms: C_18  and  C_19
REMARK    8  A    between atoms: N_20  and  C_21
REMARK                            x       y       z     vdW  Elec       q    Type
REMARK                         _______ _______ _______ _____ _____    ______ ____
ROOT
ATOM      1  C   UNL     1      -0.402  11.145  19.464  0.00  0.00    +0.000 A 
ATOM      2  C   UNL     1      -1.787  11.072  19.461  0.00  0.00    +0.000 A 
ATOM      3  C   UNL     1      -2.334  12.348  19.728  0.00  0.00    +0.000 A 
ATOM      4  C   UNL     1      -1.260  13.222  19.849  0.00  0.00    +0.000 A 
ATOM      5  C   UNL     1      -1.338  14.702  20.044  0.00  0.00    +0.000 C 
ATOM      6  N   UNL     1      -0.068  12.502  19.650  0.00  0.00    +0.000 N 
ENDROOT
BRANCH   6   7
ATOM      7  C   UNL     1       1.249  13.075  19.569  0.00  0.00    +0.000 A 
ATOM      8  C   UNL     1       1.822  13.381  18.324  0.00  0.00    +0.000 A 
ATOM      9  C   UNL     1       3.100  13.950  18.252  0.00  0.00    +0.000 A 
ATOM     10  C   UNL     1       3.797  14.252  19.417  0.00  0.00    +0.000 A 
ATOM     11 CL   UNL     1       5.350  14.982  19.321  0.00  0.00    +0.000 Cl
ATOM     12  C   UNL     1       3.236  13.970  20.660  0.00  0.00    +0.000 A 
ATOM     13  C   UNL     1       1.976  13.357  20.739  0.00  0.00    +0.000 A 
ENDBRANCH   6   7
BRANCH   1  17
ATOM     14  C   UNL     1       2.201   7.707  19.175  0.00  0.00    +0.000 A 
ATOM     15  C   UNL     1       1.659   8.099  20.402  0.00  0.00    +0.000 A 
ATOM     16  C   UNL     1       0.814   9.212  20.484  0.00  0.00    +0.000 A 
ATOM     17  C   UNL     1       0.517   9.987  19.349  0.00  0.00    +0.000 A 
ATOM     18  C   UNL     1       1.142   9.639  18.146  0.00  0.00    +0.000 A 
ATOM     19  C   UNL     1       1.936   8.491  18.048  0.00  0.00    +0.000 A 
BRANCH  14  20
ATOM     20  C   UNL     1       3.106   6.503  19.067  0.00  0.00    +0.000 C 
BRANCH  20  22
ATOM     21  C   UNL     1       1.922   4.603  17.918  0.00  0.00    +0.000 C 
ATOM     22  C   UNL     1       2.939   5.724  17.760  0.00  0.00    +0.000 C 
ENDBRANCH  20  22
ENDBRANCH  14  20
ENDBRANCH   1  17
BRANCH   3  23
ATOM     23  C   UNL     1      -3.803  12.667  19.787  0.00  0.00    +0.000 C 
BRANCH  23  24
ATOM     24  N   UNL     1      -4.174  13.315  21.067  0.00  0.00    +0.000 NA
ATOM     25  C   UNL     1      -3.669  12.519  22.210  0.00  0.00    +0.000 C 
ATOM     26  C   UNL     1      -4.059  13.019  23.604  0.00  0.00    +0.000 C 
ATOM     27  S   UNL     1      -5.857  13.045  23.840  0.00  0.00    +0.000 S 
ATOM     28  C   UNL     1      -6.233  14.058  22.385  0.00  0.00    +0.000 C 
ATOM     29  C   UNL     1      -5.649  13.450  21.104  0.00  0.00    +0.000 C 
ENDBRANCH  23  24
ENDBRANCH   3  23
TORSDOF 6
ENDMDL
MODEL 5
REMARK VINA RESULT:      -6.6      0.662      1.114
REMARK  Name = 
REMARK  8 active torsions:
REMARK  status: ('A' for Active; 'I' for Inactive)
REMARK    1  A    between atoms: C_1  and  C_2
REMARK    2  A    between atoms: C_2  and  C_3
REMARK    3  A    between atoms: C_3  and  C_4
REMARK    4  A    between atoms: C_7  and  C_8
REMARK    5  A    between atoms: C_10  and  C_11
REMARK    6  A    between atoms: C_11  and  N_12
REMARK    7  A    between atoms: C_18  and  C_19
REMARK    8  A    between atoms: N_20  and  C_21
REMARK                            x       y       z     vdW  Elec       q    Type
REMARK                         _______ _______ _______ _____ _____    ______ ____
ROOT
ATOM      1  C   UNL     1      -0.237  10.718  20.432  0.00  0.00    +0.000 A 
ATOM      2  C   UNL     1      -0.101  11.236  21.711  0.00  0.00    +0.000 A 
ATOM      3  C   UNL     1      -1.051  12.263  21.916  0.00  0.00    +0.000 A 
ATOM      4  C   UNL     1      -1.810  12.337  20.754  0.00  0.00    +0.000 A 
ATOM      5  C   UNL     1      -2.998  13.216  20.526  0.00  0.00    +0.000 C 
ATOM      6  N   UNL     1      -1.345  11.366  19.848  0.00  0.00    +0.000 N 
ENDROOT
BRANCH   6   7
ATOM      7  C   UNL     1      -1.954  11.044  18.586  0.00  0.00    +0.000 A 
ATOM      8  C   UNL     1      -1.788  11.885  17.474  0.00  0.00    +0.000 A 
ATOM      9  C   UNL     1      -2.373  11.560  16.244  0.00  0.00    +0.000 A 
ATOM     10  C   UNL     1      -3.096  10.379  16.105  0.00  0.00    +0.000 A 
ATOM     11 CL   UNL     1      -3.783   9.970  14.584  0.00  0.00    +0.000 Cl
ATOM     12  C   UNL     1      -3.258   9.526  17.194  0.00  0.00    +0.000 A 
ATOM     13  C   UNL     1      -2.713   9.868  18.441  0.00  0.00    +0.000 A 
ENDBRANCH   6   7
BRANCH   1  17
ATOM     14  C   UNL     1       2.325   7.724  18.657  0.00  0.00    +0.000 A 
ATOM     15  C   UNL     1       1.951   7.648  20.002  0.00  0.00    +0.000 A 
ATOM     16  C   UNL     1       1.118   8.621  20.566  0.00  0.00    +0.000 A 
ATOM     17  C   UNL     1       0.665   9.718  19.812  0.00  0.00    +0.000 A 
ATOM     18  C   UNL     1       1.124   9.833  18.495  0.00  0.00    +0.000 A 
ATOM     19  C   UNL     1       1.905   8.830  17.910  0.00  0.00    +0.000 A 
BRANCH  14  20
ATOM     20  C   UNL     1       3.215   6.678  18.031  0.00  0.00    +0.000 C 
BRANCH  20  22
ATOM     21  C   UNL     1       2.099   4.448  17.691  0.00  0.00    +0.000 C 
ATOM     22  C   UNL     1       3.002   5.271  18.597  0.00  0.00    +0.000 C 
ENDBRANCH  20  22
ENDBRANCH  14  20
ENDBRANCH   1  17
BRANCH   3  23
ATOM     23  C   UNL     1      -1.221  13.046  23.189  0.00  0.00    +0.000 C 
BRANCH  23  24
ATOM     24  N   UNL     1      -0.499  14.339  23.140  0.00  0.00    +0.000 NA
ATOM     25  C   UNL     1      -1.462  15.462  23.065  0.00  0.00    +0.000 C 
ATOM     26  C   UNL     1      -0.856  16.861  22.913  0.00  0.00    +0.000 C 
ATOM     27  S   UNL     1       0.127  17.016  21.396  0.00  0.00    +0.000 S 
ATOM     28  C   UNL     1       1.209  15.598  21.716  0.00  0.00    +0.000 C 
ATOM     29  C   UNL     1       0.406  14.315  21.966  0.00  0.00    +0.000 C 
ENDBRANCH  23  24
ENDBRANCH   3  23
TORSDOF 6
ENDMDL
MODEL 6
REMARK VINA RESULT:      -6.6      0.713      1.697
REMARK  Name = 
REMARK  8 active torsions:
REMARK  status: ('A' for Active; 'I' for Inactive)
REMARK    1  A    between atoms: C_1  and  C_2
REMARK    2  A    between atoms: C_2  and  C_3
REMARK    3  A    between atoms: C_3  and  C_4
REMARK    4  A    between atoms: C_7  and  C_8
REMARK    5  A    between atoms: C_10  and  C_11
REMARK    6  A    between atoms: C_11  and  N_12
REMARK    7  A    between atoms: C_18  and  C_19
REMARK    8  A    between atoms: N_20  and  C_21
REMARK                            x       y       z     vdW  Elec       q    Type
REMARK                         _______ _______ _______ _____ _____    ______ ____
ROOT
ATOM      1  C   UNL     1      -0.215  10.635  20.386  0.00  0.00    +0.000 A 
ATOM      2  C   UNL     1      -0.078  11.159  21.663  0.00  0.00    +0.000 A 
ATOM      3  C   UNL     1      -1.019  12.197  21.858  0.00  0.00    +0.000 A 
ATOM      4  C   UNL     1      -1.773  12.271  20.693  0.00  0.00    +0.000 A 
ATOM      5  C   UNL     1      -2.951  13.161  20.454  0.00  0.00    +0.000 C 
ATOM      6  N   UNL     1      -1.314  11.291  19.794  0.00  0.00    +0.000 N 
ENDROOT
BRANCH   6   7
ATOM      7  C   UNL     1      -1.922  10.967  18.532  0.00  0.00    +0.000 A 
ATOM      8  C   UNL     1      -2.694   9.804  18.385  0.00  0.00    +0.000 A 
ATOM      9  C   UNL     1      -3.294   9.499  17.157  0.00  0.00    +0.000 A 
ATOM     10  C   UNL     1      -3.159  10.369  16.080  0.00  0.00    +0.000 A 
ATOM     11 CL   UNL     1      -3.926  10.006  14.585  0.00  0.00    +0.000 Cl
ATOM     12  C   UNL     1      -2.409  11.535  16.213  0.00  0.00    +0.000 A 
ATOM     13  C   UNL     1      -1.767  11.823  17.427  0.00  0.00    +0.000 A 
ENDBRANCH   6   7
BRANCH   1  17
ATOM     14  C   UNL     1       2.458   7.760  18.580  0.00  0.00    +0.000 A 
ATOM     15  C   UNL     1       1.955   8.837  17.845  0.00  0.00    +0.000 A 
ATOM     16  C   UNL     1       1.093   9.765  18.441  0.00  0.00    +0.000 A 
ATOM     17  C   UNL     1       0.679   9.622  19.777  0.00  0.00    +0.000 A 
ATOM     18  C   UNL     1       1.114   8.487  20.472  0.00  0.00    +0.000 A 
ATOM     19  C   UNL     1       2.025   7.593  19.899  0.00  0.00    +0.000 A 
BRANCH  14  20
ATOM     20  C   UNL     1       3.397   6.756  17.955  0.00  0.00    +0.000 C 
BRANCH  20  22
ATOM     21  C   UNL     1       2.148   4.576  17.815  0.00  0.00    +0.000 C 
ATOM     22  C   UNL     1       3.253   5.342  18.526  0.00  0.00    +0.000 C 
ENDBRANCH  20  22
ENDBRANCH  14  20
ENDBRANCH   1  17
BRANCH   3  23
ATOM     23  C   UNL     1      -1.186  12.990  23.126  0.00  0.00    +0.000 C 
BRANCH  23  24
ATOM     24  N   UNL     1      -0.454  14.277  23.069  0.00  0.00    +0.000 NA
ATOM     25  C   UNL     1      -1.405  15.401  22.899  0.00  0.00    +0.000 C 
ATOM     26  C   UNL     1      -0.783  16.790  22.730  0.00  0.00    +0.000 C 
ATOM     27  S   UNL     1       0.283  16.885  21.266  0.00  0.00    +0.000 S 
ATOM     28  C   UNL     1       1.337  15.476  21.697  0.00  0.00    +0.000 C 
ATOM     29  C   UNL     1       0.514  14.206  21.950  0.00  0.00    +0.000 C 
ENDBRANCH  23  24
ENDBRANCH   3  23
TORSDOF 6
ENDMDL
MODEL 7
REMARK VINA RESULT:      -6.5      3.326      4.546
REMARK  Name = 
REMARK  8 active torsions:
REMARK  status: ('A' for Active; 'I' for Inactive)
REMARK    1  A    between atoms: C_1  and  C_2
REMARK    2  A    between atoms: C_2  and  C_3
REMARK    3  A    between atoms: C_3  and  C_4
REMARK    4  A    between atoms: C_7  and  C_8
REMARK    5  A    between atoms: C_10  and  C_11
REMARK    6  A    between atoms: C_11  and  N_12
REMARK    7  A    between atoms: C_18  and  C_19
REMARK    8  A    between atoms: N_20  and  C_21
REMARK                            x       y       z     vdW  Elec       q    Type
REMARK                         _______ _______ _______ _____ _____    ______ ____
ROOT
ATOM      1  C   UNL     1      -0.100  11.326  21.231  0.00  0.00    +0.000 A 
ATOM      2  C   UNL     1      -1.161  11.081  22.089  0.00  0.00    +0.000 A 
ATOM      3  C   UNL     1      -1.479  12.258  22.804  0.00  0.00    +0.000 A 
ATOM      4  C   UNL     1      -0.625  13.249  22.336  0.00  0.00    +0.000 A 
ATOM      5  C   UNL     1      -0.640  14.692  22.728  0.00  0.00    +0.000 C 
ATOM      6  N   UNL     1       0.202  12.698  21.340  0.00  0.00    +0.000 N 
ENDROOT
BRANCH   6   7
ATOM      7  C   UNL     1       1.130  13.435  20.525  0.00  0.00    +0.000 A 
ATOM      8  C   UNL     1       0.691  14.130  19.387  0.00  0.00    +0.000 A 
ATOM      9  C   UNL     1       1.597  14.856  18.604  0.00  0.00    +0.000 A 
ATOM     10  C   UNL     1       2.937  14.924  18.970  0.00  0.00    +0.000 A 
ATOM     11 CL   UNL     1       4.036  15.845  18.023  0.00  0.00    +0.000 Cl
ATOM     12  C   UNL     1       3.387  14.254  20.105  0.00  0.00    +0.000 A 
ATOM     13  C   UNL     1       2.494  13.487  20.868  0.00  0.00    +0.000 A 
ENDBRANCH   6   7
BRANCH   1  17
ATOM     14  C   UNL     1       1.857   8.265  18.888  0.00  0.00    +0.000 A 
ATOM     15  C   UNL     1       1.718   8.135  20.273  0.00  0.00    +0.000 A 
ATOM     16  C   UNL     1       1.079   9.130  21.022  0.00  0.00    +0.000 A 
ATOM     17  C   UNL     1       0.594  10.301  20.414  0.00  0.00    +0.000 A 
ATOM     18  C   UNL     1       0.825  10.462  19.042  0.00  0.00    +0.000 A 
ATOM     19  C   UNL     1       1.406   9.442  18.281  0.00  0.00    +0.000 A 
BRANCH  14  20
ATOM     20  C   UNL     1       2.533   7.196  18.065  0.00  0.00    +0.000 C 
BRANCH  20  22
ATOM     21  C   UNL     1       3.057   4.753  17.759  0.00  0.00    +0.000 C 
ATOM     22  C   UNL     1       2.446   5.797  18.682  0.00  0.00    +0.000 C 
ENDBRANCH  20  22
ENDBRANCH  14  20
ENDBRANCH   1  17
BRANCH   3  23
ATOM     23  C   UNL     1      -2.587  12.387  23.815  0.00  0.00    +0.000 C 
BRANCH  23  24
ATOM     24  N   UNL     1      -3.922  12.302  23.181  0.00  0.00    +0.000 NA
ATOM     25  C   UNL     1      -3.980  13.177  21.986  0.00  0.00    +0.000 C 
ATOM     26  C   UNL     1      -5.336  13.264  21.279  0.00  0.00    +0.000 C 
ATOM     27  S   UNL     1      -6.632  13.912  22.369  0.00  0.00    +0.000 S 
ATOM     28  C   UNL     1      -6.390  12.709  23.702  0.00  0.00    +0.000 C 
ATOM     29  C   UNL     1      -4.936  12.687  24.190  0.00  0.00    +0.000 C 
ENDBRANCH  23  24
ENDBRANCH   3  23
TORSDOF 6
ENDMDL
MODEL 8
REMARK VINA RESULT:      -6.5      0.397      1.340
REMARK  Name = 
REMARK  8 active torsions:
REMARK  status: ('A' for Active; 'I' for Inactive)
REMARK    1  A    between atoms: C_1  and  C_2
REMARK    2  A    between atoms: C_2  and  C_3
REMARK    3  A    between atoms: C_3  and  C_4
REMARK    4  A    between atoms: C_7  and  C_8
REMARK    5  A    between atoms: C_10  and  C_11
REMARK    6  A    between atoms: C_11  and  N_12
REMARK    7  A    between atoms: C_18  and  C_19
REMARK    8  A    between atoms: N_20  and  C_21
REMARK                            x       y       z     vdW  Elec       q    Type
REMARK                         _______ _______ _______ _____ _____    ______ ____
ROOT
ATOM      1  C   UNL     1      -0.493  10.744  20.413  0.00  0.00    +0.000 A 
ATOM      2  C   UNL     1      -0.417  11.250  21.701  0.00  0.00    +0.000 A 
ATOM      3  C   UNL     1      -1.401  12.250  21.881  0.00  0.00    +0.000 A 
ATOM      4  C   UNL     1      -2.118  12.317  20.693  0.00  0.00    +0.000 A 
ATOM      5  C   UNL     1      -3.320  13.167  20.429  0.00  0.00    +0.000 C 
ATOM      6  N   UNL     1      -1.595  11.369  19.795  0.00  0.00    +0.000 N 
ENDROOT
BRANCH   6   7
ATOM      7  C   UNL     1      -2.149  11.044  18.508  0.00  0.00    +0.000 A 
ATOM      8  C   UNL     1      -1.920  11.874  17.399  0.00  0.00    +0.000 A 
ATOM      9  C   UNL     1      -2.451  11.547  16.145  0.00  0.00    +0.000 A 
ATOM     10  C   UNL     1      -3.182  10.375  15.981  0.00  0.00    +0.000 A 
ATOM     11 CL   UNL     1      -3.802   9.962  14.432  0.00  0.00    +0.000 Cl
ATOM     12  C   UNL     1      -3.405   9.532  17.068  0.00  0.00    +0.000 A 
ATOM     13  C   UNL     1      -2.915   9.877  18.336  0.00  0.00    +0.000 A 
ENDBRANCH   6   7
BRANCH   1  17
ATOM     14  C   UNL     1       2.340   7.998  18.645  0.00  0.00    +0.000 A 
ATOM     15  C   UNL     1       1.763   9.024  17.891  0.00  0.00    +0.000 A 
ATOM     16  C   UNL     1       0.850   9.910  18.474  0.00  0.00    +0.000 A 
ATOM     17  C   UNL     1       0.458   9.774  19.817  0.00  0.00    +0.000 A 
ATOM     18  C   UNL     1       0.969   8.685  20.534  0.00  0.00    +0.000 A 
ATOM     19  C   UNL     1       1.930   7.836  19.973  0.00  0.00    +0.000 A 
BRANCH  14  20
ATOM     20  C   UNL     1       3.334   7.040  18.035  0.00  0.00    +0.000 C 
BRANCH  20  22
ATOM     21  C   UNL     1       2.358   4.725  17.885  0.00  0.00    +0.000 C 
ATOM     22  C   UNL     1       3.298   5.640  18.654  0.00  0.00    +0.000 C 
ENDBRANCH  20  22
ENDBRANCH  14  20
ENDBRANCH   1  17
BRANCH   3  23
ATOM     23  C   UNL     1      -1.639  13.015  23.155  0.00  0.00    +0.000 C 
BRANCH  23  24
ATOM     24  N   UNL     1      -0.678  14.131  23.312  0.00  0.00    +0.000 NA
ATOM     25  C   UNL     1      -1.140  15.061  24.370  0.00  0.00    +0.000 C 
ATOM     26  C   UNL     1      -0.292  16.319  24.580  0.00  0.00    +0.000 C 
ATOM     27  S   UNL     1      -0.215  17.346  23.088  0.00  0.00    +0.000 S 
ATOM     28  C   UNL     1       0.374  16.040  21.978  0.00  0.00    +0.000 C 
ATOM     29  C   UNL     1      -0.547  14.814  22.004  0.00  0.00    +0.000 C 
ENDBRANCH  23  24
ENDBRANCH   3  23
TORSDOF 6
ENDMDL
MODEL 9
REMARK VINA RESULT:      -6.5      0.571      1.441
REMARK  Name = 
REMARK  8 active torsions:
REMARK  status: ('A' for Active; 'I' for Inactive)
REMARK    1  A    between atoms: C_1  and  C_2
REMARK    2  A    between atoms: C_2  and  C_3
REMARK    3  A    between atoms: C_3  and  C_4
REMARK    4  A    between atoms: C_7  and  C_8
REMARK    5  A    between atoms: C_10  and  C_11
REMARK    6  A    between atoms: C_11  and  N_12
REMARK    7  A    between atoms: C_18  and  C_19
REMARK    8  A    between atoms: N_20  and  C_21
REMARK                            x       y       z     vdW  Elec       q    Type
REMARK                         _______ _______ _______ _____ _____    ______ ____
ROOT
ATOM      1  C   UNL     1      -0.267  10.510  20.337  0.00  0.00    +0.000 A 
ATOM      2  C   UNL     1      -0.205  10.963  21.646  0.00  0.00    +0.000 A 
ATOM      3  C   UNL     1      -1.215  11.928  21.866  0.00  0.00    +0.000 A 
ATOM      4  C   UNL     1      -1.933  12.026  20.681  0.00  0.00    +0.000 A 
ATOM      5  C   UNL     1      -3.157  12.855  20.451  0.00  0.00    +0.000 C 
ATOM      6  N   UNL     1      -1.385  11.131  19.744  0.00  0.00    +0.000 N 
ENDROOT
BRANCH   6   7
ATOM      7  C   UNL     1      -1.929  10.847  18.444  0.00  0.00    +0.000 A 
ATOM      8  C   UNL     1      -2.624   9.651  18.203  0.00  0.00    +0.000 A 
ATOM      9  C   UNL     1      -3.162   9.385  16.938  0.00  0.00    +0.000 A 
ATOM     10  C   UNL     1      -3.045  10.323  15.918  0.00  0.00    +0.000 A 
ATOM     11 CL   UNL     1      -3.738  10.005  14.378  0.00  0.00    +0.000 Cl
ATOM     12  C   UNL     1      -2.372  11.522  16.145  0.00  0.00    +0.000 A 
ATOM     13  C   UNL     1      -1.791  11.775  17.396  0.00  0.00    +0.000 A 
ENDBRANCH   6   7
BRANCH   1  17
ATOM     14  C   UNL     1       2.512   7.750  18.508  0.00  0.00    +0.000 A 
ATOM     15  C   UNL     1       2.055   7.553  19.814  0.00  0.00    +0.000 A 
ATOM     16  C   UNL     1       1.152   8.451  20.396  0.00  0.00    +0.000 A 
ATOM     17  C   UNL     1       0.709   9.591  19.703  0.00  0.00    +0.000 A 
ATOM     18  C   UNL     1       1.248   9.827  18.432  0.00  0.00    +0.000 A 
ATOM     19  C   UNL     1       2.101   8.899  17.825  0.00  0.00    +0.000 A 
BRANCH  14  20
ATOM     20  C   UNL     1       3.478   6.786  17.863  0.00  0.00    +0.000 C 
BRANCH  20  22
ATOM     21  C   UNL     1       4.639   4.555  17.956  0.00  0.00    +0.000 C 
ATOM     22  C   UNL     1       3.776   5.551  18.717  0.00  0.00    +0.000 C 
ENDBRANCH  20  22
ENDBRANCH  14  20
ENDBRANCH   1  17
BRANCH   3  23
ATOM     23  C   UNL     1      -1.473  12.632  23.171  0.00  0.00    +0.000 C 
BRANCH  23  24
ATOM     24  N   UNL     1      -0.561  13.783  23.364  0.00  0.00    +0.000 NA
ATOM     25  C   UNL     1      -1.258  14.876  24.083  0.00  0.00    +0.000 C 
ATOM     26  C   UNL     1      -0.466  16.173  24.272  0.00  0.00    +0.000 C 
ATOM     27  S   UNL     1       0.011  16.916  22.688  0.00  0.00    +0.000 S 
ATOM     28  C   UNL     1       0.836  15.448  22.020  0.00  0.00    +0.000 C 
ATOM     29  C   UNL     1      -0.087  14.223  22.031  0.00  0.00    +0.000 C 
ENDBRANCH  23  24
ENDBRANCH   3  23
TORSDOF 6
ENDMDL
