MODEL 1
REMARK VINA RESULT:      -8.4      0.000      0.000
REMARK  Name = 
REMARK  12 active torsions:
REMARK  status: ('A' for Active; 'I' for Inactive)
REMARK    1  A    between atoms: C_1  and  C_2
REMARK    2  A    between atoms: C_2  and  O_3
REMARK    3  A    between atoms: O_3  and  C_4
REMARK    4  A    between atoms: C_4  and  C_6
REMARK    5  A    between atoms: C_6  and  C_7
REMARK    6  A    between atoms: C_6  and  O_9
REMARK    7  A    between atoms: C_7  and  C_8
REMARK    8  A    between atoms: O_9  and  C_10
REMARK    9  A    between atoms: C_13  and  N_14
REMARK   10  A    between atoms: C_15  and  C_17
REMARK   11  A    between atoms: C_17  and  O_18
REMARK   12  A    between atoms: O_18  and  C_19
REMARK                            x       y       z     vdW  Elec       q    Type
REMARK                         _______ _______ _______ _____ _____    ______ ____
ROOT
ATOM      1  N   UNL     1       2.738   2.385  20.609  0.00  0.00    +0.000 N 
ATOM      2  C   UNL     1       1.694   2.917  21.323  0.00  0.00    +0.000 C 
ATOM      3  O   UNL     1       1.333   2.348  22.357  0.00  0.00    +0.000 OA
ATOM      4  H   UNL     1       3.330   1.787  21.174  0.00  0.00    +0.000 HD
ENDROOT
BRANCH   1   8
ATOM      5  C   UNL     1       4.188   3.655  16.891  0.00  0.00    +0.000 A 
ATOM      6  C   UNL     1       4.995   3.710  18.027  0.00  0.00    +0.000 A 
ATOM      7  C   UNL     1       4.521   3.253  19.255  0.00  0.00    +0.000 A 
ATOM      8  C   UNL     1       3.209   2.806  19.365  0.00  0.00    +0.000 A 
ATOM      9  C   UNL     1       2.405   2.729  18.226  0.00  0.00    +0.000 A 
ATOM     10  C   UNL     1       2.888   3.168  16.992  0.00  0.00    +0.000 A 
BRANCH   5  11
ATOM     11  O   UNL     1       4.792   4.099  15.746  0.00  0.00    +0.000 OA
BRANCH  11  12
ATOM     12  C   UNL     1       5.910   4.981  15.856  0.00  0.00    +0.000 C 
BRANCH  12  13
ATOM     13  C   UNL     1       6.837   4.731  14.660  0.00  0.00    +0.000 C 
ATOM     14  O   UNL     1       7.764   5.449  14.312  0.00  0.00    +0.000 OA
BRANCH  13  15
ATOM     15  O   UNL     1       6.395   3.643  13.959  0.00  0.00    +0.000 OA
BRANCH  15  17
ATOM     16  C   UNL     1       5.196   3.220  11.940  0.00  0.00    +0.000 C 
ATOM     17  C   UNL     1       6.490   3.746  12.532  0.00  0.00    +0.000 C 
ENDBRANCH  15  17
ENDBRANCH  13  15
ENDBRANCH  12  13
BRANCH  12  18
ATOM     18  C   UNL     1       5.472   6.451  15.932  0.00  0.00    +0.000 C 
ATOM     19  C   UNL     1       6.024   7.188  17.144  0.00  0.00    +0.000 C 
ENDBRANCH  12  18
ENDBRANCH  11  12
ENDBRANCH   5  11
ENDBRANCH   1   8
BRANCH   2  20
ATOM     20  C   UNL     1       1.097   4.265  20.911  0.00  0.00    +0.000 C 
BRANCH  20  21
ATOM     21  O   UNL     1       2.136   5.230  21.064  0.00  0.00    +0.000 OA
BRANCH  21  22
ATOM     22  C   UNL     1       2.005   6.424  20.414  0.00  0.00    +0.000 A 
ATOM     23  C   UNL     1       2.572   6.449  19.140  0.00  0.00    +0.000 A 
ATOM     24  C   UNL     1       2.469   7.585  18.335  0.00  0.00    +0.000 A 
ATOM     25  C   UNL     1       1.792   8.721  18.794  0.00  0.00    +0.000 A 
ATOM     26  C   UNL     1       1.625   9.849  17.973  0.00  0.00    +0.000 A 
ATOM     27  C   UNL     1       0.952  10.977  18.441  0.00  0.00    +0.000 A 
ATOM     28  C   UNL     1       0.464  11.003  19.744  0.00  0.00    +0.000 A 
ATOM     29  C   UNL     1       0.620   9.887  20.571  0.00  0.00    +0.000 A 
ATOM     30  C   UNL     1       1.261   8.726  20.103  0.00  0.00    +0.000 A 
ATOM     31  C   UNL     1       1.371   7.569  20.902  0.00  0.00    +0.000 A 
ENDBRANCH  21  22
ENDBRANCH  20  21
ENDBRANCH   2  20
TORSDOF 10
ENDMDL
MODEL 2
REMARK VINA RESULT:      -7.4      1.242      2.714
REMARK  Name = 
REMARK  12 active torsions:
REMARK  status: ('A' for Active; 'I' for Inactive)
REMARK    1  A    between atoms: C_1  and  C_2
REMARK    2  A    between atoms: C_2  and  O_3
REMARK    3  A    between atoms: O_3  and  C_4
REMARK    4  A    between atoms: C_4  and  C_6
REMARK    5  A    between atoms: C_6  and  C_7
REMARK    6  A    between atoms: C_6  and  O_9
REMARK    7  A    between atoms: C_7  and  C_8
REMARK    8  A    between atoms: O_9  and  C_10
REMARK    9  A    between atoms: C_13  and  N_14
REMARK   10  A    between atoms: C_15  and  C_17
REMARK   11  A    between atoms: C_17  and  O_18
REMARK   12  A    between atoms: O_18  and  C_19
REMARK                            x       y       z     vdW  Elec       q    Type
REMARK                         _______ _______ _______ _____ _____    ______ ____
ROOT
ATOM      1  N   UNL     1       3.110   2.958  20.284  0.00  0.00    +0.000 N 
ATOM      2  C   UNL     1       1.928   3.205  20.935  0.00  0.00    +0.000 C 
ATOM      3  O   UNL     1       1.576   2.436  21.834  0.00  0.00    +0.000 OA
ATOM      4  H   UNL     1       3.742   2.383  20.829  0.00  0.00    +0.000 HD
ENDROOT
BRANCH   1   8
ATOM      5  C   UNL     1       4.600   4.966  16.924  0.00  0.00    +0.000 A 
ATOM      6  C   UNL     1       3.487   4.132  16.820  0.00  0.00    +0.000 A 
ATOM      7  C   UNL     1       2.972   3.494  17.947  0.00  0.00    +0.000 A 
ATOM      8  C   UNL     1       3.616   3.632  19.171  0.00  0.00    +0.000 A 
ATOM      9  C   UNL     1       4.717   4.483  19.284  0.00  0.00    +0.000 A 
ATOM     10  C   UNL     1       5.219   5.138  18.158  0.00  0.00    +0.000 A 
BRANCH   5  11
ATOM     11  O   UNL     1       4.974   5.559  15.748  0.00  0.00    +0.000 OA
BRANCH  11  12
ATOM     12  C   UNL     1       6.223   5.190  15.160  0.00  0.00    +0.000 C 
BRANCH  12  13
ATOM     13  C   UNL     1       7.329   5.420  16.196  0.00  0.00    +0.000 C 
ATOM     14  O   UNL     1       7.973   4.546  16.760  0.00  0.00    +0.000 OA
BRANCH  13  15
ATOM     15  O   UNL     1       7.405   6.753  16.494  0.00  0.00    +0.000 OA
BRANCH  15  17
ATOM     16  C   UNL     1       8.160   8.536  17.888  0.00  0.00    +0.000 C 
ATOM     17  C   UNL     1       7.790   7.065  17.840  0.00  0.00    +0.000 C 
ENDBRANCH  15  17
ENDBRANCH  13  15
ENDBRANCH  12  13
BRANCH  12  18
ATOM     18  C   UNL     1       6.210   3.736  14.661  0.00  0.00    +0.000 C 
ATOM     19  C   UNL     1       5.933   3.608  13.169  0.00  0.00    +0.000 C 
ENDBRANCH  12  18
ENDBRANCH  11  12
ENDBRANCH   5  11
ENDBRANCH   1   8
BRANCH   2  20
ATOM     20  C   UNL     1       1.148   4.489  20.639  0.00  0.00    +0.000 C 
BRANCH  20  21
ATOM     21  O   UNL     1       1.968   5.570  21.079  0.00  0.00    +0.000 OA
BRANCH  21  22
ATOM     22  C   UNL     1       1.720   6.812  20.571  0.00  0.00    +0.000 A 
ATOM     23  C   UNL     1       2.326   7.060  19.339  0.00  0.00    +0.000 A 
ATOM     24  C   UNL     1       2.119   8.268  18.671  0.00  0.00    +0.000 A 
ATOM     25  C   UNL     1       1.296   9.255  19.227  0.00  0.00    +0.000 A 
ATOM     26  C   UNL     1       1.026  10.450  18.540  0.00  0.00    +0.000 A 
ATOM     27  C   UNL     1       0.207  11.427  19.105  0.00  0.00    +0.000 A 
ATOM     28  C   UNL     1      -0.327  11.235  20.376  0.00  0.00    +0.000 A 
ATOM     29  C   UNL     1      -0.069  10.050  21.070  0.00  0.00    +0.000 A 
ATOM     30  C   UNL     1       0.720   9.037  20.500  0.00  0.00    +0.000 A 
ATOM     31  C   UNL     1       0.938   7.809  21.159  0.00  0.00    +0.000 A 
ENDBRANCH  21  22
ENDBRANCH  20  21
ENDBRANCH   2  20
TORSDOF 10
ENDMDL
MODEL 3
REMARK VINA RESULT:      -7.4      1.055      2.451
REMARK  Name = 
REMARK  12 active torsions:
REMARK  status: ('A' for Active; 'I' for Inactive)
REMARK    1  A    between atoms: C_1  and  C_2
REMARK    2  A    between atoms: C_2  and  O_3
REMARK    3  A    between atoms: O_3  and  C_4
REMARK    4  A    between atoms: C_4  and  C_6
REMARK    5  A    between atoms: C_6  and  C_7
REMARK    6  A    between atoms: C_6  and  O_9
REMARK    7  A    between atoms: C_7  and  C_8
REMARK    8  A    between atoms: O_9  and  C_10
REMARK    9  A    between atoms: C_13  and  N_14
REMARK   10  A    between atoms: C_15  and  C_17
REMARK   11  A    between atoms: C_17  and  O_18
REMARK   12  A    between atoms: O_18  and  C_19
REMARK                            x       y       z     vdW  Elec       q    Type
REMARK                         _______ _______ _______ _____ _____    ______ ____
ROOT
ATOM      1  N   UNL     1       2.875   2.598  20.767  0.00  0.00    +0.000 N 
ATOM      2  C   UNL     1       1.683   3.146  21.168  0.00  0.00    +0.000 C 
ATOM      3  O   UNL     1       1.095   2.646  22.131  0.00  0.00    +0.000 OA
ATOM      4  H   UNL     1       3.326   2.067  21.503  0.00  0.00    +0.000 HD
ENDROOT
BRANCH   1   8
ATOM      5  C   UNL     1       5.146   3.638  17.406  0.00  0.00    +0.000 A 
ATOM      6  C   UNL     1       5.552   4.018  18.684  0.00  0.00    +0.000 A 
ATOM      7  C   UNL     1       4.813   3.639  19.804  0.00  0.00    +0.000 A 
ATOM      8  C   UNL     1       3.623   2.940  19.640  0.00  0.00    +0.000 A 
ATOM      9  C   UNL     1       3.224   2.539  18.363  0.00  0.00    +0.000 A 
ATOM     10  C   UNL     1       3.977   2.901  17.245  0.00  0.00    +0.000 A 
BRANCH   5  11
ATOM     11  O   UNL     1       5.984   4.043  16.402  0.00  0.00    +0.000 OA
BRANCH  11  12
ATOM     12  C   UNL     1       5.480   4.927  15.400  0.00  0.00    +0.000 C 
BRANCH  12  13
ATOM     13  C   UNL     1       5.671   6.367  15.891  0.00  0.00    +0.000 C 
ATOM     14  O   UNL     1       4.835   7.259  15.832  0.00  0.00    +0.000 OA
BRANCH  13  15
ATOM     15  O   UNL     1       6.965   6.544  16.296  0.00  0.00    +0.000 OA
BRANCH  15  17
ATOM     16  C   UNL     1       7.934   6.825  18.458  0.00  0.00    +0.000 C 
ATOM     17  C   UNL     1       7.161   7.504  17.343  0.00  0.00    +0.000 C 
ENDBRANCH  15  17
ENDBRANCH  13  15
ENDBRANCH  12  13
BRANCH  12  18
ATOM     18  C   UNL     1       6.163   4.699  14.042  0.00  0.00    +0.000 C 
ATOM     19  C   UNL     1       5.578   3.533  13.257  0.00  0.00    +0.000 C 
ENDBRANCH  12  18
ENDBRANCH  11  12
ENDBRANCH   5  11
ENDBRANCH   1   8
BRANCH   2  20
ATOM     20  C   UNL     1       1.180   4.438  20.517  0.00  0.00    +0.000 C 
BRANCH  20  21
ATOM     21  O   UNL     1       2.175   5.429  20.765  0.00  0.00    +0.000 OA
BRANCH  21  22
ATOM     22  C   UNL     1       1.977   6.679  20.254  0.00  0.00    +0.000 A 
ATOM     23  C   UNL     1       2.542   6.881  18.994  0.00  0.00    +0.000 A 
ATOM     24  C   UNL     1       2.375   8.093  18.322  0.00  0.00    +0.000 A 
ATOM     25  C   UNL     1       1.636   9.131  18.904  0.00  0.00    +0.000 A 
ATOM     26  C   UNL     1       1.406  10.334  18.216  0.00  0.00    +0.000 A 
ATOM     27  C   UNL     1       0.671  11.362  18.805  0.00  0.00    +0.000 A 
ATOM     28  C   UNL     1       0.184  11.213  20.100  0.00  0.00    +0.000 A 
ATOM     29  C   UNL     1       0.403  10.021  20.796  0.00  0.00    +0.000 A 
ATOM     30  C   UNL     1       1.107   8.958  20.202  0.00  0.00    +0.000 A 
ATOM     31  C   UNL     1       1.282   7.725  20.865  0.00  0.00    +0.000 A 
ENDBRANCH  21  22
ENDBRANCH  20  21
ENDBRANCH   2  20
TORSDOF 10
ENDMDL
MODEL 4
REMARK VINA RESULT:      -7.3      0.545      1.034
REMARK  Name = 
REMARK  12 active torsions:
REMARK  status: ('A' for Active; 'I' for Inactive)
REMARK    1  A    between atoms: C_1  and  C_2
REMARK    2  A    between atoms: C_2  and  O_3
REMARK    3  A    between atoms: O_3  and  C_4
REMARK    4  A    between atoms: C_4  and  C_6
REMARK    5  A    between atoms: C_6  and  C_7
REMARK    6  A    between atoms: C_6  and  O_9
REMARK    7  A    between atoms: C_7  and  C_8
REMARK    8  A    between atoms: O_9  and  C_10
REMARK    9  A    between atoms: C_13  and  N_14
REMARK   10  A    between atoms: C_15  and  C_17
REMARK   11  A    between atoms: C_17  and  O_18
REMARK   12  A    between atoms: O_18  and  C_19
REMARK                            x       y       z     vdW  Elec       q    Type
REMARK                         _______ _______ _______ _____ _____    ______ ____
ROOT
ATOM      1  N   UNL     1       2.771   2.381  20.580  0.00  0.00    +0.000 N 
ATOM      2  C   UNL     1       2.091   3.164  21.479  0.00  0.00    +0.000 C 
ATOM      3  O   UNL     1       1.519   2.616  22.426  0.00  0.00    +0.000 OA
ATOM      4  H   UNL     1       3.030   1.480  20.966  0.00  0.00    +0.000 HD
ENDROOT
BRANCH   1   8
ATOM      5  C   UNL     1       4.544   3.611  16.991  0.00  0.00    +0.000 A 
ATOM      6  C   UNL     1       3.247   3.100  17.006  0.00  0.00    +0.000 A 
ATOM      7  C   UNL     1       2.646   2.726  18.207  0.00  0.00    +0.000 A 
ATOM      8  C   UNL     1       3.373   2.793  19.390  0.00  0.00    +0.000 A 
ATOM      9  C   UNL     1       4.665   3.324  19.383  0.00  0.00    +0.000 A 
ATOM     10  C   UNL     1       5.256   3.718  18.182  0.00  0.00    +0.000 A 
BRANCH   5  11
ATOM     11  O   UNL     1       4.994   3.975  15.751  0.00  0.00    +0.000 OA
BRANCH  11  12
ATOM     12  C   UNL     1       5.999   4.986  15.654  0.00  0.00    +0.000 C 
BRANCH  12  13
ATOM     13  C   UNL     1       6.704   4.833  14.301  0.00  0.00    +0.000 C 
ATOM     14  O   UNL     1       7.758   5.365  13.979  0.00  0.00    +0.000 OA
BRANCH  13  15
ATOM     15  O   UNL     1       5.913   4.107  13.453  0.00  0.00    +0.000 OA
BRANCH  15  17
ATOM     16  C   UNL     1       5.937   2.385  11.802  0.00  0.00    +0.000 C 
ATOM     17  C   UNL     1       6.524   3.723  12.214  0.00  0.00    +0.000 C 
ENDBRANCH  15  17
ENDBRANCH  13  15
ENDBRANCH  12  13
BRANCH  12  18
ATOM     18  C   UNL     1       5.410   6.394  15.827  0.00  0.00    +0.000 C 
ATOM     19  C   UNL     1       5.930   7.124  17.059  0.00  0.00    +0.000 C 
ENDBRANCH  12  18
ENDBRANCH  11  12
ENDBRANCH   5  11
ENDBRANCH   1   8
BRANCH   2  20
ATOM     20  C   UNL     1       2.173   4.689  21.378  0.00  0.00    +0.000 C 
BRANCH  20  21
ATOM     21  O   UNL     1       1.704   5.033  20.075  0.00  0.00    +0.000 OA
BRANCH  21  22
ATOM     22  C   UNL     1       1.768   6.342  19.694  0.00  0.00    +0.000 A 
ATOM     23  C   UNL     1       2.386   6.552  18.461  0.00  0.00    +0.000 A 
ATOM     24  C   UNL     1       2.476   7.834  17.916  0.00  0.00    +0.000 A 
ATOM     25  C   UNL     1       1.946   8.935  18.600  0.00  0.00    +0.000 A 
ATOM     26  C   UNL     1       1.972  10.222  18.039  0.00  0.00    +0.000 A 
ATOM     27  C   UNL     1       1.444  11.312  18.730  0.00  0.00    +0.000 A 
ATOM     28  C   UNL     1       0.911  11.134  20.003  0.00  0.00    +0.000 A 
ATOM     29  C   UNL     1       0.876   9.859  20.574  0.00  0.00    +0.000 A 
ATOM     30  C   UNL     1       1.366   8.742  19.875  0.00  0.00    +0.000 A 
ATOM     31  C   UNL     1       1.281   7.438  20.409  0.00  0.00    +0.000 A 
ENDBRANCH  21  22
ENDBRANCH  20  21
ENDBRANCH   2  20
TORSDOF 10
ENDMDL
MODEL 5
REMARK VINA RESULT:      -7.1      2.344      7.259
REMARK  Name = 
REMARK  12 active torsions:
REMARK  status: ('A' for Active; 'I' for Inactive)
REMARK    1  A    between atoms: C_1  and  C_2
REMARK    2  A    between atoms: C_2  and  O_3
REMARK    3  A    between atoms: O_3  and  C_4
REMARK    4  A    between atoms: C_4  and  C_6
REMARK    5  A    between atoms: C_6  and  C_7
REMARK    6  A    between atoms: C_6  and  O_9
REMARK    7  A    between atoms: C_7  and  C_8
REMARK    8  A    between atoms: O_9  and  C_10
REMARK    9  A    between atoms: C_13  and  N_14
REMARK   10  A    between atoms: C_15  and  C_17
REMARK   11  A    between atoms: C_17  and  O_18
REMARK   12  A    between atoms: O_18  and  C_19
REMARK                            x       y       z     vdW  Elec       q    Type
REMARK                         _______ _______ _______ _____ _____    ______ ____
ROOT
ATOM      1  N   UNL     1       6.230   5.957  17.182  0.00  0.00    +0.000 N 
ATOM      2  C   UNL     1       6.390   5.101  16.122  0.00  0.00    +0.000 C 
ATOM      3  O   UNL     1       7.535   4.836  15.744  0.00  0.00    +0.000 OA
ATOM      4  H   UNL     1       7.056   6.012  17.767  0.00  0.00    +0.000 HD
ENDROOT
BRANCH   1   8
ATOM      5  C   UNL     1       2.636   7.481  18.700  0.00  0.00    +0.000 A 
ATOM      6  C   UNL     1       3.420   6.614  19.461  0.00  0.00    +0.000 A 
ATOM      7  C   UNL     1       4.633   6.138  18.967  0.00  0.00    +0.000 A 
ATOM      8  C   UNL     1       5.030   6.470  17.677  0.00  0.00    +0.000 A 
ATOM      9  C   UNL     1       4.259   7.355  16.919  0.00  0.00    +0.000 A 
ATOM     10  C   UNL     1       3.055   7.847  17.424  0.00  0.00    +0.000 A 
BRANCH   5  11
ATOM     11  O   UNL     1       1.492   7.902  19.321  0.00  0.00    +0.000 OA
BRANCH  11  12
ATOM     12  C   UNL     1       1.580   8.952  20.287  0.00  0.00    +0.000 C 
BRANCH  12  13
ATOM     13  C   UNL     1       0.840  10.175  19.734  0.00  0.00    +0.000 C 
ATOM     14  O   UNL     1       0.752  11.266  20.282  0.00  0.00    +0.000 OA
BRANCH  13  15
ATOM     15  O   UNL     1       0.181   9.830  18.586  0.00  0.00    +0.000 OA
BRANCH  15  17
ATOM     16  C   UNL     1      -2.155   9.967  18.116  0.00  0.00    +0.000 C 
ATOM     17  C   UNL     1      -0.848  10.737  18.166  0.00  0.00    +0.000 C 
ENDBRANCH  15  17
ENDBRANCH  13  15
ENDBRANCH  12  13
BRANCH  12  18
ATOM     18  C   UNL     1       1.017   8.520  21.650  0.00  0.00    +0.000 C 
ATOM     19  C   UNL     1      -0.504   8.453  21.686  0.00  0.00    +0.000 C 
ENDBRANCH  12  18
ENDBRANCH  11  12
ENDBRANCH   5  11
ENDBRANCH   1   8
BRANCH   2  20
ATOM     20  C   UNL     1       5.174   4.386  15.528  0.00  0.00    +0.000 C 
BRANCH  20  21
ATOM     21  O   UNL     1       4.978   3.207  16.307  0.00  0.00    +0.000 OA
BRANCH  21  22
ATOM     22  C   UNL     1       4.049   3.245  17.306  0.00  0.00    +0.000 A 
ATOM     23  C   UNL     1       2.792   3.700  16.905  0.00  0.00    +0.000 A 
ATOM     24  C   UNL     1       1.726   3.741  17.806  0.00  0.00    +0.000 A 
ATOM     25  C   UNL     1       1.901   3.327  19.131  0.00  0.00    +0.000 A 
ATOM     26  C   UNL     1       0.825   3.303  20.034  0.00  0.00    +0.000 A 
ATOM     27  C   UNL     1       1.011   2.891  21.353  0.00  0.00    +0.000 A 
ATOM     28  C   UNL     1       2.280   2.526  21.794  0.00  0.00    +0.000 A 
ATOM     29  C   UNL     1       3.359   2.543  20.907  0.00  0.00    +0.000 A 
ATOM     30  C   UNL     1       3.183   2.916  19.563  0.00  0.00    +0.000 A 
ATOM     31  C   UNL     1       4.248   2.877  18.638  0.00  0.00    +0.000 A 
ENDBRANCH  21  22
ENDBRANCH  20  21
ENDBRANCH   2  20
TORSDOF 10
ENDMDL
MODEL 6
REMARK VINA RESULT:      -7.1      2.337      7.293
REMARK  Name = 
REMARK  12 active torsions:
REMARK  status: ('A' for Active; 'I' for Inactive)
REMARK    1  A    between atoms: C_1  and  C_2
REMARK    2  A    between atoms: C_2  and  O_3
REMARK    3  A    between atoms: O_3  and  C_4
REMARK    4  A    between atoms: C_4  and  C_6
REMARK    5  A    between atoms: C_6  and  C_7
REMARK    6  A    between atoms: C_6  and  O_9
REMARK    7  A    between atoms: C_7  and  C_8
REMARK    8  A    between atoms: O_9  and  C_10
REMARK    9  A    between atoms: C_13  and  N_14
REMARK   10  A    between atoms: C_15  and  C_17
REMARK   11  A    between atoms: C_17  and  O_18
REMARK   12  A    between atoms: O_18  and  C_19
REMARK                            x       y       z     vdW  Elec       q    Type
REMARK                         _______ _______ _______ _____ _____    ______ ____
ROOT
ATOM      1  N   UNL     1       6.241   5.828  17.493  0.00  0.00    +0.000 N 
ATOM      2  C   UNL     1       6.472   5.014  16.413  0.00  0.00    +0.000 C 
ATOM      3  O   UNL     1       7.634   4.688  16.156  0.00  0.00    +0.000 OA
ATOM      4  H   UNL     1       6.994   5.799  18.171  0.00  0.00    +0.000 HD
ENDROOT
BRANCH   1   8
ATOM      5  C   UNL     1       2.597   7.526  18.668  0.00  0.00    +0.000 A 
ATOM      6  C   UNL     1       3.261   6.622  19.496  0.00  0.00    +0.000 A 
ATOM      7  C   UNL     1       4.491   6.087  19.118  0.00  0.00    +0.000 A 
ATOM      8  C   UNL     1       5.026   6.400  17.873  0.00  0.00    +0.000 A 
ATOM      9  C   UNL     1       4.374   7.321  17.050  0.00  0.00    +0.000 A 
ATOM     10  C   UNL     1       3.153   7.872  17.440  0.00  0.00    +0.000 A 
BRANCH   5  11
ATOM     11  O   UNL     1       1.420   8.003  19.179  0.00  0.00    +0.000 OA
BRANCH  11  12
ATOM     12  C   UNL     1       1.443   9.202  19.955  0.00  0.00    +0.000 C 
BRANCH  12  13
ATOM     13  C   UNL     1       0.463  10.199  19.326  0.00  0.00    +0.000 C 
ATOM     14  O   UNL     1      -0.371   9.939  18.469  0.00  0.00    +0.000 OA
BRANCH  13  15
ATOM     15  O   UNL     1       0.744  11.461  19.775  0.00  0.00    +0.000 OA
BRANCH  15  17
ATOM     16  C   UNL     1       2.353  12.504  18.355  0.00  0.00    +0.000 C 
ATOM     17  C   UNL     1       0.890  12.461  18.759  0.00  0.00    +0.000 C 
ENDBRANCH  15  17
ENDBRANCH  13  15
ENDBRANCH  12  13
BRANCH  12  18
ATOM     18  C   UNL     1       1.105   8.933  21.430  0.00  0.00    +0.000 C 
ATOM     19  C   UNL     1      -0.361   8.595  21.666  0.00  0.00    +0.000 C 
ENDBRANCH  12  18
ENDBRANCH  11  12
ENDBRANCH   5  11
ENDBRANCH   1   8
BRANCH   2  20
ATOM     20  C   UNL     1       5.292   4.414  15.644  0.00  0.00    +0.000 C 
BRANCH  20  21
ATOM     21  O   UNL     1       4.965   3.189  16.297  0.00  0.00    +0.000 OA
BRANCH  21  22
ATOM     22  C   UNL     1       4.042   3.224  17.303  0.00  0.00    +0.000 A 
ATOM     23  C   UNL     1       2.784   3.686  16.913  0.00  0.00    +0.000 A 
ATOM     24  C   UNL     1       1.725   3.726  17.821  0.00  0.00    +0.000 A 
ATOM     25  C   UNL     1       1.907   3.301  19.143  0.00  0.00    +0.000 A 
ATOM     26  C   UNL     1       0.837   3.276  20.052  0.00  0.00    +0.000 A 
ATOM     27  C   UNL     1       1.030   2.854  21.367  0.00  0.00    +0.000 A 
ATOM     28  C   UNL     1       2.300   2.482  21.798  0.00  0.00    +0.000 A 
ATOM     29  C   UNL     1       3.373   2.500  20.904  0.00  0.00    +0.000 A 
ATOM     30  C   UNL     1       3.190   2.883  19.563  0.00  0.00    +0.000 A 
ATOM     31  C   UNL     1       4.248   2.846  18.631  0.00  0.00    +0.000 A 
ENDBRANCH  21  22
ENDBRANCH  20  21
ENDBRANCH   2  20
TORSDOF 10
ENDMDL
MODEL 7
REMARK VINA RESULT:      -6.9      1.050      1.788
REMARK  Name = 
REMARK  12 active torsions:
REMARK  status: ('A' for Active; 'I' for Inactive)
REMARK    1  A    between atoms: C_1  and  C_2
REMARK    2  A    between atoms: C_2  and  O_3
REMARK    3  A    between atoms: O_3  and  C_4
REMARK    4  A    between atoms: C_4  and  C_6
REMARK    5  A    between atoms: C_6  and  C_7
REMARK    6  A    between atoms: C_6  and  O_9
REMARK    7  A    between atoms: C_7  and  C_8
REMARK    8  A    between atoms: O_9  and  C_10
REMARK    9  A    between atoms: C_13  and  N_14
REMARK   10  A    between atoms: C_15  and  C_17
REMARK   11  A    between atoms: C_17  and  O_18
REMARK   12  A    between atoms: O_18  and  C_19
REMARK                            x       y       z     vdW  Elec       q    Type
REMARK                         _______ _______ _______ _____ _____    ______ ____
ROOT
ATOM      1  N   UNL     1       2.504   2.365  20.676  0.00  0.00    +0.000 N 
ATOM      2  C   UNL     1       1.482   2.928  21.397  0.00  0.00    +0.000 C 
ATOM      3  O   UNL     1       1.103   2.362  22.427  0.00  0.00    +0.000 OA
ATOM      4  H   UNL     1       3.076   1.740  21.233  0.00  0.00    +0.000 HD
ENDROOT
BRANCH   1   8
ATOM      5  C   UNL     1       3.991   3.621  16.967  0.00  0.00    +0.000 A 
ATOM      6  C   UNL     1       4.736   3.802  18.131  0.00  0.00    +0.000 A 
ATOM      7  C   UNL     1       4.255   3.350  19.359  0.00  0.00    +0.000 A 
ATOM      8  C   UNL     1       2.989   2.780  19.434  0.00  0.00    +0.000 A 
ATOM      9  C   UNL     1       2.248   2.578  18.268  0.00  0.00    +0.000 A 
ATOM     10  C   UNL     1       2.741   3.013  17.037  0.00  0.00    +0.000 A 
BRANCH   5  11
ATOM     11  O   UNL     1       4.599   4.077  15.829  0.00  0.00    +0.000 OA
BRANCH  11  12
ATOM     12  C   UNL     1       5.637   5.052  15.947  0.00  0.00    +0.000 C 
BRANCH  12  13
ATOM     13  C   UNL     1       6.897   4.495  15.275  0.00  0.00    +0.000 C 
ATOM     14  O   UNL     1       6.935   3.906  14.203  0.00  0.00    +0.000 OA
BRANCH  13  15
ATOM     15  O   UNL     1       7.966   4.643  16.116  0.00  0.00    +0.000 OA
BRANCH  15  17
ATOM     16  C   UNL     1       7.775   5.922  18.121  0.00  0.00    +0.000 C 
ATOM     17  C   UNL     1       7.673   4.534  17.515  0.00  0.00    +0.000 C 
ENDBRANCH  15  17
ENDBRANCH  13  15
ENDBRANCH  12  13
BRANCH  12  18
ATOM     18  C   UNL     1       5.223   6.401  15.339  0.00  0.00    +0.000 C 
ATOM     19  C   UNL     1       4.741   7.411  16.372  0.00  0.00    +0.000 C 
ENDBRANCH  12  18
ENDBRANCH  11  12
ENDBRANCH   5  11
ENDBRANCH   1   8
BRANCH   2  20
ATOM     20  C   UNL     1       0.934   4.301  20.999  0.00  0.00    +0.000 C 
BRANCH  20  21
ATOM     21  O   UNL     1       2.033   5.208  21.062  0.00  0.00    +0.000 OA
BRANCH  21  22
ATOM     22  C   UNL     1       1.871   6.452  20.524  0.00  0.00    +0.000 A 
ATOM     23  C   UNL     1       2.444   6.610  19.261  0.00  0.00    +0.000 A 
ATOM     24  C   UNL     1       2.313   7.812  18.563  0.00  0.00    +0.000 A 
ATOM     25  C   UNL     1       1.601   8.881  19.118  0.00  0.00    +0.000 A 
ATOM     26  C   UNL     1       1.405  10.074  18.403  0.00  0.00    +0.000 A 
ATOM     27  C   UNL     1       0.696  11.135  18.967  0.00  0.00    +0.000 A 
ATOM     28  C   UNL     1       0.201  11.027  20.263  0.00  0.00    +0.000 A 
ATOM     29  C   UNL     1       0.385   9.845  20.986  0.00  0.00    +0.000 A 
ATOM     30  C   UNL     1       1.062   8.751  20.418  0.00  0.00    +0.000 A 
ATOM     31  C   UNL     1       1.202   7.529  21.109  0.00  0.00    +0.000 A 
ENDBRANCH  21  22
ENDBRANCH  20  21
ENDBRANCH   2  20
TORSDOF 10
ENDMDL
MODEL 8
REMARK VINA RESULT:      -6.8      2.904      4.474
REMARK  Name = 
REMARK  12 active torsions:
REMARK  status: ('A' for Active; 'I' for Inactive)
REMARK    1  A    between atoms: C_1  and  C_2
REMARK    2  A    between atoms: C_2  and  O_3
REMARK    3  A    between atoms: O_3  and  C_4
REMARK    4  A    between atoms: C_4  and  C_6
REMARK    5  A    between atoms: C_6  and  C_7
REMARK    6  A    between atoms: C_6  and  O_9
REMARK    7  A    between atoms: C_7  and  C_8
REMARK    8  A    between atoms: O_9  and  C_10
REMARK    9  A    between atoms: C_13  and  N_14
REMARK   10  A    between atoms: C_15  and  C_17
REMARK   11  A    between atoms: C_17  and  O_18
REMARK   12  A    between atoms: O_18  and  C_19
REMARK                            x       y       z     vdW  Elec       q    Type
REMARK                         _______ _______ _______ _____ _____    ______ ____
ROOT
ATOM      1  N   UNL     1       1.274   7.337  20.812  0.00  0.00    +0.000 N 
ATOM      2  C   UNL     1       0.751   8.574  21.094  0.00  0.00    +0.000 C 
ATOM      3  O   UNL     1      -0.155   8.657  21.927  0.00  0.00    +0.000 OA
ATOM      4  H   UNL     1       1.113   6.668  21.556  0.00  0.00    +0.000 HD
ENDROOT
BRANCH   1   8
ATOM      5  C   UNL     1       4.069   6.425  17.829  0.00  0.00    +0.000 A 
ATOM      6  C   UNL     1       3.241   7.541  17.712  0.00  0.00    +0.000 A 
ATOM      7  C   UNL     1       2.337   7.862  18.723  0.00  0.00    +0.000 A 
ATOM      8  C   UNL     1       2.208   7.023  19.824  0.00  0.00    +0.000 A 
ATOM      9  C   UNL     1       3.050   5.916  19.955  0.00  0.00    +0.000 A 
ATOM     10  C   UNL     1       3.969   5.608  18.951  0.00  0.00    +0.000 A 
BRANCH   5  11
ATOM     11  O   UNL     1       4.934   6.250  16.783  0.00  0.00    +0.000 OA
BRANCH  11  12
ATOM     12  C   UNL     1       6.228   5.704  17.045  0.00  0.00    +0.000 C 
BRANCH  12  13
ATOM     13  C   UNL     1       6.805   5.182  15.724  0.00  0.00    +0.000 C 
ATOM     14  O   UNL     1       7.680   5.724  15.062  0.00  0.00    +0.000 OA
BRANCH  13  15
ATOM     15  O   UNL     1       6.105   4.077  15.324  0.00  0.00    +0.000 OA
BRANCH  15  17
ATOM     16  C   UNL     1       6.167   3.569  12.994  0.00  0.00    +0.000 C 
ATOM     17  C   UNL     1       5.364   4.221  14.105  0.00  0.00    +0.000 C 
ENDBRANCH  15  17
ENDBRANCH  13  15
ENDBRANCH  12  13
BRANCH  12  18
ATOM     18  C   UNL     1       7.160   6.735  17.700  0.00  0.00    +0.000 C 
ATOM     19  C   UNL     1       7.952   6.178  18.875  0.00  0.00    +0.000 C 
ENDBRANCH  12  18
ENDBRANCH  11  12
ENDBRANCH   5  11
ENDBRANCH   1   8
BRANCH   2  20
ATOM     20  C   UNL     1       1.388   9.828  20.488  0.00  0.00    +0.000 C 
BRANCH  20  21
ATOM     21  O   UNL     1       0.435  10.879  20.641  0.00  0.00    +0.000 OA
BRANCH  21  22
ATOM     22  C   UNL     1      -0.606  10.935  19.760  0.00  0.00    +0.000 A 
ATOM     23  C   UNL     1      -1.628  11.809  20.134  0.00  0.00    +0.000 A 
ATOM     24  C   UNL     1      -2.733  12.012  19.306  0.00  0.00    +0.000 A 
ATOM     25  C   UNL     1      -2.835  11.340  18.081  0.00  0.00    +0.000 A 
ATOM     26  C   UNL     1      -3.908  11.580  17.208  0.00  0.00    +0.000 A 
ATOM     27  C   UNL     1      -4.002  10.904  15.991  0.00  0.00    +0.000 A 
ATOM     28  C   UNL     1      -3.040   9.958  15.648  0.00  0.00    +0.000 A 
ATOM     29  C   UNL     1      -1.966   9.711  16.506  0.00  0.00    +0.000 A 
ATOM     30  C   UNL     1      -1.833  10.412  17.717  0.00  0.00    +0.000 A 
ATOM     31  C   UNL     1      -0.722  10.222  18.565  0.00  0.00    +0.000 A 
ENDBRANCH  21  22
ENDBRANCH  20  21
ENDBRANCH   2  20
TORSDOF 10
ENDMDL
MODEL 9
REMARK VINA RESULT:      -6.8      1.119      2.774
REMARK  Name = 
REMARK  12 active torsions:
REMARK  status: ('A' for Active; 'I' for Inactive)
REMARK    1  A    between atoms: C_1  and  C_2
REMARK    2  A    between atoms: C_2  and  O_3
REMARK    3  A    between atoms: O_3  and  C_4
REMARK    4  A    between atoms: C_4  and  C_6
REMARK    5  A    between atoms: C_6  and  C_7
REMARK    6  A    between atoms: C_6  and  O_9
REMARK    7  A    between atoms: C_7  and  C_8
REMARK    8  A    between atoms: O_9  and  C_10
REMARK    9  A    between atoms: C_13  and  N_14
REMARK   10  A    between atoms: C_15  and  C_17
REMARK   11  A    between atoms: C_17  and  O_18
REMARK   12  A    between atoms: O_18  and  C_19
REMARK                            x       y       z     vdW  Elec       q    Type
REMARK                         _______ _______ _______ _____ _____    ______ ____
ROOT
ATOM      1  N   UNL     1       2.775   2.628  20.845  0.00  0.00    +0.000 N 
ATOM      2  C   UNL     1       1.584   3.202  21.212  0.00  0.00    +0.000 C 
ATOM      3  O   UNL     1       0.980   2.741  22.185  0.00  0.00    +0.000 OA
ATOM      4  H   UNL     1       3.212   2.118  21.605  0.00  0.00    +0.000 HD
ENDROOT
BRANCH   1   8
ATOM      5  C   UNL     1       5.097   3.529  17.477  0.00  0.00    +0.000 A 
ATOM      6  C   UNL     1       5.471   3.981  18.742  0.00  0.00    +0.000 A 
ATOM      7  C   UNL     1       4.716   3.649  19.866  0.00  0.00    +0.000 A 
ATOM      8  C   UNL     1       3.540   2.923  19.716  0.00  0.00    +0.000 A 
ATOM      9  C   UNL     1       3.173   2.450  18.454  0.00  0.00    +0.000 A 
ATOM     10  C   UNL     1       3.942   2.765  17.333  0.00  0.00    +0.000 A 
BRANCH   5  11
ATOM     11  O   UNL     1       5.948   3.895  16.470  0.00  0.00    +0.000 OA
BRANCH  11  12
ATOM     12  C   UNL     1       5.447   4.704  15.406  0.00  0.00    +0.000 C 
BRANCH  12  13
ATOM     13  C   UNL     1       5.607   6.176  15.806  0.00  0.00    +0.000 C 
ATOM     14  O   UNL     1       4.886   7.097  15.448  0.00  0.00    +0.000 OA
BRANCH  13  15
ATOM     15  O   UNL     1       6.759   6.330  16.527  0.00  0.00    +0.000 OA
BRANCH  15  17
ATOM     16  C   UNL     1       8.051   7.386  18.233  0.00  0.00    +0.000 C 
ATOM     17  C   UNL     1       6.822   7.502  17.350  0.00  0.00    +0.000 C 
ENDBRANCH  15  17
ENDBRANCH  13  15
ENDBRANCH  12  13
BRANCH  12  18
ATOM     18  C   UNL     1       6.154   4.400  14.076  0.00  0.00    +0.000 C 
ATOM     19  C   UNL     1       5.281   3.648  13.081  0.00  0.00    +0.000 C 
ENDBRANCH  12  18
ENDBRANCH  11  12
ENDBRANCH   5  11
ENDBRANCH   1   8
BRANCH   2  20
ATOM     20  C   UNL     1       1.103   4.475  20.511  0.00  0.00    +0.000 C 
BRANCH  20  21
ATOM     21  O   UNL     1       1.999   5.514  20.900  0.00  0.00    +0.000 OA
BRANCH  21  22
ATOM     22  C   UNL     1       1.698   6.793  20.530  0.00  0.00    +0.000 A 
ATOM     23  C   UNL     1       0.915   7.489  21.453  0.00  0.00    +0.000 A 
ATOM     24  C   UNL     1       0.574   8.825  21.236  0.00  0.00    +0.000 A 
ATOM     25  C   UNL     1       1.012   9.492  20.086  0.00  0.00    +0.000 A 
ATOM     26  C   UNL     1       0.730  10.853  19.883  0.00  0.00    +0.000 A 
ATOM     27  C   UNL     1       1.169  11.507  18.732  0.00  0.00    +0.000 A 
ATOM     28  C   UNL     1       1.868  10.802  17.757  0.00  0.00    +0.000 A 
ATOM     29  C   UNL     1       2.158   9.449  17.947  0.00  0.00    +0.000 A 
ATOM     30  C   UNL     1       1.759   8.782  19.119  0.00  0.00    +0.000 A 
ATOM     31  C   UNL     1       2.098   7.434  19.356  0.00  0.00    +0.000 A 
ENDBRANCH  21  22
ENDBRANCH  20  21
ENDBRANCH   2  20
TORSDOF 10
ENDMDL
