MODEL 1
REMARK VINA RESULT:      -7.9      0.000      0.000
REMARK  Name = 
REMARK  5 active torsions:
REMARK  status: ('A' for Active; 'I' for Inactive)
REMARK    1  A    between atoms: C_1  and  C_2
REMARK    2  A    between atoms: C_7  and  C_8
REMARK    3  A    between atoms: N_14  and  N_15
REMARK    4  A    between atoms: C_16  and  C_17
REMARK    5  A    between atoms: C_20  and  N_21
REMARK                            x       y       z     vdW  Elec       q    Type
REMARK                         _______ _______ _______ _____ _____    ______ ____
ROOT
ATOM      1  C   UNL     1       7.123   5.514  14.068  0.00  0.00    +0.000 C 
ATOM      2  C   UNL     1       6.205   4.966  15.120  0.00  0.00    +0.000 A 
ATOM      3  C   UNL     1       6.138   3.599  15.373  0.00  0.00    +0.000 A 
ATOM      4  C   UNL     1       5.270   3.112  16.354  0.00  0.00    +0.000 A 
ATOM      5  C   UNL     1       4.452   3.954  17.094  0.00  0.00    +0.000 A 
ATOM      6  N   UNL     1       3.641   3.398  17.995  0.00  0.00    +0.000 NA
ATOM      7  C   UNL     1       2.843   4.201  18.729  0.00  0.00    +0.000 A 
ATOM      8  N   UNL     1       2.835   5.543  18.584  0.00  0.00    +0.000 NA
ATOM      9  C   UNL     1       3.644   6.104  17.658  0.00  0.00    +0.000 A 
ATOM     10  N   UNL     1       3.657   7.528  17.508  0.00  0.00    +0.000 N 
ATOM     11  C   UNL     1       4.510   5.330  16.863  0.00  0.00    +0.000 A 
ATOM     12  C   UNL     1       5.404   5.828  15.878  0.00  0.00    +0.000 A 
ATOM     13  H   UNL     1       3.588   7.745  16.514  0.00  0.00    +0.000 HD
ENDROOT
BRANCH   7  14
ATOM     14  C   UNL     1       1.890   3.573  19.757  0.00  0.00    +0.000 C 
ATOM     15 CL   UNL     1       2.761   2.663  21.053  0.00  0.00    +0.000 Cl
ATOM     16 CL   UNL     1       0.911   4.843  20.569  0.00  0.00    +0.000 Cl
ATOM     17 CL   UNL     1       0.781   2.407  18.949  0.00  0.00    +0.000 Cl
ENDBRANCH   7  14
BRANCH  10  18
ATOM     18  N   UNL     1       2.789   8.221  18.305  0.00  0.00    +0.000 NA
ATOM     19  C   UNL     1       1.853   8.856  17.675  0.00  0.00    +0.000 C 
BRANCH  19  20
ATOM     20  C   UNL     1       0.813   9.595  18.420  0.00  0.00    +0.000 A 
ATOM     21  C   UNL     1      -0.369   9.979  17.775  0.00  0.00    +0.000 A 
ATOM     22  C   UNL     1      -1.323  10.744  18.450  0.00  0.00    +0.000 A 
ATOM     23  C   UNL     1      -1.086  11.119  19.779  0.00  0.00    +0.000 A 
ATOM     24  C   UNL     1       0.083  10.711  20.439  0.00  0.00    +0.000 A 
ATOM     25  C   UNL     1       1.035   9.945  19.756  0.00  0.00    +0.000 A 
BRANCH  23  26
ATOM     26  N   UNL     1      -2.062  11.967  20.475  0.00  0.00    +0.000 N 
ATOM     27  O   UNL     1      -2.933  12.526  19.793  0.00  0.00    +0.000 OA
ATOM     28  O   UNL     1      -1.950  12.081  21.704  0.00  0.00    +0.000 OA
ENDBRANCH  23  26
ENDBRANCH  19  20
ENDBRANCH  10  18
TORSDOF 4
ENDMDL
MODEL 2
REMARK VINA RESULT:      -7.7      0.208      1.475
REMARK  Name = 
REMARK  5 active torsions:
REMARK  status: ('A' for Active; 'I' for Inactive)
REMARK    1  A    between atoms: C_1  and  C_2
REMARK    2  A    between atoms: C_7  and  C_8
REMARK    3  A    between atoms: N_14  and  N_15
REMARK    4  A    between atoms: C_16  and  C_17
REMARK    5  A    between atoms: C_20  and  N_21
REMARK                            x       y       z     vdW  Elec       q    Type
REMARK                         _______ _______ _______ _____ _____    ______ ____
ROOT
ATOM      1  C   UNL     1       7.125   5.496  14.146  0.00  0.00    +0.000 C 
ATOM      2  C   UNL     1       6.196   4.953  15.189  0.00  0.00    +0.000 A 
ATOM      3  C   UNL     1       6.137   3.589  15.460  0.00  0.00    +0.000 A 
ATOM      4  C   UNL     1       5.259   3.107  16.433  0.00  0.00    +0.000 A 
ATOM      5  C   UNL     1       4.422   3.950  17.149  0.00  0.00    +0.000 A 
ATOM      6  N   UNL     1       3.603   3.398  18.045  0.00  0.00    +0.000 NA
ATOM      7  C   UNL     1       2.786   4.203  18.756  0.00  0.00    +0.000 A 
ATOM      8  N   UNL     1       2.768   5.542  18.594  0.00  0.00    +0.000 NA
ATOM      9  C   UNL     1       3.586   6.100  17.674  0.00  0.00    +0.000 A 
ATOM     10  N   UNL     1       3.589   7.522  17.506  0.00  0.00    +0.000 N 
ATOM     11  C   UNL     1       4.471   5.323  16.903  0.00  0.00    +0.000 A 
ATOM     12  C   UNL     1       5.375   5.817  15.924  0.00  0.00    +0.000 A 
ATOM     13  H   UNL     1       3.533   7.726  16.508  0.00  0.00    +0.000 HD
ENDROOT
BRANCH   7  14
ATOM     14  C   UNL     1       1.823   3.579  19.778  0.00  0.00    +0.000 C 
ATOM     15 CL   UNL     1       0.812   4.811  20.629  0.00  0.00    +0.000 Cl
ATOM     16 CL   UNL     1       0.695   2.437  18.967  0.00  0.00    +0.000 Cl
ATOM     17 CL   UNL     1       2.746   2.689  21.042  0.00  0.00    +0.000 Cl
ENDBRANCH   7  14
BRANCH  10  18
ATOM     18  N   UNL     1       2.702   8.216  18.281  0.00  0.00    +0.000 NA
ATOM     19  C   UNL     1       2.005   9.108  17.652  0.00  0.00    +0.000 C 
BRANCH  19  20
ATOM     20  C   UNL     1       0.967   9.888  18.359  0.00  0.00    +0.000 A 
ATOM     21  C   UNL     1       1.267  10.509  19.576  0.00  0.00    +0.000 A 
ATOM     22  C   UNL     1       0.271  11.182  20.287  0.00  0.00    +0.000 A 
ATOM     23  C   UNL     1      -1.028  11.231  19.768  0.00  0.00    +0.000 A 
ATOM     24  C   UNL     1      -1.328  10.635  18.532  0.00  0.00    +0.000 A 
ATOM     25  C   UNL     1      -0.324   9.962  17.826  0.00  0.00    +0.000 A 
BRANCH  23  26
ATOM     26  N   UNL     1      -2.090  11.892  20.538  0.00  0.00    +0.000 N 
ATOM     27  O   UNL     1      -1.908  12.053  21.753  0.00  0.00    +0.000 OA
ATOM     28  O   UNL     1      -3.110  12.241  19.926  0.00  0.00    +0.000 OA
ENDBRANCH  23  26
ENDBRANCH  19  20
ENDBRANCH  10  18
TORSDOF 4
ENDMDL
MODEL 3
REMARK VINA RESULT:      -7.6      4.628      8.770
REMARK  Name = 
REMARK  5 active torsions:
REMARK  status: ('A' for Active; 'I' for Inactive)
REMARK    1  A    between atoms: C_1  and  C_2
REMARK    2  A    between atoms: C_7  and  C_8
REMARK    3  A    between atoms: N_14  and  N_15
REMARK    4  A    between atoms: C_16  and  C_17
REMARK    5  A    between atoms: C_20  and  N_21
REMARK                            x       y       z     vdW  Elec       q    Type
REMARK                         _______ _______ _______ _____ _____    ______ ____
ROOT
ATOM      1  C   UNL     1      -3.926  10.296  14.777  0.00  0.00    +0.000 C 
ATOM      2  C   UNL     1      -3.326  10.582  16.122  0.00  0.00    +0.000 A 
ATOM      3  C   UNL     1      -4.007  11.348  17.064  0.00  0.00    +0.000 A 
ATOM      4  C   UNL     1      -3.424  11.605  18.307  0.00  0.00    +0.000 A 
ATOM      5  C   UNL     1      -2.168  11.123  18.643  0.00  0.00    +0.000 A 
ATOM      6  N   UNL     1      -1.683  11.436  19.846  0.00  0.00    +0.000 NA
ATOM      7  C   UNL     1      -0.465  10.970  20.193  0.00  0.00    +0.000 A 
ATOM      8  N   UNL     1       0.279  10.203  19.370  0.00  0.00    +0.000 NA
ATOM      9  C   UNL     1      -0.204   9.901  18.144  0.00  0.00    +0.000 A 
ATOM     10  N   UNL     1       0.568   9.072  17.268  0.00  0.00    +0.000 N 
ATOM     11  C   UNL     1      -1.471  10.344  17.718  0.00  0.00    +0.000 A 
ATOM     12  C   UNL     1      -2.068  10.068  16.458  0.00  0.00    +0.000 A 
ATOM     13  H   UNL     1       0.588   9.511  16.348  0.00  0.00    +0.000 HD
ENDROOT
BRANCH   7  14
ATOM     14  C   UNL     1       0.113  11.339  21.568  0.00  0.00    +0.000 C 
ATOM     15 CL   UNL     1      -1.086  12.175  22.630  0.00  0.00    +0.000 Cl
ATOM     16 CL   UNL     1       0.655   9.863  22.441  0.00  0.00    +0.000 Cl
ATOM     17 CL   UNL     1       1.515  12.452  21.377  0.00  0.00    +0.000 Cl
ENDBRANCH   7  14
BRANCH  10  18
ATOM     18  N   UNL     1       1.791   8.682  17.741  0.00  0.00    +0.000 NA
ATOM     19  C   UNL     1       2.078   7.433  17.552  0.00  0.00    +0.000 C 
BRANCH  19  20
ATOM     20  C   UNL     1       3.392   6.894  17.960  0.00  0.00    +0.000 A 
ATOM     21  C   UNL     1       4.517   7.111  17.156  0.00  0.00    +0.000 A 
ATOM     22  C   UNL     1       5.745   6.540  17.495  0.00  0.00    +0.000 A 
ATOM     23  C   UNL     1       5.840   5.751  18.648  0.00  0.00    +0.000 A 
ATOM     24  C   UNL     1       4.722   5.554  19.474  0.00  0.00    +0.000 A 
ATOM     25  C   UNL     1       3.494   6.130  19.128  0.00  0.00    +0.000 A 
BRANCH  23  26
ATOM     26  N   UNL     1       7.117   5.105  18.979  0.00  0.00    +0.000 N 
ATOM     27  O   UNL     1       7.674   4.439  18.095  0.00  0.00    +0.000 OA
ATOM     28  O   UNL     1       7.556   5.257  20.128  0.00  0.00    +0.000 OA
ENDBRANCH  23  26
ENDBRANCH  19  20
ENDBRANCH  10  18
TORSDOF 4
ENDMDL
MODEL 4
REMARK VINA RESULT:      -7.6      0.662      1.256
REMARK  Name = 
REMARK  5 active torsions:
REMARK  status: ('A' for Active; 'I' for Inactive)
REMARK    1  A    between atoms: C_1  and  C_2
REMARK    2  A    between atoms: C_7  and  C_8
REMARK    3  A    between atoms: N_14  and  N_15
REMARK    4  A    between atoms: C_16  and  C_17
REMARK    5  A    between atoms: C_20  and  N_21
REMARK                            x       y       z     vdW  Elec       q    Type
REMARK                         _______ _______ _______ _____ _____    ______ ____
ROOT
ATOM      1  C   UNL     1       7.150   5.531  14.205  0.00  0.00    +0.000 C 
ATOM      2  C   UNL     1       6.216   4.985  15.243  0.00  0.00    +0.000 A 
ATOM      3  C   UNL     1       6.194   3.627  15.546  0.00  0.00    +0.000 A 
ATOM      4  C   UNL     1       5.310   3.141  16.512  0.00  0.00    +0.000 A 
ATOM      5  C   UNL     1       4.432   3.975  17.190  0.00  0.00    +0.000 A 
ATOM      6  N   UNL     1       3.610   3.420  18.082  0.00  0.00    +0.000 NA
ATOM      7  C   UNL     1       2.754   4.217  18.755  0.00  0.00    +0.000 A 
ATOM      8  N   UNL     1       2.698   5.551  18.559  0.00  0.00    +0.000 NA
ATOM      9  C   UNL     1       3.518   6.110  17.642  0.00  0.00    +0.000 A 
ATOM     10  N   UNL     1       3.481   7.527  17.438  0.00  0.00    +0.000 N 
ATOM     11  C   UNL     1       4.443   5.343  16.909  0.00  0.00    +0.000 A 
ATOM     12  C   UNL     1       5.353   5.841  15.938  0.00  0.00    +0.000 A 
ATOM     13  H   UNL     1       3.441   7.704  16.435  0.00  0.00    +0.000 HD
ENDROOT
BRANCH   7  14
ATOM     14  C   UNL     1       1.789   3.588  19.772  0.00  0.00    +0.000 C 
ATOM     15 CL   UNL     1       0.729   4.809  20.578  0.00  0.00    +0.000 Cl
ATOM     16 CL   UNL     1       0.708   2.399  18.965  0.00  0.00    +0.000 Cl
ATOM     17 CL   UNL     1       2.711   2.751  21.072  0.00  0.00    +0.000 Cl
ENDBRANCH   7  14
BRANCH  10  18
ATOM     18  N   UNL     1       2.556   8.213  18.176  0.00  0.00    +0.000 NA
ATOM     19  C   UNL     1       2.154   9.327  17.654  0.00  0.00    +0.000 C 
BRANCH  19  20
ATOM     20  C   UNL     1       1.112  10.136  18.319  0.00  0.00    +0.000 A 
ATOM     21  C   UNL     1      -0.234   9.771  18.207  0.00  0.00    +0.000 A 
ATOM     22  C   UNL     1      -1.230  10.574  18.767  0.00  0.00    +0.000 A 
ATOM     23  C   UNL     1      -0.868  11.744  19.445  0.00  0.00    +0.000 A 
ATOM     24  C   UNL     1       0.483  12.099  19.586  0.00  0.00    +0.000 A 
ATOM     25  C   UNL     1       1.476  11.290  19.021  0.00  0.00    +0.000 A 
BRANCH  23  26
ATOM     26  N   UNL     1      -1.915  12.618  19.990  0.00  0.00    +0.000 N 
ATOM     27  O   UNL     1      -1.559  13.630  20.611  0.00  0.00    +0.000 OA
ATOM     28  O   UNL     1      -3.094  12.286  19.803  0.00  0.00    +0.000 OA
ENDBRANCH  23  26
ENDBRANCH  19  20
ENDBRANCH  10  18
TORSDOF 4
ENDMDL
MODEL 5
REMARK VINA RESULT:      -7.5      4.452      8.218
REMARK  Name = 
REMARK  5 active torsions:
REMARK  status: ('A' for Active; 'I' for Inactive)
REMARK    1  A    between atoms: C_1  and  C_2
REMARK    2  A    between atoms: C_7  and  C_8
REMARK    3  A    between atoms: N_14  and  N_15
REMARK    4  A    between atoms: C_16  and  C_17
REMARK    5  A    between atoms: C_20  and  N_21
REMARK                            x       y       z     vdW  Elec       q    Type
REMARK                         _______ _______ _______ _____ _____    ______ ____
ROOT
ATOM      1  C   UNL     1       3.219  15.277  17.312  0.00  0.00    +0.000 C 
ATOM      2  C   UNL     1       2.575  14.401  18.344  0.00  0.00    +0.000 A 
ATOM      3  C   UNL     1       2.102  14.931  19.542  0.00  0.00    +0.000 A 
ATOM      4  C   UNL     1       1.512  14.094  20.491  0.00  0.00    +0.000 A 
ATOM      5  C   UNL     1       1.382  12.728  20.286  0.00  0.00    +0.000 A 
ATOM      6  N   UNL     1       0.823  12.004  21.257  0.00  0.00    +0.000 NA
ATOM      7  C   UNL     1       0.682  10.675  21.072  0.00  0.00    +0.000 A 
ATOM      8  N   UNL     1       1.086  10.052  19.945  0.00  0.00    +0.000 NA
ATOM      9  C   UNL     1       1.669  10.784  18.969  0.00  0.00    +0.000 A 
ATOM     10  N   UNL     1       2.085  10.138  17.760  0.00  0.00    +0.000 N 
ATOM     11  C   UNL     1       1.840  12.176  19.088  0.00  0.00    +0.000 A 
ATOM     12  C   UNL     1       2.426  13.029  18.114  0.00  0.00    +0.000 A 
ATOM     13  H   UNL     1       3.033  10.443  17.545  0.00  0.00    +0.000 HD
ENDROOT
BRANCH   7  14
ATOM     14  C   UNL     1       0.057   9.826  22.190  0.00  0.00    +0.000 C 
ATOM     15 CL   UNL     1       1.275   9.250  23.394  0.00  0.00    +0.000 Cl
ATOM     16 CL   UNL     1      -1.172  10.778  23.093  0.00  0.00    +0.000 Cl
ATOM     17 CL   UNL     1      -0.731   8.363  21.496  0.00  0.00    +0.000 Cl
ENDBRANCH   7  14
BRANCH  10  18
ATOM     18  N   UNL     1       1.896   8.784  17.711  0.00  0.00    +0.000 NA
ATOM     19  C   UNL     1       2.911   8.075  18.089  0.00  0.00    +0.000 C 
BRANCH  19  20
ATOM     20  C   UNL     1       2.820   6.601  18.142  0.00  0.00    +0.000 A 
ATOM     21  C   UNL     1       1.898   5.988  18.998  0.00  0.00    +0.000 A 
ATOM     22  C   UNL     1       1.860   4.596  19.110  0.00  0.00    +0.000 A 
ATOM     23  C   UNL     1       2.750   3.822  18.356  0.00  0.00    +0.000 A 
ATOM     24  C   UNL     1       3.657   4.431  17.474  0.00  0.00    +0.000 A 
ATOM     25  C   UNL     1       3.690   5.826  17.367  0.00  0.00    +0.000 A 
BRANCH  23  26
ATOM     26  N   UNL     1       2.749   2.362  18.512  0.00  0.00    +0.000 N 
ATOM     27  O   UNL     1       2.003   1.872  19.371  0.00  0.00    +0.000 OA
ATOM     28  O   UNL     1       3.503   1.706  17.779  0.00  0.00    +0.000 OA
ENDBRANCH  23  26
ENDBRANCH  19  20
ENDBRANCH  10  18
TORSDOF 4
ENDMDL
MODEL 6
REMARK VINA RESULT:      -7.4      1.948      2.430
REMARK  Name = 
REMARK  5 active torsions:
REMARK  status: ('A' for Active; 'I' for Inactive)
REMARK    1  A    between atoms: C_1  and  C_2
REMARK    2  A    between atoms: C_7  and  C_8
REMARK    3  A    between atoms: N_14  and  N_15
REMARK    4  A    between atoms: C_16  and  C_17
REMARK    5  A    between atoms: C_20  and  N_21
REMARK                            x       y       z     vdW  Elec       q    Type
REMARK                         _______ _______ _______ _____ _____    ______ ____
ROOT
ATOM      1  C   UNL     1       8.193   7.765  17.106  0.00  0.00    +0.000 C 
ATOM      2  C   UNL     1       7.115   6.872  17.643  0.00  0.00    +0.000 A 
ATOM      3  C   UNL     1       7.411   5.599  18.123  0.00  0.00    +0.000 A 
ATOM      4  C   UNL     1       6.388   4.783  18.613  0.00  0.00    +0.000 A 
ATOM      5  C   UNL     1       5.064   5.197  18.634  0.00  0.00    +0.000 A 
ATOM      6  N   UNL     1       4.153   4.343  19.102  0.00  0.00    +0.000 NA
ATOM      7  C   UNL     1       2.861   4.731  19.137  0.00  0.00    +0.000 A 
ATOM      8  N   UNL     1       2.458   5.949  18.715  0.00  0.00    +0.000 NA
ATOM      9  C   UNL     1       3.380   6.807  18.225  0.00  0.00    +0.000 A 
ATOM     10  N   UNL     1       2.967   8.109  17.792  0.00  0.00    +0.000 N 
ATOM     11  C   UNL     1       4.746   6.474  18.167  0.00  0.00    +0.000 A 
ATOM     12  C   UNL     1       5.787   7.312  17.684  0.00  0.00    +0.000 A 
ATOM     13  H   UNL     1       3.384   8.289  16.880  0.00  0.00    +0.000 HD
ENDROOT
BRANCH   7  14
ATOM     14  C   UNL     1       1.798   3.751  19.655  0.00  0.00    +0.000 C 
ATOM     15 CL   UNL     1       0.427   4.581  20.488  0.00  0.00    +0.000 Cl
ATOM     16 CL   UNL     1       1.097   2.804  18.296  0.00  0.00    +0.000 Cl
ATOM     17 CL   UNL     1       2.527   2.613  20.845  0.00  0.00    +0.000 Cl
ENDBRANCH   7  14
BRANCH  10  18
ATOM     18  N   UNL     1       1.626   8.366  17.869  0.00  0.00    +0.000 NA
ATOM     19  C   UNL     1       1.318   9.604  18.092  0.00  0.00    +0.000 C 
BRANCH  19  20
ATOM     20  C   UNL     1      -0.097  10.029  18.137  0.00  0.00    +0.000 A 
ATOM     21  C   UNL     1      -1.017   9.496  17.228  0.00  0.00    +0.000 A 
ATOM     22  C   UNL     1      -2.338   9.950  17.215  0.00  0.00    +0.000 A 
ATOM     23  C   UNL     1      -2.731  10.941  18.122  0.00  0.00    +0.000 A 
ATOM     24  C   UNL     1      -1.820  11.458  19.056  0.00  0.00    +0.000 A 
ATOM     25  C   UNL     1      -0.498  10.998  19.063  0.00  0.00    +0.000 A 
BRANCH  23  26
ATOM     26  N   UNL     1      -4.105  11.460  18.076  0.00  0.00    +0.000 N 
ATOM     27  O   UNL     1      -4.615  11.841  19.139  0.00  0.00    +0.000 OA
ATOM     28  O   UNL     1      -4.676  11.476  16.976  0.00  0.00    +0.000 OA
ENDBRANCH  23  26
ENDBRANCH  19  20
ENDBRANCH  10  18
TORSDOF 4
ENDMDL
MODEL 7
REMARK VINA RESULT:      -7.4      4.523      8.346
REMARK  Name = 
REMARK  5 active torsions:
REMARK  status: ('A' for Active; 'I' for Inactive)
REMARK    1  A    between atoms: C_1  and  C_2
REMARK    2  A    between atoms: C_7  and  C_8
REMARK    3  A    between atoms: N_14  and  N_15
REMARK    4  A    between atoms: C_16  and  C_17
REMARK    5  A    between atoms: C_20  and  N_21
REMARK                            x       y       z     vdW  Elec       q    Type
REMARK                         _______ _______ _______ _____ _____    ______ ____
ROOT
ATOM      1  C   UNL     1       3.327  15.491  17.385  0.00  0.00    +0.000 C 
ATOM      2  C   UNL     1       2.658  14.599  18.388  0.00  0.00    +0.000 A 
ATOM      3  C   UNL     1       2.143  15.113  19.574  0.00  0.00    +0.000 A 
ATOM      4  C   UNL     1       1.529  14.261  20.496  0.00  0.00    +0.000 A 
ATOM      5  C   UNL     1       1.418  12.897  20.273  0.00  0.00    +0.000 A 
ATOM      6  N   UNL     1       0.834  12.158  21.218  0.00  0.00    +0.000 NA
ATOM      7  C   UNL     1       0.710  10.830  21.016  0.00  0.00    +0.000 A 
ATOM      8  N   UNL     1       1.156  10.222  19.896  0.00  0.00    +0.000 NA
ATOM      9  C   UNL     1       1.763  10.968  18.947  0.00  0.00    +0.000 A 
ATOM     10  N   UNL     1       2.223  10.338  17.746  0.00  0.00    +0.000 N 
ATOM     11  C   UNL     1       1.919  12.360  19.085  0.00  0.00    +0.000 A 
ATOM     12  C   UNL     1       2.528  13.228  18.139  0.00  0.00    +0.000 A 
ATOM     13  H   UNL     1       3.176  10.654  17.565  0.00  0.00    +0.000 HD
ENDROOT
BRANCH   7  14
ATOM     14  C   UNL     1       0.057   9.964  22.105  0.00  0.00    +0.000 C 
ATOM     15 CL   UNL     1      -1.107  10.891  23.130  0.00  0.00    +0.000 Cl
ATOM     16 CL   UNL     1      -0.856   8.603  21.365  0.00  0.00    +0.000 Cl
ATOM     17 CL   UNL     1       1.313   9.295  23.207  0.00  0.00    +0.000 Cl
ENDBRANCH   7  14
BRANCH  10  18
ATOM     18  N   UNL     1       2.048   8.984  17.678  0.00  0.00    +0.000 NA
ATOM     19  C   UNL     1       3.139   8.287  17.696  0.00  0.00    +0.000 C 
BRANCH  19  20
ATOM     20  C   UNL     1       3.089   6.811  17.689  0.00  0.00    +0.000 A 
ATOM     21  C   UNL     1       1.891   6.150  17.981  0.00  0.00    +0.000 A 
ATOM     22  C   UNL     1       1.854   4.756  18.052  0.00  0.00    +0.000 A 
ATOM     23  C   UNL     1       3.028   4.026  17.825  0.00  0.00    +0.000 A 
ATOM     24  C   UNL     1       4.226   4.683  17.502  0.00  0.00    +0.000 A 
ATOM     25  C   UNL     1       4.255   6.081  17.433  0.00  0.00    +0.000 A 
BRANCH  23  26
ATOM     26  N   UNL     1       3.006   2.563  17.951  0.00  0.00    +0.000 N 
ATOM     27  O   UNL     1       2.080   1.949  17.403  0.00  0.00    +0.000 OA
ATOM     28  O   UNL     1       3.912   2.030  18.607  0.00  0.00    +0.000 OA
ENDBRANCH  23  26
ENDBRANCH  19  20
ENDBRANCH  10  18
TORSDOF 4
ENDMDL
MODEL 8
REMARK VINA RESULT:      -7.4      0.795      1.447
REMARK  Name = 
REMARK  5 active torsions:
REMARK  status: ('A' for Active; 'I' for Inactive)
REMARK    1  A    between atoms: C_1  and  C_2
REMARK    2  A    between atoms: C_7  and  C_8
REMARK    3  A    between atoms: N_14  and  N_15
REMARK    4  A    between atoms: C_16  and  C_17
REMARK    5  A    between atoms: C_20  and  N_21
REMARK                            x       y       z     vdW  Elec       q    Type
REMARK                         _______ _______ _______ _____ _____    ______ ____
ROOT
ATOM      1  C   UNL     1       7.150   5.559  14.113  0.00  0.00    +0.000 C 
ATOM      2  C   UNL     1       6.233   5.001  15.159  0.00  0.00    +0.000 A 
ATOM      3  C   UNL     1       6.224   3.640  15.455  0.00  0.00    +0.000 A 
ATOM      4  C   UNL     1       5.356   3.143  16.429  0.00  0.00    +0.000 A 
ATOM      5  C   UNL     1       4.481   3.967  17.123  0.00  0.00    +0.000 A 
ATOM      6  N   UNL     1       3.675   3.401  18.023  0.00  0.00    +0.000 NA
ATOM      7  C   UNL     1       2.822   4.188  18.711  0.00  0.00    +0.000 A 
ATOM      8  N   UNL     1       2.754   5.522  18.523  0.00  0.00    +0.000 NA
ATOM      9  C   UNL     1       3.559   6.093  17.599  0.00  0.00    +0.000 A 
ATOM     10  N   UNL     1       3.509   7.511  17.404  0.00  0.00    +0.000 N 
ATOM     11  C   UNL     1       4.480   5.336  16.850  0.00  0.00    +0.000 A 
ATOM     12  C   UNL     1       5.374   5.846  15.870  0.00  0.00    +0.000 A 
ATOM     13  H   UNL     1       3.455   7.693  16.402  0.00  0.00    +0.000 HD
ENDROOT
BRANCH   7  14
ATOM     14  C   UNL     1       1.875   3.546  19.737  0.00  0.00    +0.000 C 
ATOM     15 CL   UNL     1       0.709   2.389  18.984  0.00  0.00    +0.000 Cl
ATOM     16 CL   UNL     1       2.808   2.630  20.971  0.00  0.00    +0.000 Cl
ATOM     17 CL   UNL     1       0.900   4.814  20.563  0.00  0.00    +0.000 Cl
ENDBRANCH   7  14
BRANCH  10  18
ATOM     18  N   UNL     1       2.589   8.185  18.158  0.00  0.00    +0.000 NA
ATOM     19  C   UNL     1       2.414   9.425  17.829  0.00  0.00    +0.000 C 
BRANCH  19  20
ATOM     20  C   UNL     1       1.405  10.252  18.524  0.00  0.00    +0.000 A 
ATOM     21  C   UNL     1       1.576  11.638  18.611  0.00  0.00    +0.000 A 
ATOM     22  C   UNL     1       0.668  12.416  19.332  0.00  0.00    +0.000 A 
ATOM     23  C   UNL     1      -0.418  11.795  19.963  0.00  0.00    +0.000 A 
ATOM     24  C   UNL     1      -0.611  10.409  19.854  0.00  0.00    +0.000 A 
ATOM     25  C   UNL     1       0.304   9.636  19.130  0.00  0.00    +0.000 A 
BRANCH  23  26
ATOM     26  N   UNL     1      -1.345  12.602  20.766  0.00  0.00    +0.000 N 
ATOM     27  O   UNL     1      -1.681  12.165  21.876  0.00  0.00    +0.000 OA
ATOM     28  O   UNL     1      -1.745  13.670  20.280  0.00  0.00    +0.000 OA
ENDBRANCH  23  26
ENDBRANCH  19  20
ENDBRANCH  10  18
TORSDOF 4
ENDMDL
MODEL 9
REMARK VINA RESULT:      -7.2      3.310      4.751
REMARK  Name = 
REMARK  5 active torsions:
REMARK  status: ('A' for Active; 'I' for Inactive)
REMARK    1  A    between atoms: C_1  and  C_2
REMARK    2  A    between atoms: C_7  and  C_8
REMARK    3  A    between atoms: N_14  and  N_15
REMARK    4  A    between atoms: C_16  and  C_17
REMARK    5  A    between atoms: C_20  and  N_21
REMARK                            x       y       z     vdW  Elec       q    Type
REMARK                         _______ _______ _______ _____ _____    ______ ____
ROOT
ATOM      1  C   UNL     1       1.382   2.391  22.035  0.00  0.00    +0.000 C 
ATOM      2  C   UNL     1       2.304   2.969  21.003  0.00  0.00    +0.000 A 
ATOM      3  C   UNL     1       3.293   2.192  20.408  0.00  0.00    +0.000 A 
ATOM      4  C   UNL     1       4.143   2.755  19.453  0.00  0.00    +0.000 A 
ATOM      5  C   UNL     1       4.042   4.086  19.074  0.00  0.00    +0.000 A 
ATOM      6  N   UNL     1       4.910   4.542  18.169  0.00  0.00    +0.000 NA
ATOM      7  C   UNL     1       4.823   5.832  17.783  0.00  0.00    +0.000 A 
ATOM      8  N   UNL     1       3.893   6.675  18.278  0.00  0.00    +0.000 NA
ATOM      9  C   UNL     1       3.025   6.217  19.207  0.00  0.00    +0.000 A 
ATOM     10  N   UNL     1       2.022   7.098  19.726  0.00  0.00    +0.000 N 
ATOM     11  C   UNL     1       3.051   4.882  19.651  0.00  0.00    +0.000 A 
ATOM     12  C   UNL     1       2.174   4.306  20.610  0.00  0.00    +0.000 A 
ATOM     13  H   UNL     1       2.018   7.015  20.742  0.00  0.00    +0.000 HD
ENDROOT
BRANCH   7  14
ATOM     14  C   UNL     1       5.828   6.375  16.756  0.00  0.00    +0.000 C 
ATOM     15 CL   UNL     1       6.997   5.119  16.189  0.00  0.00    +0.000 Cl
ATOM     16 CL   UNL     1       4.972   6.996  15.302  0.00  0.00    +0.000 Cl
ATOM     17 CL   UNL     1       6.797   7.710  17.478  0.00  0.00    +0.000 Cl
ENDBRANCH   7  14
BRANCH  10  18
ATOM     18  N   UNL     1       2.056   8.383  19.259  0.00  0.00    +0.000 NA
ATOM     19  C   UNL     1       1.164   9.174  19.764  0.00  0.00    +0.000 C 
BRANCH  19  20
ATOM     20  C   UNL     1       1.129  10.603  19.391  0.00  0.00    +0.000 A 
ATOM     21  C   UNL     1       2.047  11.106  18.462  0.00  0.00    +0.000 A 
ATOM     22  C   UNL     1       2.069  12.470  18.163  0.00  0.00    +0.000 A 
ATOM     23  C   UNL     1       1.163  13.328  18.799  0.00  0.00    +0.000 A 
ATOM     24  C   UNL     1       0.221  12.824  19.709  0.00  0.00    +0.000 A 
ATOM     25  C   UNL     1       0.204  11.455  20.004  0.00  0.00    +0.000 A 
BRANCH  23  26
ATOM     26  N   UNL     1       1.219  14.770  18.527  0.00  0.00    +0.000 N 
ATOM     27  O   UNL     1       2.329  15.273  18.302  0.00  0.00    +0.000 OA
ATOM     28  O   UNL     1       0.152  15.400  18.547  0.00  0.00    +0.000 OA
ENDBRANCH  23  26
ENDBRANCH  19  20
ENDBRANCH  10  18
TORSDOF 4
ENDMDL
