MODEL 1
REMARK VINA RESULT:      -7.4      0.000      0.000
REMARK  Name = 
REMARK  3 active torsions:
REMARK  status: ('A' for Active; 'I' for Inactive)
REMARK    1  A    between atoms: C_2  and  C_3
REMARK    2  A    between atoms: C_2  and  C_10
REMARK    3  A    between atoms: C_3  and  N_4
REMARK                            x       y       z     vdW  Elec       q    Type
REMARK                         _______ _______ _______ _____ _____    ______ ____
ROOT
ATOM      1  C   UNL     1       2.626   4.953  18.533  0.00  0.00    +0.000 A 
ATOM      2  C   UNL     1       2.267   4.821  19.879  0.00  0.00    +0.000 A 
ATOM      3  C   UNL     1       1.869   5.952  20.604  0.00  0.00    +0.000 A 
ATOM      4  C   UNL     1       1.791   7.219  19.997  0.00  0.00    +0.000 A 
ATOM      5  C   UNL     1       2.183   7.352  18.665  0.00  0.00    +0.000 A 
ATOM      6  C   UNL     1       2.617   6.225  17.953  0.00  0.00    +0.000 A 
ATOM      7  C   UNL     1       2.219   8.690  17.986  0.00  0.00    +0.000 C 
ATOM      8  C   UNL     1       1.222   9.696  18.535  0.00  0.00    +0.000 C 
ATOM      9  C   UNL     1       1.017   9.692  20.044  0.00  0.00    +0.000 C 
ATOM     10  C   UNL     1       1.334   8.402  20.807  0.00  0.00    +0.000 C 
ENDROOT
BRANCH   1  12
ATOM     11  O   UNL     1       2.154   3.295  16.928  0.00  0.00    +0.000 OA
ATOM     12  C   UNL     1       3.006   3.813  17.651  0.00  0.00    +0.000 C 
BRANCH  12  13
ATOM     13  C   UNL     1       4.395   3.235  17.742  0.00  0.00    +0.000 C 
BRANCH  13  14
ATOM     14  N   UNL     1       5.401   4.113  17.088  0.00  0.00    +0.000 N 
ATOM     15  C   UNL     1       5.486   4.178  15.730  0.00  0.00    +0.000 A 
ATOM     16  C   UNL     1       6.454   4.990  15.151  0.00  0.00    +0.000 A 
ATOM     17  N   UNL     1       7.324   5.713  15.873  0.00  0.00    +0.000 NA
ATOM     18  C   UNL     1       7.212   5.632  17.216  0.00  0.00    +0.000 A 
ATOM     19  C   UNL     1       6.256   4.848  17.844  0.00  0.00    +0.000 A 
ENDBRANCH  13  14
ENDBRANCH  12  13
ENDBRANCH   1  12
TORSDOF 3
ENDMDL
MODEL 2
REMARK VINA RESULT:      -7.4      0.038      1.065
REMARK  Name = 
REMARK  3 active torsions:
REMARK  status: ('A' for Active; 'I' for Inactive)
REMARK    1  A    between atoms: C_2  and  C_3
REMARK    2  A    between atoms: C_2  and  C_10
REMARK    3  A    between atoms: C_3  and  N_4
REMARK                            x       y       z     vdW  Elec       q    Type
REMARK                         _______ _______ _______ _____ _____    ______ ____
ROOT
ATOM      1  C   UNL     1       2.624   4.975  18.545  0.00  0.00    +0.000 A 
ATOM      2  C   UNL     1       2.257   4.848  19.889  0.00  0.00    +0.000 A 
ATOM      3  C   UNL     1       1.853   5.982  20.606  0.00  0.00    +0.000 A 
ATOM      4  C   UNL     1       1.779   7.246  19.994  0.00  0.00    +0.000 A 
ATOM      5  C   UNL     1       2.179   7.374  18.663  0.00  0.00    +0.000 A 
ATOM      6  C   UNL     1       2.619   6.244  17.959  0.00  0.00    +0.000 A 
ATOM      7  C   UNL     1       2.220   8.709  17.979  0.00  0.00    +0.000 C 
ATOM      8  C   UNL     1       1.219   9.717  18.518  0.00  0.00    +0.000 C 
ATOM      9  C   UNL     1       1.003   9.719  20.026  0.00  0.00    +0.000 C 
ATOM     10  C   UNL     1       1.316   8.433  20.796  0.00  0.00    +0.000 C 
ENDROOT
BRANCH   1  12
ATOM     11  O   UNL     1       2.168   3.320  16.931  0.00  0.00    +0.000 OA
ATOM     12  C   UNL     1       3.010   3.831  17.670  0.00  0.00    +0.000 C 
BRANCH  12  13
ATOM     13  C   UNL     1       4.392   3.242  17.786  0.00  0.00    +0.000 C 
BRANCH  13  14
ATOM     14  N   UNL     1       5.415   4.102  17.134  0.00  0.00    +0.000 N 
ATOM     15  C   UNL     1       6.281   4.839  17.883  0.00  0.00    +0.000 A 
ATOM     16  C   UNL     1       7.208   5.652  17.243  0.00  0.00    +0.000 A 
ATOM     17  N   UNL     1       7.287   5.753  15.906  0.00  0.00    +0.000 NA
ATOM     18  C   UNL     1       6.420   5.006  15.190  0.00  0.00    +0.000 A 
ATOM     19  C   UNL     1       5.484   4.170  15.779  0.00  0.00    +0.000 A 
ENDBRANCH  13  14
ENDBRANCH  12  13
ENDBRANCH   1  12
TORSDOF 3
ENDMDL
MODEL 3
REMARK VINA RESULT:      -7.2      2.349      4.209
REMARK  Name = 
REMARK  3 active torsions:
REMARK  status: ('A' for Active; 'I' for Inactive)
REMARK    1  A    between atoms: C_2  and  C_3
REMARK    2  A    between atoms: C_2  and  C_10
REMARK    3  A    between atoms: C_3  and  N_4
REMARK                            x       y       z     vdW  Elec       q    Type
REMARK                         _______ _______ _______ _____ _____    ______ ____
ROOT
ATOM      1  C   UNL     1       4.233   5.714  17.130  0.00  0.00    +0.000 A 
ATOM      2  C   UNL     1       3.724   6.635  18.051  0.00  0.00    +0.000 A 
ATOM      3  C   UNL     1       2.749   6.226  18.973  0.00  0.00    +0.000 A 
ATOM      4  C   UNL     1       2.293   4.896  19.011  0.00  0.00    +0.000 A 
ATOM      5  C   UNL     1       2.778   3.990  18.068  0.00  0.00    +0.000 A 
ATOM      6  C   UNL     1       3.724   4.412  17.123  0.00  0.00    +0.000 A 
ATOM      7  C   UNL     1       2.260   2.583  17.989  0.00  0.00    +0.000 C 
ATOM      8  C   UNL     1       1.758   2.029  19.311  0.00  0.00    +0.000 C 
ATOM      9  C   UNL     1       0.996   2.997  20.207  0.00  0.00    +0.000 C 
ATOM     10  C   UNL     1       1.264   4.495  20.034  0.00  0.00    +0.000 C 
ENDROOT
BRANCH   1  12
ATOM     11  O   UNL     1       5.206   7.005  15.416  0.00  0.00    +0.000 OA
ATOM     12  C   UNL     1       5.312   6.020  16.148  0.00  0.00    +0.000 C 
BRANCH  12  13
ATOM     13  C   UNL     1       6.460   5.058  15.983  0.00  0.00    +0.000 C 
BRANCH  13  14
ATOM     14  N   UNL     1       6.683   4.706  14.555  0.00  0.00    +0.000 N 
ATOM     15  C   UNL     1       7.639   5.345  13.824  0.00  0.00    +0.000 A 
ATOM     16  C   UNL     1       7.804   5.010  12.486  0.00  0.00    +0.000 A 
ATOM     17  N   UNL     1       7.055   4.082  11.870  0.00  0.00    +0.000 NA
ATOM     18  C   UNL     1       6.120   3.462  12.622  0.00  0.00    +0.000 A 
ATOM     19  C   UNL     1       5.922   3.750  13.963  0.00  0.00    +0.000 A 
ENDBRANCH  13  14
ENDBRANCH  12  13
ENDBRANCH   1  12
TORSDOF 3
ENDMDL
MODEL 4
REMARK VINA RESULT:      -7.2      2.344      4.088
REMARK  Name = 
REMARK  3 active torsions:
REMARK  status: ('A' for Active; 'I' for Inactive)
REMARK    1  A    between atoms: C_2  and  C_3
REMARK    2  A    between atoms: C_2  and  C_10
REMARK    3  A    between atoms: C_3  and  N_4
REMARK                            x       y       z     vdW  Elec       q    Type
REMARK                         _______ _______ _______ _____ _____    ______ ____
ROOT
ATOM      1  C   UNL     1       4.180   5.686  17.216  0.00  0.00    +0.000 A 
ATOM      2  C   UNL     1       3.800   6.600  18.205  0.00  0.00    +0.000 A 
ATOM      3  C   UNL     1       2.854   6.224  19.168  0.00  0.00    +0.000 A 
ATOM      4  C   UNL     1       2.299   4.932  19.182  0.00  0.00    +0.000 A 
ATOM      5  C   UNL     1       2.654   4.036  18.173  0.00  0.00    +0.000 A 
ATOM      6  C   UNL     1       3.572   4.427  17.189  0.00  0.00    +0.000 A 
ATOM      7  C   UNL     1       2.024   2.677  18.071  0.00  0.00    +0.000 C 
ATOM      8  C   UNL     1       1.561   2.102  19.398  0.00  0.00    +0.000 C 
ATOM      9  C   UNL     1       0.932   3.083  20.379  0.00  0.00    +0.000 C 
ATOM     10  C   UNL     1       1.305   4.563  20.250  0.00  0.00    +0.000 C 
ENDROOT
BRANCH   1  12
ATOM     11  O   UNL     1       5.093   6.923  15.431  0.00  0.00    +0.000 OA
ATOM     12  C   UNL     1       5.219   5.954  16.181  0.00  0.00    +0.000 C 
BRANCH  12  13
ATOM     13  C   UNL     1       6.347   4.973  15.989  0.00  0.00    +0.000 C 
BRANCH  13  14
ATOM     14  N   UNL     1       6.575   4.670  14.551  0.00  0.00    +0.000 N 
ATOM     15  C   UNL     1       5.807   3.749  13.906  0.00  0.00    +0.000 A 
ATOM     16  C   UNL     1       6.063   3.472  12.569  0.00  0.00    +0.000 A 
ATOM     17  N   UNL     1       7.047   4.068  11.877  0.00  0.00    +0.000 NA
ATOM     18  C   UNL     1       7.788   4.980  12.543  0.00  0.00    +0.000 A 
ATOM     19  C   UNL     1       7.566   5.303  13.872  0.00  0.00    +0.000 A 
ENDBRANCH  13  14
ENDBRANCH  12  13
ENDBRANCH   1  12
TORSDOF 3
ENDMDL
MODEL 5
REMARK VINA RESULT:      -7.0      2.284      3.947
REMARK  Name = 
REMARK  3 active torsions:
REMARK  status: ('A' for Active; 'I' for Inactive)
REMARK    1  A    between atoms: C_2  and  C_3
REMARK    2  A    between atoms: C_2  and  C_10
REMARK    3  A    between atoms: C_3  and  N_4
REMARK                            x       y       z     vdW  Elec       q    Type
REMARK                         _______ _______ _______ _____ _____    ______ ____
ROOT
ATOM      1  C   UNL     1       4.328   4.671  16.665  0.00  0.00    +0.000 A 
ATOM      2  C   UNL     1       4.030   5.903  17.257  0.00  0.00    +0.000 A 
ATOM      3  C   UNL     1       3.100   5.962  18.305  0.00  0.00    +0.000 A 
ATOM      4  C   UNL     1       2.480   4.799  18.797  0.00  0.00    +0.000 A 
ATOM      5  C   UNL     1       2.754   3.578  18.181  0.00  0.00    +0.000 A 
ATOM      6  C   UNL     1       3.655   3.528  17.108  0.00  0.00    +0.000 A 
ATOM      7  C   UNL     1       2.052   2.315  18.590  0.00  0.00    +0.000 C 
ATOM      8  C   UNL     1       1.607   2.292  20.042  0.00  0.00    +0.000 C 
ATOM      9  C   UNL     1       1.063   3.599  20.606  0.00  0.00    +0.000 C 
ATOM     10  C   UNL     1       1.507   4.906  19.940  0.00  0.00    +0.000 C 
ENDROOT
BRANCH   1  12
ATOM     11  O   UNL     1       4.977   4.423  14.414  0.00  0.00    +0.000 OA
ATOM     12  C   UNL     1       5.341   4.481  15.589  0.00  0.00    +0.000 C 
BRANCH  12  13
ATOM     13  C   UNL     1       6.783   4.246  15.961  0.00  0.00    +0.000 C 
BRANCH  13  14
ATOM     14  N   UNL     1       7.263   5.236  16.961  0.00  0.00    +0.000 N 
ATOM     15  C   UNL     1       7.632   4.838  18.210  0.00  0.00    +0.000 A 
ATOM     16  C   UNL     1       8.052   5.792  19.129  0.00  0.00    +0.000 A 
ATOM     17  N   UNL     1       8.105   7.103  18.843  0.00  0.00    +0.000 NA
ATOM     18  C   UNL     1       7.739   7.467  17.596  0.00  0.00    +0.000 A 
ATOM     19  C   UNL     1       7.324   6.554  16.638  0.00  0.00    +0.000 A 
ENDBRANCH  13  14
ENDBRANCH  12  13
ENDBRANCH   1  12
TORSDOF 3
ENDMDL
MODEL 6
REMARK VINA RESULT:      -6.8      2.571      4.092
REMARK  Name = 
REMARK  3 active torsions:
REMARK  status: ('A' for Active; 'I' for Inactive)
REMARK    1  A    between atoms: C_2  and  C_3
REMARK    2  A    between atoms: C_2  and  C_10
REMARK    3  A    between atoms: C_3  and  N_4
REMARK                            x       y       z     vdW  Elec       q    Type
REMARK                         _______ _______ _______ _____ _____    ______ ____
ROOT
ATOM      1  C   UNL     1       4.131   5.873  18.803  0.00  0.00    +0.000 A 
ATOM      2  C   UNL     1       4.151   6.524  17.565  0.00  0.00    +0.000 A 
ATOM      3  C   UNL     1       3.273   7.591  17.329  0.00  0.00    +0.000 A 
ATOM      4  C   UNL     1       2.389   8.044  18.325  0.00  0.00    +0.000 A 
ATOM      5  C   UNL     1       2.348   7.369  19.545  0.00  0.00    +0.000 A 
ATOM      6  C   UNL     1       3.200   6.278  19.765  0.00  0.00    +0.000 A 
ATOM      7  C   UNL     1       1.359   7.736  20.614  0.00  0.00    +0.000 C 
ATOM      8  C   UNL     1       0.933   9.194  20.596  0.00  0.00    +0.000 C 
ATOM      9  C   UNL     1       0.734   9.825  19.223  0.00  0.00    +0.000 C 
ATOM     10  C   UNL     1       1.481   9.209  18.036  0.00  0.00    +0.000 C 
ENDROOT
BRANCH   1  12
ATOM     11  O   UNL     1       6.143   5.040  19.701  0.00  0.00    +0.000 OA
ATOM     12  C   UNL     1       5.057   4.771  19.185  0.00  0.00    +0.000 C 
BRANCH  12  13
ATOM     13  C   UNL     1       4.706   3.349  18.829  0.00  0.00    +0.000 C 
BRANCH  13  14
ATOM     14  N   UNL     1       3.307   3.015  19.208  0.00  0.00    +0.000 N 
ATOM     15  C   UNL     1       2.341   2.893  18.256  0.00  0.00    +0.000 A 
ATOM     16  C   UNL     1       1.039   2.605  18.646  0.00  0.00    +0.000 A 
ATOM     17  N   UNL     1       0.682   2.447  19.931  0.00  0.00    +0.000 NA
ATOM     18  C   UNL     1       1.663   2.569  20.851  0.00  0.00    +0.000 A 
ATOM     19  C   UNL     1       2.980   2.842  20.515  0.00  0.00    +0.000 A 
ENDBRANCH  13  14
ENDBRANCH  12  13
ENDBRANCH   1  12
TORSDOF 3
ENDMDL
MODEL 7
REMARK VINA RESULT:      -6.8      3.166      4.270
REMARK  Name = 
REMARK  3 active torsions:
REMARK  status: ('A' for Active; 'I' for Inactive)
REMARK    1  A    between atoms: C_2  and  C_3
REMARK    2  A    between atoms: C_2  and  C_10
REMARK    3  A    between atoms: C_3  and  N_4
REMARK                            x       y       z     vdW  Elec       q    Type
REMARK                         _______ _______ _______ _____ _____    ______ ____
ROOT
ATOM      1  C   UNL     1       4.972   5.322  17.472  0.00  0.00    +0.000 A 
ATOM      2  C   UNL     1       5.541   5.105  18.731  0.00  0.00    +0.000 A 
ATOM      3  C   UNL     1       4.784   4.488  19.737  0.00  0.00    +0.000 A 
ATOM      4  C   UNL     1       3.468   4.053  19.497  0.00  0.00    +0.000 A 
ATOM      5  C   UNL     1       2.893   4.303  18.251  0.00  0.00    +0.000 A 
ATOM      6  C   UNL     1       3.640   4.954  17.259  0.00  0.00    +0.000 A 
ATOM      7  C   UNL     1       1.461   3.956  17.961  0.00  0.00    +0.000 C 
ATOM      8  C   UNL     1       0.930   2.781  18.764  0.00  0.00    +0.000 C 
ATOM      9  C   UNL     1       1.383   2.691  20.216  0.00  0.00    +0.000 C 
ATOM     10  C   UNL     1       2.699   3.373  20.599  0.00  0.00    +0.000 C 
ENDROOT
BRANCH   1  12
ATOM     11  O   UNL     1       5.183   6.825  15.670  0.00  0.00    +0.000 OA
ATOM     12  C   UNL     1       5.701   5.911  16.313  0.00  0.00    +0.000 C 
BRANCH  12  13
ATOM     13  C   UNL     1       7.008   5.303  15.872  0.00  0.00    +0.000 C 
BRANCH  13  14
ATOM     14  N   UNL     1       6.935   4.792  14.477  0.00  0.00    +0.000 N 
ATOM     15  C   UNL     1       7.738   5.309  13.506  0.00  0.00    +0.000 A 
ATOM     16  C   UNL     1       7.627   4.826  12.208  0.00  0.00    +0.000 A 
ATOM     17  N   UNL     1       6.753   3.869  11.860  0.00  0.00    +0.000 NA
ATOM     18  C   UNL     1       5.975   3.371  12.845  0.00  0.00    +0.000 A 
ATOM     19  C   UNL     1       6.054   3.809  14.158  0.00  0.00    +0.000 A 
ENDBRANCH  13  14
ENDBRANCH  12  13
ENDBRANCH   1  12
TORSDOF 3
ENDMDL
MODEL 8
REMARK VINA RESULT:      -6.8      1.262      1.628
REMARK  Name = 
REMARK  3 active torsions:
REMARK  status: ('A' for Active; 'I' for Inactive)
REMARK    1  A    between atoms: C_2  and  C_3
REMARK    2  A    between atoms: C_2  and  C_10
REMARK    3  A    between atoms: C_3  and  N_4
REMARK                            x       y       z     vdW  Elec       q    Type
REMARK                         _______ _______ _______ _____ _____    ______ ____
ROOT
ATOM      1  C   UNL     1       3.170   5.572  18.401  0.00  0.00    +0.000 A 
ATOM      2  C   UNL     1       2.806   5.339  19.732  0.00  0.00    +0.000 A 
ATOM      3  C   UNL     1       2.172   6.352  20.465  0.00  0.00    +0.000 A 
ATOM      4  C   UNL     1       1.865   7.593  19.880  0.00  0.00    +0.000 A 
ATOM      5  C   UNL     1       2.261   7.834  18.564  0.00  0.00    +0.000 A 
ATOM      6  C   UNL     1       2.929   6.832  17.845  0.00  0.00    +0.000 A 
ATOM      7  C   UNL     1       2.054   9.170  17.912  0.00  0.00    +0.000 C 
ATOM      8  C   UNL     1       0.863   9.947  18.446  0.00  0.00    +0.000 C 
ATOM      9  C   UNL     1       0.619   9.865  19.948  0.00  0.00    +0.000 C 
ATOM     10  C   UNL     1       1.161   8.644  20.696  0.00  0.00    +0.000 C 
ENDROOT
BRANCH   1  12
ATOM     11  O   UNL     1       3.450   3.372  17.607  0.00  0.00    +0.000 OA
ATOM     12  C   UNL     1       3.792   4.551  17.511  0.00  0.00    +0.000 C 
BRANCH  12  13
ATOM     13  C   UNL     1       4.912   4.955  16.587  0.00  0.00    +0.000 C 
BRANCH  13  14
ATOM     14  N   UNL     1       6.017   5.626  17.322  0.00  0.00    +0.000 N 
ATOM     15  C   UNL     1       6.446   6.864  16.950  0.00  0.00    +0.000 A 
ATOM     16  C   UNL     1       7.498   7.452  17.641  0.00  0.00    +0.000 A 
ATOM     17  N   UNL     1       8.123   6.849  18.665  0.00  0.00    +0.000 NA
ATOM     18  C   UNL     1       7.673   5.625  19.014  0.00  0.00    +0.000 A 
ATOM     19  C   UNL     1       6.619   4.999  18.365  0.00  0.00    +0.000 A 
ENDBRANCH  13  14
ENDBRANCH  12  13
ENDBRANCH   1  12
TORSDOF 3
ENDMDL
MODEL 9
REMARK VINA RESULT:      -6.8      2.606      4.253
REMARK  Name = 
REMARK  3 active torsions:
REMARK  status: ('A' for Active; 'I' for Inactive)
REMARK    1  A    between atoms: C_2  and  C_3
REMARK    2  A    between atoms: C_2  and  C_10
REMARK    3  A    between atoms: C_3  and  N_4
REMARK                            x       y       z     vdW  Elec       q    Type
REMARK                         _______ _______ _______ _____ _____    ______ ____
ROOT
ATOM      1  C   UNL     1       2.745   7.226  18.461  0.00  0.00    +0.000 A 
ATOM      2  C   UNL     1       2.429   8.254  17.566  0.00  0.00    +0.000 A 
ATOM      3  C   UNL     1       1.632   9.325  17.994  0.00  0.00    +0.000 A 
ATOM      4  C   UNL     1       1.166   9.405  19.318  0.00  0.00    +0.000 A 
ATOM      5  C   UNL     1       1.454   8.361  20.198  0.00  0.00    +0.000 A 
ATOM      6  C   UNL     1       2.220   7.273  19.756  0.00  0.00    +0.000 A 
ATOM      7  C   UNL     1       0.905   8.334  21.595  0.00  0.00    +0.000 C 
ATOM      8  C   UNL     1       0.642   9.708  22.187  0.00  0.00    +0.000 C 
ATOM      9  C   UNL     1       0.074  10.758  21.241  0.00  0.00    +0.000 C 
ATOM     10  C   UNL     1       0.333  10.586  19.741  0.00  0.00    +0.000 C 
ENDROOT
BRANCH   1  12
ATOM     11  O   UNL     1       4.853   6.234  18.112  0.00  0.00    +0.000 OA
ATOM     12  C   UNL     1       3.632   6.074  18.135  0.00  0.00    +0.000 C 
BRANCH  12  13
ATOM     13  C   UNL     1       3.020   4.759  17.725  0.00  0.00    +0.000 C 
BRANCH  13  14
ATOM     14  N   UNL     1       2.582   3.964  18.903  0.00  0.00    +0.000 N 
ATOM     15  C   UNL     1       1.258   3.766  19.152  0.00  0.00    +0.000 A 
ATOM     16  C   UNL     1       0.882   3.039  20.275  0.00  0.00    +0.000 A 
ATOM     17  N   UNL     1       1.771   2.523  21.139  0.00  0.00    +0.000 NA
ATOM     18  C   UNL     1       3.076   2.730  20.862  0.00  0.00    +0.000 A 
ATOM     19  C   UNL     1       3.504   3.437  19.749  0.00  0.00    +0.000 A 
ENDBRANCH  13  14
ENDBRANCH  12  13
ENDBRANCH   1  12
TORSDOF 3
ENDMDL
