MODEL 1
REMARK VINA RESULT:      -8.1      0.000      0.000
REMARK  Name = 
REMARK  8 active torsions:
REMARK  status: ('A' for Active; 'I' for Inactive)
REMARK    1  A    between atoms: C_1  and  O_2
REMARK    2  A    between atoms: O_2  and  C_3
REMARK    3  A    between atoms: C_8  and  C_9
REMARK    4  A    between atoms: C_9  and  C_11
REMARK    5  A    between atoms: C_18  and  C_19
REMARK    6  A    between atoms: C_19  and  C_20
REMARK    7  A    between atoms: C_20  and  N_21
REMARK    8  A    between atoms: C_22  and  C_23
REMARK                            x       y       z     vdW  Elec       q    Type
REMARK                         _______ _______ _______ _____ _____    ______ ____
ROOT
ATOM      1  C   UNL     1       2.389   7.088  19.571  0.00  0.00    +0.000 A 
ATOM      2  C   UNL     1       2.425   7.994  18.518  0.00  0.00    +0.000 A 
ATOM      3  C   UNL     1       3.279   7.769  17.441  0.00  0.00    +0.000 A 
ATOM      4  C   UNL     1       4.113   6.644  17.402  0.00  0.00    +0.000 A 
ATOM      5  C   UNL     1       4.949   6.467  16.293  0.00  0.00    +0.000 A 
ATOM      6  C   UNL     1       5.785   5.359  16.201  0.00  0.00    +0.000 A 
ATOM      7  C   UNL     1       5.807   4.434  17.243  0.00  0.00    +0.000 A 
ATOM      8  C   UNL     1       4.988   4.567  18.382  0.00  0.00    +0.000 A 
ATOM      9  C   UNL     1       4.110   5.698  18.466  0.00  0.00    +0.000 A 
ATOM     10  C   UNL     1       3.224   5.960  19.540  0.00  0.00    +0.000 A 
ENDROOT
BRANCH   1  12
ATOM     11  C   UNL     1       1.086   8.511  20.953  0.00  0.00    +0.000 C 
ATOM     12  O   UNL     1       1.604   7.211  20.687  0.00  0.00    +0.000 OA
ENDBRANCH   1  12
BRANCH   6  13
ATOM     13  C   UNL     1       6.673   5.216  15.017  0.00  0.00    +0.000 C 
ATOM     14  O   UNL     1       7.778   5.756  15.033  0.00  0.00    +0.000 OA
BRANCH  13  15
ATOM     15  C   UNL     1       6.275   4.412  13.828  0.00  0.00    +0.000 A 
ATOM     16  C   UNL     1       7.263   4.076  12.894  0.00  0.00    +0.000 A 
ATOM     17  C   UNL     1       6.936   3.309  11.775  0.00  0.00    +0.000 A 
ATOM     18  C   UNL     1       5.624   2.877  11.584  0.00  0.00    +0.000 A 
ATOM     19  C   UNL     1       4.633   3.225  12.501  0.00  0.00    +0.000 A 
ATOM     20  C   UNL     1       4.953   4.003  13.615  0.00  0.00    +0.000 A 
ENDBRANCH  13  15
ENDBRANCH   6  13
BRANCH   8  21
ATOM     21  C   UNL     1       5.018   3.456  19.436  0.00  0.00    +0.000 C 
BRANCH  21  22
ATOM     22  C   UNL     1       4.104   2.249  19.128  0.00  0.00    +0.000 C 
BRANCH  22  23
ATOM     23  N   UNL     1       2.698   2.443  19.431  0.00  0.00    +0.000 N 
ATOM     24  C   UNL     1       1.799   2.702  18.417  0.00  0.00    +0.000 C 
ATOM     25  C   UNL     1       0.353   2.566  18.818  0.00  0.00    +0.000 C 
ATOM     26  O   UNL     1       2.130   3.007  17.276  0.00  0.00    +0.000 OA
ATOM     27  H   UNL     1       2.345   1.995  20.266  0.00  0.00    +0.000 HD
ENDBRANCH  22  23
ENDBRANCH  21  22
ENDBRANCH   8  21
TORSDOF 6
ENDMDL
MODEL 2
REMARK VINA RESULT:      -7.8      2.257      4.247
REMARK  Name = 
REMARK  8 active torsions:
REMARK  status: ('A' for Active; 'I' for Inactive)
REMARK    1  A    between atoms: C_1  and  O_2
REMARK    2  A    between atoms: O_2  and  C_3
REMARK    3  A    between atoms: C_8  and  C_9
REMARK    4  A    between atoms: C_9  and  C_11
REMARK    5  A    between atoms: C_18  and  C_19
REMARK    6  A    between atoms: C_19  and  C_20
REMARK    7  A    between atoms: C_20  and  N_21
REMARK    8  A    between atoms: C_22  and  C_23
REMARK                            x       y       z     vdW  Elec       q    Type
REMARK                         _______ _______ _______ _____ _____    ______ ____
ROOT
ATOM      1  C   UNL     1       1.825   3.081  19.462  0.00  0.00    +0.000 A 
ATOM      2  C   UNL     1       2.494   2.047  18.819  0.00  0.00    +0.000 A 
ATOM      3  C   UNL     1       3.526   2.339  17.929  0.00  0.00    +0.000 A 
ATOM      4  C   UNL     1       3.899   3.663  17.662  0.00  0.00    +0.000 A 
ATOM      5  C   UNL     1       4.945   3.897  16.762  0.00  0.00    +0.000 A 
ATOM      6  C   UNL     1       5.361   5.193  16.475  0.00  0.00    +0.000 A 
ATOM      7  C   UNL     1       4.705   6.267  17.073  0.00  0.00    +0.000 A 
ATOM      8  C   UNL     1       3.645   6.086  17.983  0.00  0.00    +0.000 A 
ATOM      9  C   UNL     1       3.231   4.749  18.296  0.00  0.00    +0.000 A 
ATOM     10  C   UNL     1       2.192   4.411  19.198  0.00  0.00    +0.000 A 
ENDROOT
BRANCH   1  12
ATOM     11  C   UNL     1       1.145   2.736  21.710  0.00  0.00    +0.000 C 
ATOM     12  O   UNL     1       0.788   2.919  20.343  0.00  0.00    +0.000 OA
ENDBRANCH   1  12
BRANCH   6  13
ATOM     13  C   UNL     1       6.462   5.402  15.497  0.00  0.00    +0.000 C 
ATOM     14  O   UNL     1       7.415   6.109  15.817  0.00  0.00    +0.000 OA
BRANCH  13  15
ATOM     15  C   UNL     1       6.458   4.751  14.157  0.00  0.00    +0.000 A 
ATOM     16  C   UNL     1       7.500   5.052  13.271  0.00  0.00    +0.000 A 
ATOM     17  C   UNL     1       7.543   4.451  12.012  0.00  0.00    +0.000 A 
ATOM     18  C   UNL     1       6.548   3.551  11.634  0.00  0.00    +0.000 A 
ATOM     19  C   UNL     1       5.498   3.263  12.505  0.00  0.00    +0.000 A 
ATOM     20  C   UNL     1       5.443   3.872  13.760  0.00  0.00    +0.000 A 
ENDBRANCH  13  15
ENDBRANCH   6  13
BRANCH   8  21
ATOM     21  C   UNL     1       3.042   7.323  18.656  0.00  0.00    +0.000 C 
BRANCH  21  22
ATOM     22  C   UNL     1       2.155   8.192  17.737  0.00  0.00    +0.000 C 
BRANCH  22  23
ATOM     23  N   UNL     1       1.966   9.563  18.175  0.00  0.00    +0.000 N 
ATOM     24  C   UNL     1       0.702  10.113  18.211  0.00  0.00    +0.000 C 
ATOM     25  C   UNL     1       0.608  11.409  18.974  0.00  0.00    +0.000 C 
ATOM     26  O   UNL     1      -0.278   9.599  17.682  0.00  0.00    +0.000 OA
ATOM     27  H   UNL     1       2.658   9.938  18.811  0.00  0.00    +0.000 HD
ENDBRANCH  22  23
ENDBRANCH  21  22
ENDBRANCH   8  21
TORSDOF 6
ENDMDL
MODEL 3
REMARK VINA RESULT:      -7.7      4.766      7.638
REMARK  Name = 
REMARK  8 active torsions:
REMARK  status: ('A' for Active; 'I' for Inactive)
REMARK    1  A    between atoms: C_1  and  O_2
REMARK    2  A    between atoms: O_2  and  C_3
REMARK    3  A    between atoms: C_8  and  C_9
REMARK    4  A    between atoms: C_9  and  C_11
REMARK    5  A    between atoms: C_18  and  C_19
REMARK    6  A    between atoms: C_19  and  C_20
REMARK    7  A    between atoms: C_20  and  N_21
REMARK    8  A    between atoms: C_22  and  C_23
REMARK                            x       y       z     vdW  Elec       q    Type
REMARK                         _______ _______ _______ _____ _____    ______ ____
ROOT
ATOM      1  C   UNL     1      -0.980  11.260  22.703  0.00  0.00    +0.000 A 
ATOM      2  C   UNL     1      -0.551  10.133  23.393  0.00  0.00    +0.000 A 
ATOM      3  C   UNL     1       0.199   9.163  22.733  0.00  0.00    +0.000 A 
ATOM      4  C   UNL     1       0.525   9.297  21.376  0.00  0.00    +0.000 A 
ATOM      5  C   UNL     1       1.284   8.292  20.766  0.00  0.00    +0.000 A 
ATOM      6  C   UNL     1       1.644   8.387  19.425  0.00  0.00    +0.000 A 
ATOM      7  C   UNL     1       1.217   9.484  18.681  0.00  0.00    +0.000 A 
ATOM      8  C   UNL     1       0.448  10.521  19.247  0.00  0.00    +0.000 A 
ATOM      9  C   UNL     1       0.096  10.434  20.634  0.00  0.00    +0.000 A 
ATOM     10  C   UNL     1      -0.660  11.401  21.343  0.00  0.00    +0.000 A 
ENDROOT
BRANCH   1  12
ATOM     11  C   UNL     1      -1.189  13.584  23.141  0.00  0.00    +0.000 C 
ATOM     12  O   UNL     1      -1.734  12.271  23.239  0.00  0.00    +0.000 OA
ENDBRANCH   1  12
BRANCH   6  13
ATOM     13  C   UNL     1       2.434   7.289  18.807  0.00  0.00    +0.000 C 
ATOM     14  O   UNL     1       3.400   7.575  18.102  0.00  0.00    +0.000 OA
BRANCH  13  15
ATOM     15  C   UNL     1       2.108   5.855  19.045  0.00  0.00    +0.000 A 
ATOM     16  C   UNL     1       1.919   5.024  17.933  0.00  0.00    +0.000 A 
ATOM     17  C   UNL     1       1.629   3.671  18.112  0.00  0.00    +0.000 A 
ATOM     18  C   UNL     1       1.526   3.143  19.398  0.00  0.00    +0.000 A 
ATOM     19  C   UNL     1       1.694   3.970  20.509  0.00  0.00    +0.000 A 
ATOM     20  C   UNL     1       1.971   5.327  20.335  0.00  0.00    +0.000 A 
ENDBRANCH  13  15
ENDBRANCH   6  13
BRANCH   8  21
ATOM     21  C   UNL     1       0.098  11.730  18.373  0.00  0.00    +0.000 C 
BRANCH  21  22
ATOM     22  C   UNL     1      -1.415  11.951  18.152  0.00  0.00    +0.000 C 
BRANCH  22  23
ATOM     23  N   UNL     1      -1.879  11.742  16.792  0.00  0.00    +0.000 N 
ATOM     24  C   UNL     1      -2.471  10.549  16.435  0.00  0.00    +0.000 C 
ATOM     25  C   UNL     1      -3.183  10.579  15.108  0.00  0.00    +0.000 C 
ATOM     26  O   UNL     1      -2.439   9.540  17.131  0.00  0.00    +0.000 OA
ATOM     27  H   UNL     1      -2.136  12.568  16.267  0.00  0.00    +0.000 HD
ENDBRANCH  22  23
ENDBRANCH  21  22
ENDBRANCH   8  21
TORSDOF 6
ENDMDL
MODEL 4
REMARK VINA RESULT:      -7.7      0.924      1.314
REMARK  Name = 
REMARK  8 active torsions:
REMARK  status: ('A' for Active; 'I' for Inactive)
REMARK    1  A    between atoms: C_1  and  O_2
REMARK    2  A    between atoms: O_2  and  C_3
REMARK    3  A    between atoms: C_8  and  C_9
REMARK    4  A    between atoms: C_9  and  C_11
REMARK    5  A    between atoms: C_18  and  C_19
REMARK    6  A    between atoms: C_19  and  C_20
REMARK    7  A    between atoms: C_20  and  N_21
REMARK    8  A    between atoms: C_22  and  C_23
REMARK                            x       y       z     vdW  Elec       q    Type
REMARK                         _______ _______ _______ _____ _____    ______ ____
ROOT
ATOM      1  C   UNL     1       1.936   7.362  19.621  0.00  0.00    +0.000 A 
ATOM      2  C   UNL     1       2.058   8.259  18.567  0.00  0.00    +0.000 A 
ATOM      3  C   UNL     1       3.025   8.045  17.586  0.00  0.00    +0.000 A 
ATOM      4  C   UNL     1       3.887   6.943  17.647  0.00  0.00    +0.000 A 
ATOM      5  C   UNL     1       4.837   6.777  16.633  0.00  0.00    +0.000 A 
ATOM      6  C   UNL     1       5.707   5.691  16.642  0.00  0.00    +0.000 A 
ATOM      7  C   UNL     1       5.643   4.777  17.691  0.00  0.00    +0.000 A 
ATOM      8  C   UNL     1       4.708   4.900  18.738  0.00  0.00    +0.000 A 
ATOM      9  C   UNL     1       3.798   6.007  18.717  0.00  0.00    +0.000 A 
ATOM     10  C   UNL     1       2.798   6.256  19.691  0.00  0.00    +0.000 A 
ENDROOT
BRANCH   1  12
ATOM     11  C   UNL     1       1.330   8.458  21.637  0.00  0.00    +0.000 C 
ATOM     12  O   UNL     1       1.037   7.475  20.649  0.00  0.00    +0.000 OA
ENDBRANCH   1  12
BRANCH   6  13
ATOM     13  C   UNL     1       6.716   5.560  15.557  0.00  0.00    +0.000 C 
ATOM     14  O   UNL     1       7.813   6.097  15.698  0.00  0.00    +0.000 OA
BRANCH  13  15
ATOM     15  C   UNL     1       6.446   4.772  14.323  0.00  0.00    +0.000 A 
ATOM     16  C   UNL     1       5.228   4.090  14.224  0.00  0.00    +0.000 A 
ATOM     17  C   UNL     1       4.928   3.354  13.077  0.00  0.00    +0.000 A 
ATOM     18  C   UNL     1       5.844   3.294  12.027  0.00  0.00    +0.000 A 
ATOM     19  C   UNL     1       7.068   3.955  12.129  0.00  0.00    +0.000 A 
ATOM     20  C   UNL     1       7.377   4.682  13.280  0.00  0.00    +0.000 A 
ENDBRANCH  13  15
ENDBRANCH   6  13
BRANCH   8  21
ATOM     21  C   UNL     1       4.656   3.799  19.803  0.00  0.00    +0.000 C 
BRANCH  21  22
ATOM     22  C   UNL     1       4.132   2.436  19.300  0.00  0.00    +0.000 C 
BRANCH  22  23
ATOM     23  N   UNL     1       2.810   2.464  18.701  0.00  0.00    +0.000 N 
ATOM     24  C   UNL     1       1.685   2.407  19.497  0.00  0.00    +0.000 C 
ATOM     25  C   UNL     1       0.403   2.763  18.790  0.00  0.00    +0.000 C 
ATOM     26  O   UNL     1       1.708   2.105  20.685  0.00  0.00    +0.000 OA
ATOM     27  H   UNL     1       2.726   2.925  17.804  0.00  0.00    +0.000 HD
ENDBRANCH  22  23
ENDBRANCH  21  22
ENDBRANCH   8  21
TORSDOF 6
ENDMDL
MODEL 5
REMARK VINA RESULT:      -7.7      4.699      7.322
REMARK  Name = 
REMARK  8 active torsions:
REMARK  status: ('A' for Active; 'I' for Inactive)
REMARK    1  A    between atoms: C_1  and  O_2
REMARK    2  A    between atoms: O_2  and  C_3
REMARK    3  A    between atoms: C_8  and  C_9
REMARK    4  A    between atoms: C_9  and  C_11
REMARK    5  A    between atoms: C_18  and  C_19
REMARK    6  A    between atoms: C_19  and  C_20
REMARK    7  A    between atoms: C_20  and  N_21
REMARK    8  A    between atoms: C_22  and  C_23
REMARK                            x       y       z     vdW  Elec       q    Type
REMARK                         _______ _______ _______ _____ _____    ______ ____
ROOT
ATOM      1  C   UNL     1      -0.760  10.810  22.686  0.00  0.00    +0.000 A 
ATOM      2  C   UNL     1      -0.223   9.651  23.233  0.00  0.00    +0.000 A 
ATOM      3  C   UNL     1       0.542   8.802  22.436  0.00  0.00    +0.000 A 
ATOM      4  C   UNL     1       0.774   9.090  21.085  0.00  0.00    +0.000 A 
ATOM      5  C   UNL     1       1.553   8.202  20.334  0.00  0.00    +0.000 A 
ATOM      6  C   UNL     1       1.823   8.451  18.992  0.00  0.00    +0.000 A 
ATOM      7  C   UNL     1       1.286   9.586  18.389  0.00  0.00    +0.000 A 
ATOM      8  C   UNL     1       0.493  10.510  19.099  0.00  0.00    +0.000 A 
ATOM      9  C   UNL     1       0.233  10.264  20.488  0.00  0.00    +0.000 A 
ATOM     10  C   UNL     1      -0.534  11.104  21.332  0.00  0.00    +0.000 A 
ENDROOT
BRANCH   1  12
ATOM     11  C   UNL     1      -1.297  13.088  23.085  0.00  0.00    +0.000 C 
ATOM     12  O   UNL     1      -1.538  11.711  23.364  0.00  0.00    +0.000 OA
ENDBRANCH   1  12
BRANCH   6  13
ATOM     13  C   UNL     1       2.637   7.474  18.222  0.00  0.00    +0.000 C 
ATOM     14  O   UNL     1       3.376   7.886  17.330  0.00  0.00    +0.000 OA
BRANCH  13  15
ATOM     15  C   UNL     1       2.607   6.015  18.522  0.00  0.00    +0.000 A 
ATOM     16  C   UNL     1       3.620   5.483  19.329  0.00  0.00    +0.000 A 
ATOM     17  C   UNL     1       3.620   4.125  19.649  0.00  0.00    +0.000 A 
ATOM     18  C   UNL     1       2.610   3.294  19.164  0.00  0.00    +0.000 A 
ATOM     19  C   UNL     1       1.609   3.815  18.345  0.00  0.00    +0.000 A 
ATOM     20  C   UNL     1       1.613   5.171  18.012  0.00  0.00    +0.000 A 
ENDBRANCH  13  15
ENDBRANCH   6  13
BRANCH   8  21
ATOM     21  C   UNL     1       0.018  11.773  18.374  0.00  0.00    +0.000 C 
BRANCH  21  22
ATOM     22  C   UNL     1      -1.513  11.876  18.191  0.00  0.00    +0.000 C 
BRANCH  22  23
ATOM     23  N   UNL     1      -1.980  11.771  16.821  0.00  0.00    +0.000 N 
ATOM     24  C   UNL     1      -2.394  10.554  16.319  0.00  0.00    +0.000 C 
ATOM     25  C   UNL     1      -3.144  10.641  15.015  0.00  0.00    +0.000 C 
ATOM     26  O   UNL     1      -2.188   9.483  16.880  0.00  0.00    +0.000 OA
ATOM     27  H   UNL     1      -2.377  12.606  16.409  0.00  0.00    +0.000 HD
ENDBRANCH  22  23
ENDBRANCH  21  22
ENDBRANCH   8  21
TORSDOF 6
ENDMDL
MODEL 6
REMARK VINA RESULT:      -7.6      4.724      7.676
REMARK  Name = 
REMARK  8 active torsions:
REMARK  status: ('A' for Active; 'I' for Inactive)
REMARK    1  A    between atoms: C_1  and  O_2
REMARK    2  A    between atoms: O_2  and  C_3
REMARK    3  A    between atoms: C_8  and  C_9
REMARK    4  A    between atoms: C_9  and  C_11
REMARK    5  A    between atoms: C_18  and  C_19
REMARK    6  A    between atoms: C_19  and  C_20
REMARK    7  A    between atoms: C_20  and  N_21
REMARK    8  A    between atoms: C_22  and  C_23
REMARK                            x       y       z     vdW  Elec       q    Type
REMARK                         _______ _______ _______ _____ _____    ______ ____
ROOT
ATOM      1  C   UNL     1      -0.813  11.216  22.686  0.00  0.00    +0.000 A 
ATOM      2  C   UNL     1      -0.409  10.110  23.424  0.00  0.00    +0.000 A 
ATOM      3  C   UNL     1       0.311   9.091  22.805  0.00  0.00    +0.000 A 
ATOM      4  C   UNL     1       0.630   9.155  21.441  0.00  0.00    +0.000 A 
ATOM      5  C   UNL     1       1.358   8.103  20.873  0.00  0.00    +0.000 A 
ATOM      6  C   UNL     1       1.710   8.127  19.527  0.00  0.00    +0.000 A 
ATOM      7  C   UNL     1       1.305   9.200  18.736  0.00  0.00    +0.000 A 
ATOM      8  C   UNL     1       0.569  10.282  19.259  0.00  0.00    +0.000 A 
ATOM      9  C   UNL     1       0.225  10.268  20.651  0.00  0.00    +0.000 A 
ATOM     10  C   UNL     1      -0.500  11.285  21.319  0.00  0.00    +0.000 A 
ENDROOT
BRANCH   1  12
ATOM     11  C   UNL     1      -2.910  12.014  23.460  0.00  0.00    +0.000 C 
ATOM     12  O   UNL     1      -1.536  12.269  23.180  0.00  0.00    +0.000 OA
ENDBRANCH   1  12
BRANCH   6  13
ATOM     13  C   UNL     1       2.466   6.981  18.955  0.00  0.00    +0.000 C 
ATOM     14  O   UNL     1       3.510   7.203  18.345  0.00  0.00    +0.000 OA
BRANCH  13  15
ATOM     15  C   UNL     1       2.012   5.573  19.129  0.00  0.00    +0.000 A 
ATOM     16  C   UNL     1       1.774   5.108  20.428  0.00  0.00    +0.000 A 
ATOM     17  C   UNL     1       1.331   3.801  20.633  0.00  0.00    +0.000 A 
ATOM     18  C   UNL     1       1.125   2.954  19.544  0.00  0.00    +0.000 A 
ATOM     19  C   UNL     1       1.378   3.406  18.249  0.00  0.00    +0.000 A 
ATOM     20  C   UNL     1       1.834   4.709  18.040  0.00  0.00    +0.000 A 
ENDBRANCH  13  15
ENDBRANCH   6  13
BRANCH   8  21
ATOM     21  C   UNL     1       0.243  11.458  18.333  0.00  0.00    +0.000 C 
BRANCH  21  22
ATOM     22  C   UNL     1      -1.241  11.561  17.915  0.00  0.00    +0.000 C 
BRANCH  22  23
ATOM     23  N   UNL     1      -1.642  10.681  16.832  0.00  0.00    +0.000 N 
ATOM     24  C   UNL     1      -2.877  10.831  16.237  0.00  0.00    +0.000 C 
ATOM     25  C   UNL     1      -3.039  10.081  14.940  0.00  0.00    +0.000 C 
ATOM     26  O   UNL     1      -3.778  11.520  16.704  0.00  0.00    +0.000 OA
ATOM     27  H   UNL     1      -0.900  10.276  16.276  0.00  0.00    +0.000 HD
ENDBRANCH  22  23
ENDBRANCH  21  22
ENDBRANCH   8  21
TORSDOF 6
ENDMDL
MODEL 7
REMARK VINA RESULT:      -7.5      1.861      4.088
REMARK  Name = 
REMARK  8 active torsions:
REMARK  status: ('A' for Active; 'I' for Inactive)
REMARK    1  A    between atoms: C_1  and  O_2
REMARK    2  A    between atoms: O_2  and  C_3
REMARK    3  A    between atoms: C_8  and  C_9
REMARK    4  A    between atoms: C_9  and  C_11
REMARK    5  A    between atoms: C_18  and  C_19
REMARK    6  A    between atoms: C_19  and  C_20
REMARK    7  A    between atoms: C_20  and  N_21
REMARK    8  A    between atoms: C_22  and  C_23
REMARK                            x       y       z     vdW  Elec       q    Type
REMARK                         _______ _______ _______ _____ _____    ______ ____
ROOT
ATOM      1  C   UNL     1       1.948   3.172  19.611  0.00  0.00    +0.000 A 
ATOM      2  C   UNL     1       2.870   2.179  19.303  0.00  0.00    +0.000 A 
ATOM      3  C   UNL     1       3.947   2.470  18.470  0.00  0.00    +0.000 A 
ATOM      4  C   UNL     1       4.116   3.751  17.926  0.00  0.00    +0.000 A 
ATOM      5  C   UNL     1       5.219   3.987  17.097  0.00  0.00    +0.000 A 
ATOM      6  C   UNL     1       5.437   5.245  16.544  0.00  0.00    +0.000 A 
ATOM      7  C   UNL     1       4.528   6.269  16.800  0.00  0.00    +0.000 A 
ATOM      8  C   UNL     1       3.400   6.082  17.624  0.00  0.00    +0.000 A 
ATOM      9  C   UNL     1       3.187   4.792  18.212  0.00  0.00    +0.000 A 
ATOM     10  C   UNL     1       2.109   4.456  19.068  0.00  0.00    +0.000 A 
ENDROOT
BRANCH   1  12
ATOM     11  C   UNL     1       1.092   2.664  21.766  0.00  0.00    +0.000 C 
ATOM     12  O   UNL     1       0.844   3.001  20.404  0.00  0.00    +0.000 OA
ENDBRANCH   1  12
BRANCH   6  13
ATOM     13  C   UNL     1       6.609   5.452  15.652  0.00  0.00    +0.000 C 
ATOM     14  O   UNL     1       7.568   6.099  16.070  0.00  0.00    +0.000 OA
BRANCH  13  15
ATOM     15  C   UNL     1       6.668   4.871  14.282  0.00  0.00    +0.000 A 
ATOM     16  C   UNL     1       7.656   5.336  13.406  0.00  0.00    +0.000 A 
ATOM     17  C   UNL     1       7.757   4.805  12.119  0.00  0.00    +0.000 A 
ATOM     18  C   UNL     1       6.872   3.811  11.703  0.00  0.00    +0.000 A 
ATOM     19  C   UNL     1       5.874   3.357  12.566  0.00  0.00    +0.000 A 
ATOM     20  C   UNL     1       5.762   3.895  13.849  0.00  0.00    +0.000 A 
ENDBRANCH  13  15
ENDBRANCH   6  13
BRANCH   8  21
ATOM     21  C   UNL     1       2.503   7.289  17.918  0.00  0.00    +0.000 C 
BRANCH  21  22
ATOM     22  C   UNL     1       2.309   7.601  19.418  0.00  0.00    +0.000 C 
BRANCH  22  23
ATOM     23  N   UNL     1       1.423   8.713  19.710  0.00  0.00    +0.000 N 
ATOM     24  C   UNL     1       1.021   8.960  21.006  0.00  0.00    +0.000 C 
ATOM     25  C   UNL     1       0.377  10.306  21.213  0.00  0.00    +0.000 C 
ATOM     26  O   UNL     1       1.177   8.167  21.928  0.00  0.00    +0.000 OA
ATOM     27  H   UNL     1       1.451   9.497  19.071  0.00  0.00    +0.000 HD
ENDBRANCH  22  23
ENDBRANCH  21  22
ENDBRANCH   8  21
TORSDOF 6
ENDMDL
MODEL 8
REMARK VINA RESULT:      -7.5      2.112      4.248
REMARK  Name = 
REMARK  8 active torsions:
REMARK  status: ('A' for Active; 'I' for Inactive)
REMARK    1  A    between atoms: C_1  and  O_2
REMARK    2  A    between atoms: O_2  and  C_3
REMARK    3  A    between atoms: C_8  and  C_9
REMARK    4  A    between atoms: C_9  and  C_11
REMARK    5  A    between atoms: C_18  and  C_19
REMARK    6  A    between atoms: C_19  and  C_20
REMARK    7  A    between atoms: C_20  and  N_21
REMARK    8  A    between atoms: C_22  and  C_23
REMARK                            x       y       z     vdW  Elec       q    Type
REMARK                         _______ _______ _______ _____ _____    ______ ____
ROOT
ATOM      1  C   UNL     1       2.280   3.669  19.666  0.00  0.00    +0.000 A 
ATOM      2  C   UNL     1       2.812   2.503  19.129  0.00  0.00    +0.000 A 
ATOM      3  C   UNL     1       3.719   2.578  18.075  0.00  0.00    +0.000 A 
ATOM      4  C   UNL     1       4.102   3.814  17.536  0.00  0.00    +0.000 A 
ATOM      5  C   UNL     1       5.020   3.829  16.479  0.00  0.00    +0.000 A 
ATOM      6  C   UNL     1       5.442   5.031  15.920  0.00  0.00    +0.000 A 
ATOM      7  C   UNL     1       4.919   6.228  16.404  0.00  0.00    +0.000 A 
ATOM      8  C   UNL     1       3.990   6.267  17.463  0.00  0.00    +0.000 A 
ATOM      9  C   UNL     1       3.572   5.029  18.054  0.00  0.00    +0.000 A 
ATOM     10  C   UNL     1       2.657   4.910  19.129  0.00  0.00    +0.000 A 
ENDROOT
BRANCH   1  12
ATOM     11  C   UNL     1       1.455   2.680  21.659  0.00  0.00    +0.000 C 
ATOM     12  O   UNL     1       1.371   3.720  20.689  0.00  0.00    +0.000 OA
ENDBRANCH   1  12
BRANCH   6  13
ATOM     13  C   UNL     1       6.403   5.005  14.785  0.00  0.00    +0.000 C 
ATOM     14  O   UNL     1       7.452   5.638  14.880  0.00  0.00    +0.000 OA
BRANCH  13  15
ATOM     15  C   UNL     1       6.145   4.208  13.554  0.00  0.00    +0.000 A 
ATOM     16  C   UNL     1       4.816   3.955  13.193  0.00  0.00    +0.000 A 
ATOM     17  C   UNL     1       4.530   3.228  12.037  0.00  0.00    +0.000 A 
ATOM     18  C   UNL     1       5.568   2.749  11.239  0.00  0.00    +0.000 A 
ATOM     19  C   UNL     1       6.894   2.981  11.604  0.00  0.00    +0.000 A 
ATOM     20  C   UNL     1       7.185   3.698  12.766  0.00  0.00    +0.000 A 
ENDBRANCH  13  15
ENDBRANCH   6  13
BRANCH   8  21
ATOM     21  C   UNL     1       3.536   7.634  17.985  0.00  0.00    +0.000 C 
BRANCH  21  22
ATOM     22  C   UNL     1       2.103   8.040  17.572  0.00  0.00    +0.000 C 
BRANCH  22  23
ATOM     23  N   UNL     1       1.836   9.467  17.587  0.00  0.00    +0.000 N 
ATOM     24  C   UNL     1       1.340  10.069  18.725  0.00  0.00    +0.000 C 
ATOM     25  C   UNL     1       1.410  11.574  18.713  0.00  0.00    +0.000 C 
ATOM     26  O   UNL     1       0.887   9.448  19.680  0.00  0.00    +0.000 OA
ATOM     27  H   UNL     1       2.380  10.039  16.953  0.00  0.00    +0.000 HD
ENDBRANCH  22  23
ENDBRANCH  21  22
ENDBRANCH   8  21
TORSDOF 6
ENDMDL
MODEL 9
REMARK VINA RESULT:      -7.5      2.829      4.294
REMARK  Name = 
REMARK  8 active torsions:
REMARK  status: ('A' for Active; 'I' for Inactive)
REMARK    1  A    between atoms: C_1  and  O_2
REMARK    2  A    between atoms: O_2  and  C_3
REMARK    3  A    between atoms: C_8  and  C_9
REMARK    4  A    between atoms: C_9  and  C_11
REMARK    5  A    between atoms: C_18  and  C_19
REMARK    6  A    between atoms: C_19  and  C_20
REMARK    7  A    between atoms: C_20  and  N_21
REMARK    8  A    between atoms: C_22  and  C_23
REMARK                            x       y       z     vdW  Elec       q    Type
REMARK                         _______ _______ _______ _____ _____    ______ ____
ROOT
ATOM      1  C   UNL     1       3.641   3.945  19.307  0.00  0.00    +0.000 A 
ATOM      2  C   UNL     1       2.772   3.711  18.248  0.00  0.00    +0.000 A 
ATOM      3  C   UNL     1       3.244   3.778  16.939  0.00  0.00    +0.000 A 
ATOM      4  C   UNL     1       4.583   4.087  16.666  0.00  0.00    +0.000 A 
ATOM      5  C   UNL     1       5.002   4.137  15.332  0.00  0.00    +0.000 A 
ATOM      6  C   UNL     1       6.325   4.426  15.012  0.00  0.00    +0.000 A 
ATOM      7  C   UNL     1       7.230   4.695  16.035  0.00  0.00    +0.000 A 
ATOM      8  C   UNL     1       6.859   4.661  17.394  0.00  0.00    +0.000 A 
ATOM      9  C   UNL     1       5.501   4.341  17.725  0.00  0.00    +0.000 A 
ATOM     10  C   UNL     1       4.983   4.258  19.042  0.00  0.00    +0.000 A 
ENDROOT
BRANCH   1  12
ATOM     11  C   UNL     1       2.444   2.852  21.041  0.00  0.00    +0.000 C 
ATOM     12  O   UNL     1       3.290   3.923  20.631  0.00  0.00    +0.000 OA
ENDBRANCH   1  12
BRANCH   6  13
ATOM     13  C   UNL     1       6.727   4.490  13.581  0.00  0.00    +0.000 C 
ATOM     14  O   UNL     1       7.575   5.312  13.238  0.00  0.00    +0.000 OA
BRANCH  13  15
ATOM     15  C   UNL     1       6.158   3.566  12.562  0.00  0.00    +0.000 A 
ATOM     16  C   UNL     1       6.995   2.589  12.009  0.00  0.00    +0.000 A 
ATOM     17  C   UNL     1       6.497   1.693  11.064  0.00  0.00    +0.000 A 
ATOM     18  C   UNL     1       5.162   1.769  10.665  0.00  0.00    +0.000 A 
ATOM     19  C   UNL     1       4.329   2.752  11.198  0.00  0.00    +0.000 A 
ATOM     20  C   UNL     1       4.827   3.659  12.134  0.00  0.00    +0.000 A 
ENDBRANCH  13  15
ENDBRANCH   6  13
BRANCH   8  21
ATOM     21  C   UNL     1       7.943   4.886  18.453  0.00  0.00    +0.000 C 
BRANCH  21  22
ATOM     22  C   UNL     1       7.731   6.131  19.342  0.00  0.00    +0.000 C 
BRANCH  22  23
ATOM     23  N   UNL     1       8.462   7.316  18.932  0.00  0.00    +0.000 N 
ATOM     24  C   UNL     1       7.920   8.181  18.004  0.00  0.00    +0.000 C 
ATOM     25  C   UNL     1       8.620   9.511  17.908  0.00  0.00    +0.000 C 
ATOM     26  O   UNL     1       6.943   7.911  17.314  0.00  0.00    +0.000 OA
ATOM     27  H   UNL     1       9.121   7.698  19.598  0.00  0.00    +0.000 HD
ENDBRANCH  22  23
ENDBRANCH  21  22
ENDBRANCH   8  21
TORSDOF 6
ENDMDL
