MODEL 1
REMARK VINA RESULT:      -7.9      0.000      0.000
REMARK  Name = 
REMARK  6 active torsions:
REMARK  status: ('A' for Active; 'I' for Inactive)
REMARK    1  A    between atoms: C_1  and  C_2
REMARK    2  A    between atoms: C_4  and  C_5
REMARK    3  A    between atoms: C_5  and  N_6
REMARK    4  A    between atoms: C_7  and  C_9
REMARK    5  A    between atoms: C_9  and  O_10
REMARK    6  A    between atoms: O_10  and  C_11
REMARK                            x       y       z     vdW  Elec       q    Type
REMARK                         _______ _______ _______ _____ _____    ______ ____
ROOT
ATOM      1  C   UNL     1       4.195   3.516  16.723  0.00  0.00    +0.000 C 
ENDROOT
BRANCH   1   5
ATOM      2  C   UNL     1       7.743   6.886  17.869  0.00  0.00    +0.000 C 
ATOM      3  C   UNL     1       7.068   5.976  16.888  0.00  0.00    +0.000 A 
ATOM      4  C   UNL     1       5.961   5.218  17.247  0.00  0.00    +0.000 A 
ATOM      5  C   UNL     1       5.373   4.365  16.301  0.00  0.00    +0.000 A 
ATOM      6  C   UNL     1       5.916   4.323  14.990  0.00  0.00    +0.000 A 
ATOM      7  C   UNL     1       5.406   3.523  13.940  0.00  0.00    +0.000 A 
ATOM      8  C   UNL     1       6.000   3.510  12.679  0.00  0.00    +0.000 A 
ATOM      9  C   UNL     1       7.116   4.298  12.441  0.00  0.00    +0.000 A 
ATOM     10  C   UNL     1       7.623   5.099  13.466  0.00  0.00    +0.000 A 
ATOM     11  C   UNL     1       7.047   5.131  14.728  0.00  0.00    +0.000 A 
ATOM     12  N   UNL     1       7.604   5.932  15.650  0.00  0.00    +0.000 NA
ENDBRANCH   1   5
BRANCH   1  13
ATOM     13  N   UNL     1       3.273   4.248  17.563  0.00  0.00    +0.000 N 
ATOM     14  C   UNL     1       2.819   3.750  18.769  0.00  0.00    +0.000 C 
ATOM     15  O   UNL     1       3.109   2.632  19.188  0.00  0.00    +0.000 OA
ATOM     16  H   UNL     1       3.084   5.212  17.329  0.00  0.00    +0.000 HD
BRANCH  14  17
ATOM     17  C   UNL     1       1.912   4.706  19.546  0.00  0.00    +0.000 C 
BRANCH  17  18
ATOM     18  O   UNL     1       2.689   5.802  20.017  0.00  0.00    +0.000 OA
BRANCH  18  19
ATOM     19  C   UNL     1       2.211   7.045  19.695  0.00  0.00    +0.000 A 
ATOM     20  C   UNL     1       2.393   7.437  18.366  0.00  0.00    +0.000 A 
ATOM     21  C   UNL     1       1.916   8.673  17.920  0.00  0.00    +0.000 A 
ATOM     22  C   UNL     1       1.239   9.515  18.799  0.00  0.00    +0.000 A 
ATOM     23  C   UNL     1       1.040   9.121  20.121  0.00  0.00    +0.000 A 
ATOM     24  C   UNL     1       1.525   7.888  20.570  0.00  0.00    +0.000 A 
ENDBRANCH  18  19
ENDBRANCH  17  18
ENDBRANCH  14  17
ENDBRANCH   1  13
TORSDOF 5
ENDMDL
MODEL 2
REMARK VINA RESULT:      -7.8      3.549      6.526
REMARK  Name = 
REMARK  6 active torsions:
REMARK  status: ('A' for Active; 'I' for Inactive)
REMARK    1  A    between atoms: C_1  and  C_2
REMARK    2  A    between atoms: C_4  and  C_5
REMARK    3  A    between atoms: C_5  and  N_6
REMARK    4  A    between atoms: C_7  and  C_9
REMARK    5  A    between atoms: C_9  and  O_10
REMARK    6  A    between atoms: O_10  and  C_11
REMARK                            x       y       z     vdW  Elec       q    Type
REMARK                         _______ _______ _______ _____ _____    ______ ____
ROOT
ATOM      1  C   UNL     1       6.193   4.982  17.887  0.00  0.00    +0.000 C 
ENDROOT
BRANCH   1   5
ATOM      2  C   UNL     1       2.433   8.317  17.882  0.00  0.00    +0.000 C 
ATOM      3  C   UNL     1       2.935   6.906  17.965  0.00  0.00    +0.000 A 
ATOM      4  C   UNL     1       4.292   6.617  17.919  0.00  0.00    +0.000 A 
ATOM      5  C   UNL     1       4.714   5.280  17.981  0.00  0.00    +0.000 A 
ATOM      6  C   UNL     1       3.735   4.261  18.116  0.00  0.00    +0.000 A 
ATOM      7  C   UNL     1       4.029   2.880  18.209  0.00  0.00    +0.000 A 
ATOM      8  C   UNL     1       3.017   1.927  18.318  0.00  0.00    +0.000 A 
ATOM      9  C   UNL     1       1.692   2.333  18.337  0.00  0.00    +0.000 A 
ATOM     10  C   UNL     1       1.391   3.694  18.255  0.00  0.00    +0.000 A 
ATOM     11  C   UNL     1       2.379   4.662  18.149  0.00  0.00    +0.000 A 
ATOM     12  N   UNL     1       1.993   5.945  18.076  0.00  0.00    +0.000 NA
ENDBRANCH   1   5
BRANCH   1  13
ATOM     13  N   UNL     1       6.997   6.032  18.473  0.00  0.00    +0.000 N 
ATOM     14  C   UNL     1       7.662   6.968  17.705  0.00  0.00    +0.000 C 
ATOM     15  O   UNL     1       7.677   6.944  16.477  0.00  0.00    +0.000 OA
ATOM     16  H   UNL     1       6.937   6.171  19.472  0.00  0.00    +0.000 HD
BRANCH  14  17
ATOM     17  C   UNL     1       8.394   8.042  18.512  0.00  0.00    +0.000 C 
BRANCH  17  18
ATOM     18  O   UNL     1       8.211   9.304  17.879  0.00  0.00    +0.000 OA
BRANCH  18  19
ATOM     19  C   UNL     1       8.846  10.360  18.476  0.00  0.00    +0.000 A 
ATOM     20  C   UNL     1       8.779  11.574  17.788  0.00  0.00    +0.000 A 
ATOM     21  C   UNL     1       9.365  12.725  18.323  0.00  0.00    +0.000 A 
ATOM     22  C   UNL     1      10.007  12.669  19.558  0.00  0.00    +0.000 A 
ATOM     23  C   UNL     1      10.062  11.464  20.256  0.00  0.00    +0.000 A 
ATOM     24  C   UNL     1       9.482  10.310  19.717  0.00  0.00    +0.000 A 
ENDBRANCH  18  19
ENDBRANCH  17  18
ENDBRANCH  14  17
ENDBRANCH   1  13
TORSDOF 5
ENDMDL
MODEL 3
REMARK VINA RESULT:      -7.8      3.596      6.587
REMARK  Name = 
REMARK  6 active torsions:
REMARK  status: ('A' for Active; 'I' for Inactive)
REMARK    1  A    between atoms: C_1  and  C_2
REMARK    2  A    between atoms: C_4  and  C_5
REMARK    3  A    between atoms: C_5  and  N_6
REMARK    4  A    between atoms: C_7  and  C_9
REMARK    5  A    between atoms: C_9  and  O_10
REMARK    6  A    between atoms: O_10  and  C_11
REMARK                            x       y       z     vdW  Elec       q    Type
REMARK                         _______ _______ _______ _____ _____    ______ ____
ROOT
ATOM      1  C   UNL     1       6.258   5.071  17.950  0.00  0.00    +0.000 C 
ENDROOT
BRANCH   1   5
ATOM      2  C   UNL     1       2.421   8.316  17.860  0.00  0.00    +0.000 C 
ATOM      3  C   UNL     1       2.954   6.917  17.949  0.00  0.00    +0.000 A 
ATOM      4  C   UNL     1       4.318   6.660  17.939  0.00  0.00    +0.000 A 
ATOM      5  C   UNL     1       4.770   5.334  18.005  0.00  0.00    +0.000 A 
ATOM      6  C   UNL     1       3.812   4.290  18.107  0.00  0.00    +0.000 A 
ATOM      7  C   UNL     1       4.136   2.916  18.200  0.00  0.00    +0.000 A 
ATOM      8  C   UNL     1       3.145   1.939  18.275  0.00  0.00    +0.000 A 
ATOM      9  C   UNL     1       1.811   2.314  18.260  0.00  0.00    +0.000 A 
ATOM     10  C   UNL     1       1.479   3.668  18.177  0.00  0.00    +0.000 A 
ATOM     11  C   UNL     1       2.447   4.659  18.105  0.00  0.00    +0.000 A 
ATOM     12  N   UNL     1       2.033   5.933  18.028  0.00  0.00    +0.000 NA
ENDBRANCH   1   5
BRANCH   1  13
ATOM     13  N   UNL     1       7.022   6.159  18.520  0.00  0.00    +0.000 N 
ATOM     14  C   UNL     1       7.683   7.086  17.739  0.00  0.00    +0.000 C 
ATOM     15  O   UNL     1       7.726   7.025  16.512  0.00  0.00    +0.000 OA
ATOM     16  H   UNL     1       6.936   6.326  19.513  0.00  0.00    +0.000 HD
BRANCH  14  17
ATOM     17  C   UNL     1       8.369   8.202  18.528  0.00  0.00    +0.000 C 
BRANCH  17  18
ATOM     18  O   UNL     1       8.337   9.401  17.760  0.00  0.00    +0.000 OA
BRANCH  18  19
ATOM     19  C   UNL     1       8.863  10.507  18.374  0.00  0.00    +0.000 A 
ATOM     20  C   UNL     1       9.472  10.281  19.611  0.00  0.00    +0.000 A 
ATOM     21  C   UNL     1      10.069  11.334  20.310  0.00  0.00    +0.000 A 
ATOM     22  C   UNL     1      10.074  12.616  19.765  0.00  0.00    +0.000 A 
ATOM     23  C   UNL     1       9.484  12.843  18.524  0.00  0.00    +0.000 A 
ATOM     24  C   UNL     1       8.878  11.791  17.828  0.00  0.00    +0.000 A 
ENDBRANCH  18  19
ENDBRANCH  17  18
ENDBRANCH  14  17
ENDBRANCH   1  13
TORSDOF 5
ENDMDL
MODEL 4
REMARK VINA RESULT:      -7.7      0.691      1.219
REMARK  Name = 
REMARK  6 active torsions:
REMARK  status: ('A' for Active; 'I' for Inactive)
REMARK    1  A    between atoms: C_1  and  C_2
REMARK    2  A    between atoms: C_4  and  C_5
REMARK    3  A    between atoms: C_5  and  N_6
REMARK    4  A    between atoms: C_7  and  C_9
REMARK    5  A    between atoms: C_9  and  O_10
REMARK    6  A    between atoms: O_10  and  C_11
REMARK                            x       y       z     vdW  Elec       q    Type
REMARK                         _______ _______ _______ _____ _____    ______ ____
ROOT
ATOM      1  C   UNL     1       4.295   3.660  17.314  0.00  0.00    +0.000 C 
ENDROOT
BRANCH   1   5
ATOM      2  C   UNL     1       7.811   7.174  18.055  0.00  0.00    +0.000 C 
ATOM      3  C   UNL     1       7.101   6.196  17.168  0.00  0.00    +0.000 A 
ATOM      4  C   UNL     1       6.041   5.430  17.636  0.00  0.00    +0.000 A 
ATOM      5  C   UNL     1       5.419   4.515  16.775  0.00  0.00    +0.000 A 
ATOM      6  C   UNL     1       5.878   4.418  15.434  0.00  0.00    +0.000 A 
ATOM      7  C   UNL     1       5.325   3.552  14.462  0.00  0.00    +0.000 A 
ATOM      8  C   UNL     1       5.838   3.489  13.167  0.00  0.00    +0.000 A 
ATOM      9  C   UNL     1       6.912   4.292  12.817  0.00  0.00    +0.000 A 
ATOM     10  C   UNL     1       7.461   5.157  13.765  0.00  0.00    +0.000 A 
ATOM     11  C   UNL     1       6.966   5.240  15.059  0.00  0.00    +0.000 A 
ATOM     12  N   UNL     1       7.557   6.102  15.901  0.00  0.00    +0.000 NA
ENDBRANCH   1   5
BRANCH   1  13
ATOM     13  N   UNL     1       3.597   4.306  18.403  0.00  0.00    +0.000 N 
ATOM     14  C   UNL     1       2.220   4.286  18.513  0.00  0.00    +0.000 C 
ATOM     15  O   UNL     1       1.484   3.778  17.670  0.00  0.00    +0.000 OA
ATOM     16  H   UNL     1       4.145   4.645  19.181  0.00  0.00    +0.000 HD
BRANCH  14  17
ATOM     17  C   UNL     1       1.678   4.959  19.775  0.00  0.00    +0.000 C 
BRANCH  17  18
ATOM     18  O   UNL     1       2.518   6.058  20.112  0.00  0.00    +0.000 OA
BRANCH  18  19
ATOM     19  C   UNL     1       2.108   7.278  19.643  0.00  0.00    +0.000 A 
ATOM     20  C   UNL     1       1.405   8.072  20.553  0.00  0.00    +0.000 A 
ATOM     21  C   UNL     1       0.967   9.349  20.189  0.00  0.00    +0.000 A 
ATOM     22  C   UNL     1       1.245   9.843  18.917  0.00  0.00    +0.000 A 
ATOM     23  C   UNL     1       1.959   9.062  18.011  0.00  0.00    +0.000 A 
ATOM     24  C   UNL     1       2.391   7.781  18.372  0.00  0.00    +0.000 A 
ENDBRANCH  18  19
ENDBRANCH  17  18
ENDBRANCH  14  17
ENDBRANCH   1  13
TORSDOF 5
ENDMDL
MODEL 5
REMARK VINA RESULT:      -7.7      3.210      5.859
REMARK  Name = 
REMARK  6 active torsions:
REMARK  status: ('A' for Active; 'I' for Inactive)
REMARK    1  A    between atoms: C_1  and  C_2
REMARK    2  A    between atoms: C_4  and  C_5
REMARK    3  A    between atoms: C_5  and  N_6
REMARK    4  A    between atoms: C_7  and  C_9
REMARK    5  A    between atoms: C_9  and  O_10
REMARK    6  A    between atoms: O_10  and  C_11
REMARK                            x       y       z     vdW  Elec       q    Type
REMARK                         _______ _______ _______ _____ _____    ______ ____
ROOT
ATOM      1  C   UNL     1       2.556   7.247  19.533  0.00  0.00    +0.000 C 
ENDROOT
BRANCH   1   5
ATOM      2  C   UNL     1       5.422   5.473  15.806  0.00  0.00    +0.000 C 
ATOM      3  C   UNL     1       4.358   5.285  16.845  0.00  0.00    +0.000 A 
ATOM      4  C   UNL     1       3.947   6.332  17.658  0.00  0.00    +0.000 A 
ATOM      5  C   UNL     1       2.961   6.105  18.630  0.00  0.00    +0.000 A 
ATOM      6  C   UNL     1       2.392   4.807  18.734  0.00  0.00    +0.000 A 
ATOM      7  C   UNL     1       1.379   4.453  19.656  0.00  0.00    +0.000 A 
ATOM      8  C   UNL     1       0.879   3.153  19.722  0.00  0.00    +0.000 A 
ATOM      9  C   UNL     1       1.379   2.182  18.869  0.00  0.00    +0.000 A 
ATOM     10  C   UNL     1       2.373   2.523  17.949  0.00  0.00    +0.000 A 
ATOM     11  C   UNL     1       2.885   3.810  17.861  0.00  0.00    +0.000 A 
ATOM     12  N   UNL     1       3.838   4.043  16.946  0.00  0.00    +0.000 NA
ENDBRANCH   1   5
BRANCH   1  13
ATOM     13  N   UNL     1       1.795   8.254  18.827  0.00  0.00    +0.000 N 
ATOM     14  C   UNL     1       1.085   9.239  19.485  0.00  0.00    +0.000 C 
ATOM     15  O   UNL     1       0.992   9.300  20.709  0.00  0.00    +0.000 OA
ATOM     16  H   UNL     1       1.919   8.324  17.827  0.00  0.00    +0.000 HD
BRANCH  14  17
ATOM     17  C   UNL     1       0.411  10.255  18.561  0.00  0.00    +0.000 C 
BRANCH  17  18
ATOM     18  O   UNL     1      -0.897  10.532  19.052  0.00  0.00    +0.000 OA
BRANCH  18  19
ATOM     19  C   UNL     1      -1.887  10.560  18.106  0.00  0.00    +0.000 A 
ATOM     20  C   UNL     1      -2.946  11.434  18.364  0.00  0.00    +0.000 A 
ATOM     21  C   UNL     1      -3.996  11.565  17.451  0.00  0.00    +0.000 A 
ATOM     22  C   UNL     1      -3.981  10.833  16.265  0.00  0.00    +0.000 A 
ATOM     23  C   UNL     1      -2.919   9.973  15.996  0.00  0.00    +0.000 A 
ATOM     24  C   UNL     1      -1.873   9.835  16.914  0.00  0.00    +0.000 A 
ENDBRANCH  18  19
ENDBRANCH  17  18
ENDBRANCH  14  17
ENDBRANCH   1  13
TORSDOF 5
ENDMDL
MODEL 6
REMARK VINA RESULT:      -7.6      3.653      6.994
REMARK  Name = 
REMARK  6 active torsions:
REMARK  status: ('A' for Active; 'I' for Inactive)
REMARK    1  A    between atoms: C_1  and  C_2
REMARK    2  A    between atoms: C_4  and  C_5
REMARK    3  A    between atoms: C_5  and  N_6
REMARK    4  A    between atoms: C_7  and  C_9
REMARK    5  A    between atoms: C_9  and  O_10
REMARK    6  A    between atoms: O_10  and  C_11
REMARK                            x       y       z     vdW  Elec       q    Type
REMARK                         _______ _______ _______ _____ _____    ______ ____
ROOT
ATOM      1  C   UNL     1       5.878   6.185  16.717  0.00  0.00    +0.000 C 
ENDROOT
BRANCH   1   5
ATOM      2  C   UNL     1       1.797   8.735  18.167  0.00  0.00    +0.000 C 
ATOM      3  C   UNL     1       2.684   7.528  18.239  0.00  0.00    +0.000 A 
ATOM      4  C   UNL     1       3.848   7.439  17.488  0.00  0.00    +0.000 A 
ATOM      5  C   UNL     1       4.637   6.281  17.573  0.00  0.00    +0.000 A 
ATOM      6  C   UNL     1       4.230   5.242  18.451  0.00  0.00    +0.000 A 
ATOM      7  C   UNL     1       4.944   4.036  18.644  0.00  0.00    +0.000 A 
ATOM      8  C   UNL     1       4.477   3.043  19.505  0.00  0.00    +0.000 A 
ATOM      9  C   UNL     1       3.289   3.237  20.192  0.00  0.00    +0.000 A 
ATOM     10  C   UNL     1       2.580   4.427  20.017  0.00  0.00    +0.000 A 
ATOM     11  C   UNL     1       3.025   5.430  19.168  0.00  0.00    +0.000 A 
ATOM     12  N   UNL     1       2.277   6.539  19.064  0.00  0.00    +0.000 NA
ENDBRANCH   1   5
BRANCH   1  13
ATOM     13  N   UNL     1       6.675   7.391  16.779  0.00  0.00    +0.000 N 
ATOM     14  C   UNL     1       7.696   7.556  17.694  0.00  0.00    +0.000 C 
ATOM     15  O   UNL     1       7.964   6.727  18.561  0.00  0.00    +0.000 OA
ATOM     16  H   UNL     1       6.576   8.060  16.028  0.00  0.00    +0.000 HD
BRANCH  14  17
ATOM     17  C   UNL     1       8.469   8.868  17.548  0.00  0.00    +0.000 C 
BRANCH  17  18
ATOM     18  O   UNL     1       8.263   9.660  18.712  0.00  0.00    +0.000 OA
BRANCH  18  19
ATOM     19  C   UNL     1       9.300  10.487  19.053  0.00  0.00    +0.000 A 
ATOM     20  C   UNL     1      10.072  10.959  17.988  0.00  0.00    +0.000 A 
ATOM     21  C   UNL     1      11.138  11.834  18.218  0.00  0.00    +0.000 A 
ATOM     22  C   UNL     1      11.423  12.256  19.515  0.00  0.00    +0.000 A 
ATOM     23  C   UNL     1      10.646  11.802  20.578  0.00  0.00    +0.000 A 
ATOM     24  C   UNL     1       9.585  10.919  20.349  0.00  0.00    +0.000 A 
ENDBRANCH  18  19
ENDBRANCH  17  18
ENDBRANCH  14  17
ENDBRANCH   1  13
TORSDOF 5
ENDMDL
MODEL 7
REMARK VINA RESULT:      -7.6      3.461      5.763
REMARK  Name = 
REMARK  6 active torsions:
REMARK  status: ('A' for Active; 'I' for Inactive)
REMARK    1  A    between atoms: C_1  and  C_2
REMARK    2  A    between atoms: C_4  and  C_5
REMARK    3  A    between atoms: C_5  and  N_6
REMARK    4  A    between atoms: C_7  and  C_9
REMARK    5  A    between atoms: C_9  and  O_10
REMARK    6  A    between atoms: O_10  and  C_11
REMARK                            x       y       z     vdW  Elec       q    Type
REMARK                         _______ _______ _______ _____ _____    ______ ____
ROOT
ATOM      1  C   UNL     1       1.648   6.715  20.899  0.00  0.00    +0.000 C 
ENDROOT
BRANCH   1   5
ATOM      2  C   UNL     1       4.677   6.852  16.891  0.00  0.00    +0.000 C 
ATOM      3  C   UNL     1       3.702   6.133  17.773  0.00  0.00    +0.000 A 
ATOM      4  C   UNL     1       3.126   6.754  18.873  0.00  0.00    +0.000 A 
ATOM      5  C   UNL     1       2.233   6.036  19.682  0.00  0.00    +0.000 A 
ATOM      6  C   UNL     1       1.924   4.694  19.333  0.00  0.00    +0.000 A 
ATOM      7  C   UNL     1       1.027   3.869  20.052  0.00  0.00    +0.000 A 
ATOM      8  C   UNL     1       0.785   2.551  19.668  0.00  0.00    +0.000 A 
ATOM      9  C   UNL     1       1.433   2.030  18.559  0.00  0.00    +0.000 A 
ATOM     10  C   UNL     1       2.313   2.838  17.836  0.00  0.00    +0.000 A 
ATOM     11  C   UNL     1       2.568   4.154  18.196  0.00  0.00    +0.000 A 
ATOM     12  N   UNL     1       3.430   4.853  17.441  0.00  0.00    +0.000 NA
ENDBRANCH   1   5
BRANCH   1  13
ATOM     13  N   UNL     1       1.632   8.155  20.761  0.00  0.00    +0.000 N 
ATOM     14  C   UNL     1       0.572   8.927  21.195  0.00  0.00    +0.000 C 
ATOM     15  O   UNL     1      -0.457   8.452  21.669  0.00  0.00    +0.000 OA
ATOM     16  H   UNL     1       2.488   8.612  20.480  0.00  0.00    +0.000 HD
BRANCH  14  17
ATOM     17  C   UNL     1       0.779  10.434  21.029  0.00  0.00    +0.000 C 
BRANCH  17  18
ATOM     18  O   UNL     1       0.846  10.743  19.641  0.00  0.00    +0.000 OA
BRANCH  18  19
ATOM     19  C   UNL     1      -0.351  10.717  18.974  0.00  0.00    +0.000 A 
ATOM     20  C   UNL     1      -1.323  11.605  19.440  0.00  0.00    +0.000 A 
ATOM     21  C   UNL     1      -2.570  11.684  18.813  0.00  0.00    +0.000 A 
ATOM     22  C   UNL     1      -2.843  10.886  17.705  0.00  0.00    +0.000 A 
ATOM     23  C   UNL     1      -1.870  10.010  17.226  0.00  0.00    +0.000 A 
ATOM     24  C   UNL     1      -0.625   9.925  17.859  0.00  0.00    +0.000 A 
ENDBRANCH  18  19
ENDBRANCH  17  18
ENDBRANCH  14  17
ENDBRANCH   1  13
TORSDOF 5
ENDMDL
MODEL 8
REMARK VINA RESULT:      -7.5      3.676      7.042
REMARK  Name = 
REMARK  6 active torsions:
REMARK  status: ('A' for Active; 'I' for Inactive)
REMARK    1  A    between atoms: C_1  and  C_2
REMARK    2  A    between atoms: C_4  and  C_5
REMARK    3  A    between atoms: C_5  and  N_6
REMARK    4  A    between atoms: C_7  and  C_9
REMARK    5  A    between atoms: C_9  and  O_10
REMARK    6  A    between atoms: O_10  and  C_11
REMARK                            x       y       z     vdW  Elec       q    Type
REMARK                         _______ _______ _______ _____ _____    ______ ____
ROOT
ATOM      1  C   UNL     1       6.212   5.254  17.854  0.00  0.00    +0.000 C 
ENDROOT
BRANCH   1   5
ATOM      2  C   UNL     1       2.176   8.249  17.892  0.00  0.00    +0.000 C 
ATOM      3  C   UNL     1       2.868   6.977  18.278  0.00  0.00    +0.000 A 
ATOM      4  C   UNL     1       4.188   6.733  17.921  0.00  0.00    +0.000 A 
ATOM      5  C   UNL     1       4.789   5.519  18.288  0.00  0.00    +0.000 A 
ATOM      6  C   UNL     1       4.031   4.583  19.041  0.00  0.00    +0.000 A 
ATOM      7  C   UNL     1       4.524   3.335  19.490  0.00  0.00    +0.000 A 
ATOM      8  C   UNL     1       3.720   2.451  20.206  0.00  0.00    +0.000 A 
ATOM      9  C   UNL     1       2.407   2.795  20.491  0.00  0.00    +0.000 A 
ATOM     10  C   UNL     1       1.913   4.028  20.061  0.00  0.00    +0.000 A 
ATOM     11  C   UNL     1       2.694   4.927  19.349  0.00  0.00    +0.000 A 
ATOM     12  N   UNL     1       2.132   6.088  18.978  0.00  0.00    +0.000 NA
ENDBRANCH   1   5
BRANCH   1  13
ATOM     13  N   UNL     1       7.145   6.175  18.465  0.00  0.00    +0.000 N 
ATOM     14  C   UNL     1       7.604   7.303  17.813  0.00  0.00    +0.000 C 
ATOM     15  O   UNL     1       7.309   7.576  16.651  0.00  0.00    +0.000 OA
ATOM     16  H   UNL     1       7.340   6.066  19.450  0.00  0.00    +0.000 HD
BRANCH  14  17
ATOM     17  C   UNL     1       8.524   8.189  18.655  0.00  0.00    +0.000 C 
BRANCH  17  18
ATOM     18  O   UNL     1       8.588   9.483  18.064  0.00  0.00    +0.000 OA
BRANCH  18  19
ATOM     19  C   UNL     1       9.340  10.404  18.745  0.00  0.00    +0.000 A 
ATOM     20  C   UNL     1      10.160  11.217  17.958  0.00  0.00    +0.000 A 
ATOM     21  C   UNL     1      10.947  12.211  18.547  0.00  0.00    +0.000 A 
ATOM     22  C   UNL     1      10.904  12.407  19.925  0.00  0.00    +0.000 A 
ATOM     23  C   UNL     1      10.075  11.611  20.712  0.00  0.00    +0.000 A 
ATOM     24  C   UNL     1       9.294  10.610  20.125  0.00  0.00    +0.000 A 
ENDBRANCH  18  19
ENDBRANCH  17  18
ENDBRANCH  14  17
ENDBRANCH   1  13
TORSDOF 5
ENDMDL
MODEL 9
REMARK VINA RESULT:      -7.4      2.506      7.692
REMARK  Name = 
REMARK  6 active torsions:
REMARK  status: ('A' for Active; 'I' for Inactive)
REMARK    1  A    between atoms: C_1  and  C_2
REMARK    2  A    between atoms: C_4  and  C_5
REMARK    3  A    between atoms: C_5  and  N_6
REMARK    4  A    between atoms: C_7  and  C_9
REMARK    5  A    between atoms: C_9  and  O_10
REMARK    6  A    between atoms: O_10  and  C_11
REMARK                            x       y       z     vdW  Elec       q    Type
REMARK                         _______ _______ _______ _____ _____    ______ ____
ROOT
ATOM      1  C   UNL     1       5.188   3.896  17.397  0.00  0.00    +0.000 C 
ENDROOT
BRANCH   1   5
ATOM      2  C   UNL     1       2.713   8.258  17.723  0.00  0.00    +0.000 C 
ATOM      3  C   UNL     1       3.009   6.878  18.227  0.00  0.00    +0.000 A 
ATOM      4  C   UNL     1       3.955   6.069  17.610  0.00  0.00    +0.000 A 
ATOM      5  C   UNL     1       4.185   4.777  18.106  0.00  0.00    +0.000 A 
ATOM      6  C   UNL     1       3.457   4.344  19.246  0.00  0.00    +0.000 A 
ATOM      7  C   UNL     1       3.610   3.076  19.855  0.00  0.00    +0.000 A 
ATOM      8  C   UNL     1       2.847   2.703  20.961  0.00  0.00    +0.000 A 
ATOM      9  C   UNL     1       1.918   3.590  21.482  0.00  0.00    +0.000 A 
ATOM     10  C   UNL     1       1.766   4.848  20.895  0.00  0.00    +0.000 A 
ATOM     11  C   UNL     1       2.515   5.243  19.796  0.00  0.00    +0.000 A 
ATOM     12  N   UNL     1       2.299   6.471  19.301  0.00  0.00    +0.000 NA
ENDBRANCH   1   5
BRANCH   1  13
ATOM     13  N   UNL     1       5.536   4.413  16.091  0.00  0.00    +0.000 N 
ATOM     14  C   UNL     1       6.846   4.591  15.693  0.00  0.00    +0.000 C 
ATOM     15  O   UNL     1       7.808   4.388  16.430  0.00  0.00    +0.000 OA
ATOM     16  H   UNL     1       4.799   4.496  15.405  0.00  0.00    +0.000 HD
BRANCH  14  17
ATOM     17  C   UNL     1       7.007   5.074  14.250  0.00  0.00    +0.000 C 
BRANCH  17  18
ATOM     18  O   UNL     1       5.898   4.618  13.482  0.00  0.00    +0.000 OA
BRANCH  18  19
ATOM     19  C   UNL     1       6.166   3.595  12.611  0.00  0.00    +0.000 A 
ATOM     20  C   UNL     1       5.055   2.875  12.163  0.00  0.00    +0.000 A 
ATOM     21  C   UNL     1       5.210   1.830  11.248  0.00  0.00    +0.000 A 
ATOM     22  C   UNL     1       6.477   1.512  10.763  0.00  0.00    +0.000 A 
ATOM     23  C   UNL     1       7.585   2.238  11.194  0.00  0.00    +0.000 A 
ATOM     24  C   UNL     1       7.432   3.278  12.117  0.00  0.00    +0.000 A 
ENDBRANCH  18  19
ENDBRANCH  17  18
ENDBRANCH  14  17
ENDBRANCH   1  13
TORSDOF 5
ENDMDL
