MODEL 1
REMARK VINA RESULT:      -7.3      0.000      0.000
REMARK  Name = 
REMARK  13 active torsions:
REMARK  status: ('A' for Active; 'I' for Inactive)
REMARK    1  A    between atoms: C_1  and  C_2
REMARK    2  A    between atoms: C_2  and  N_3
REMARK    3  A    between atoms: N_3  and  C_4
REMARK    4  A    between atoms: N_3  and  C_6
REMARK    5  A    between atoms: C_4  and  C_5
REMARK    6  A    between atoms: C_6  and  C_7
REMARK    7  A    between atoms: C_7  and  C_8
REMARK    8  A    between atoms: C_8  and  O_9
REMARK    9  A    between atoms: O_9  and  C_10
REMARK   10  A    between atoms: C_13  and  C_14
REMARK   11  A    between atoms: C_15  and  C_16
REMARK   12  A    between atoms: C_20  and  O_21
REMARK   13  A    between atoms: N_23  and  C_24
REMARK                            x       y       z     vdW  Elec       q    Type
REMARK                         _______ _______ _______ _____ _____    ______ ____
ROOT
ATOM      1  C   UNL     1       6.877   5.300  18.264  0.00  0.00    +0.000 A 
ATOM      2  C   UNL     1       7.881   5.758  19.118  0.00  0.00    +0.000 A 
ATOM      3  C   UNL     1       8.367   7.061  19.003  0.00  0.00    +0.000 A 
ATOM      4  C   UNL     1       7.864   7.929  18.030  0.00  0.00    +0.000 A 
ATOM      5  C   UNL     1       6.841   7.478  17.190  0.00  0.00    +0.000 A 
ATOM      6  C   UNL     1       6.355   6.168  17.305  0.00  0.00    +0.000 A 
ENDROOT
BRANCH   4   7
ATOM      7  C   UNL     1       8.423   9.284  17.989  0.00  0.00    +0.000 C 
ATOM      8  C   UNL     1       9.162   9.843  18.959  0.00  0.00    +0.000 C 
BRANCH   8   9
ATOM      9  C   UNL     1       9.646  11.215  18.884  0.00  0.00    +0.000 A 
ATOM     10  C   UNL     1      10.171  11.643  17.720  0.00  0.00    +0.000 A 
ATOM     11  C   UNL     1      10.690  13.025  17.625  0.00  0.00    +0.000 A 
ATOM     12  O   UNL     1      11.194  13.466  16.596  0.00  0.00    +0.000 OA
ATOM     13  C   UNL     1      10.596  13.882  18.836  0.00  0.00    +0.000 A 
ATOM     14  C   UNL     1      10.042  13.345  19.927  0.00  0.00    +0.000 A 
ATOM     15  N   UNL     1       9.550  12.045  20.014  0.00  0.00    +0.000 N 
ATOM     16  C   UNL     1       9.044  11.540  21.298  0.00  0.00    +0.000 C 
BRANCH  13  17
ATOM     17  O   UNL     1      11.089  15.167  18.789  0.00  0.00    +0.000 OA
ATOM     18  H   UNL     1      11.370  15.289  17.857  0.00  0.00    +0.000 HD
ENDBRANCH  13  17
ENDBRANCH   8   9
ENDBRANCH   4   7
BRANCH   1  19
ATOM     19  O   UNL     1       6.345   4.034  18.287  0.00  0.00    +0.000 OA
BRANCH  19  20
ATOM     20  C   UNL     1       5.195   3.881  19.129  0.00  0.00    +0.000 C 
BRANCH  20  21
ATOM     21  C   UNL     1       4.156   3.008  18.439  0.00  0.00    +0.000 C 
BRANCH  21  22
ATOM     22  C   UNL     1       3.325   3.809  17.422  0.00  0.00    +0.000 C 
BRANCH  22  23
ATOM     23  N   UNL     1       2.097   4.429  17.960  0.00  0.00    +0.000 NA
BRANCH  23  25
ATOM     24  C   UNL     1       0.557   2.629  18.852  0.00  0.00    +0.000 C 
ATOM     25  C   UNL     1       1.593   3.711  19.143  0.00  0.00    +0.000 C 
ENDBRANCH  23  25
BRANCH  23  26
ATOM     26  C   UNL     1       2.267   5.878  18.166  0.00  0.00    +0.000 C 
ATOM     27  C   UNL     1       2.416   6.342  19.613  0.00  0.00    +0.000 C 
ENDBRANCH  23  26
ENDBRANCH  22  23
ENDBRANCH  21  22
ENDBRANCH  20  21
ENDBRANCH  19  20
ENDBRANCH   1  19
TORSDOF 10
ENDMDL
MODEL 2
REMARK VINA RESULT:      -7.2      0.992      1.599
REMARK  Name = 
REMARK  13 active torsions:
REMARK  status: ('A' for Active; 'I' for Inactive)
REMARK    1  A    between atoms: C_1  and  C_2
REMARK    2  A    between atoms: C_2  and  N_3
REMARK    3  A    between atoms: N_3  and  C_4
REMARK    4  A    between atoms: N_3  and  C_6
REMARK    5  A    between atoms: C_4  and  C_5
REMARK    6  A    between atoms: C_6  and  C_7
REMARK    7  A    between atoms: C_7  and  C_8
REMARK    8  A    between atoms: C_8  and  O_9
REMARK    9  A    between atoms: O_9  and  C_10
REMARK   10  A    between atoms: C_13  and  C_14
REMARK   11  A    between atoms: C_15  and  C_16
REMARK   12  A    between atoms: C_20  and  O_21
REMARK   13  A    between atoms: N_23  and  C_24
REMARK                            x       y       z     vdW  Elec       q    Type
REMARK                         _______ _______ _______ _____ _____    ______ ____
ROOT
ATOM      1  C   UNL     1       6.284   5.428  17.903  0.00  0.00    +0.000 A 
ATOM      2  C   UNL     1       5.906   6.519  17.119  0.00  0.00    +0.000 A 
ATOM      3  C   UNL     1       6.634   7.708  17.163  0.00  0.00    +0.000 A 
ATOM      4  C   UNL     1       7.749   7.834  17.995  0.00  0.00    +0.000 A 
ATOM      5  C   UNL     1       8.143   6.733  18.763  0.00  0.00    +0.000 A 
ATOM      6  C   UNL     1       7.410   5.540  18.720  0.00  0.00    +0.000 A 
ENDROOT
BRANCH   4   7
ATOM      7  C   UNL     1       8.462   9.115  17.969  0.00  0.00    +0.000 C 
ATOM      8  C   UNL     1       8.966   9.740  19.044  0.00  0.00    +0.000 C 
BRANCH   8   9
ATOM      9  C   UNL     1       9.620  11.038  18.961  0.00  0.00    +0.000 A 
ATOM     10  C   UNL     1      10.202  11.386  17.797  0.00  0.00    +0.000 A 
ATOM     11  C   UNL     1      10.893  12.691  17.695  0.00  0.00    +0.000 A 
ATOM     12  O   UNL     1      11.456  13.054  16.667  0.00  0.00    +0.000 OA
ATOM     13  C   UNL     1      10.901  13.563  18.899  0.00  0.00    +0.000 A 
ATOM     14  C   UNL     1      10.276  13.111  19.990  0.00  0.00    +0.000 A 
ATOM     15  N   UNL     1       9.622  11.884  20.084  0.00  0.00    +0.000 N 
ATOM     16  C   UNL     1       9.048  11.459  21.367  0.00  0.00    +0.000 C 
BRANCH  13  17
ATOM     17  O   UNL     1      11.553  14.775  18.845  0.00  0.00    +0.000 OA
ATOM     18  H   UNL     1      11.187  15.285  19.599  0.00  0.00    +0.000 HD
ENDBRANCH  13  17
ENDBRANCH   8   9
ENDBRANCH   4   7
BRANCH   1  19
ATOM     19  O   UNL     1       5.626   4.224  17.942  0.00  0.00    +0.000 OA
BRANCH  19  20
ATOM     20  C   UNL     1       4.917   3.889  16.742  0.00  0.00    +0.000 C 
BRANCH  20  21
ATOM     21  C   UNL     1       3.424   3.795  17.028  0.00  0.00    +0.000 C 
BRANCH  21  22
ATOM     22  C   UNL     1       3.109   2.691  18.051  0.00  0.00    +0.000 C 
BRANCH  22  23
ATOM     23  N   UNL     1       2.293   3.115  19.206  0.00  0.00    +0.000 NA
BRANCH  23  25
ATOM     24  C   UNL     1       4.324   2.235  20.431  0.00  0.00    +0.000 C 
ATOM     25  C   UNL     1       2.853   2.635  20.481  0.00  0.00    +0.000 C 
ENDBRANCH  23  25
BRANCH  23  26
ATOM     26  C   UNL     1       2.026   4.565  19.177  0.00  0.00    +0.000 C 
ATOM     27  C   UNL     1       1.871   5.250  20.533  0.00  0.00    +0.000 C 
ENDBRANCH  23  26
ENDBRANCH  22  23
ENDBRANCH  21  22
ENDBRANCH  20  21
ENDBRANCH  19  20
ENDBRANCH   1  19
TORSDOF 10
ENDMDL
MODEL 3
REMARK VINA RESULT:      -7.0      0.971      1.354
REMARK  Name = 
REMARK  13 active torsions:
REMARK  status: ('A' for Active; 'I' for Inactive)
REMARK    1  A    between atoms: C_1  and  C_2
REMARK    2  A    between atoms: C_2  and  N_3
REMARK    3  A    between atoms: N_3  and  C_4
REMARK    4  A    between atoms: N_3  and  C_6
REMARK    5  A    between atoms: C_4  and  C_5
REMARK    6  A    between atoms: C_6  and  C_7
REMARK    7  A    between atoms: C_7  and  C_8
REMARK    8  A    between atoms: C_8  and  O_9
REMARK    9  A    between atoms: O_9  and  C_10
REMARK   10  A    between atoms: C_13  and  C_14
REMARK   11  A    between atoms: C_15  and  C_16
REMARK   12  A    between atoms: C_20  and  O_21
REMARK   13  A    between atoms: N_23  and  C_24
REMARK                            x       y       z     vdW  Elec       q    Type
REMARK                         _______ _______ _______ _____ _____    ______ ____
ROOT
ATOM      1  C   UNL     1       6.915   5.443  18.134  0.00  0.00    +0.000 A 
ATOM      2  C   UNL     1       7.820   5.927  19.080  0.00  0.00    +0.000 A 
ATOM      3  C   UNL     1       8.316   7.227  18.985  0.00  0.00    +0.000 A 
ATOM      4  C   UNL     1       7.923   8.068  17.940  0.00  0.00    +0.000 A 
ATOM      5  C   UNL     1       6.998   7.592  17.005  0.00  0.00    +0.000 A 
ATOM      6  C   UNL     1       6.502   6.285  17.100  0.00  0.00    +0.000 A 
ENDROOT
BRANCH   4   7
ATOM      7  C   UNL     1       8.483   9.423  17.925  0.00  0.00    +0.000 C 
ATOM      8  C   UNL     1       9.229   9.961  18.902  0.00  0.00    +0.000 C 
BRANCH   8   9
ATOM      9  C   UNL     1       9.714  11.333  18.853  0.00  0.00    +0.000 A 
ATOM     10  C   UNL     1      10.279  11.769  17.711  0.00  0.00    +0.000 A 
ATOM     11  C   UNL     1      10.800  13.152  17.643  0.00  0.00    +0.000 A 
ATOM     12  O   UNL     1      11.341  13.600  16.637  0.00  0.00    +0.000 OA
ATOM     13  C   UNL     1      10.663  14.001  18.856  0.00  0.00    +0.000 A 
ATOM     14  C   UNL     1      10.070  13.457  19.924  0.00  0.00    +0.000 A 
ATOM     15  N   UNL     1       9.576  12.156  19.985  0.00  0.00    +0.000 N 
ATOM     16  C   UNL     1       9.025  11.642  21.246  0.00  0.00    +0.000 C 
BRANCH  13  17
ATOM     17  O   UNL     1      11.156  15.286  18.836  0.00  0.00    +0.000 OA
ATOM     18  H   UNL     1      10.508  15.808  19.356  0.00  0.00    +0.000 HD
ENDBRANCH  13  17
ENDBRANCH   8   9
ENDBRANCH   4   7
BRANCH   1  19
ATOM     19  O   UNL     1       6.384   4.177  18.132  0.00  0.00    +0.000 OA
BRANCH  19  20
ATOM     20  C   UNL     1       5.267   3.994  19.012  0.00  0.00    +0.000 C 
BRANCH  20  21
ATOM     21  C   UNL     1       4.677   5.344  19.393  0.00  0.00    +0.000 C 
BRANCH  21  22
ATOM     22  C   UNL     1       3.148   5.274  19.542  0.00  0.00    +0.000 C 
BRANCH  22  23
ATOM     23  N   UNL     1       2.609   3.945  19.896  0.00  0.00    +0.000 NA
BRANCH  23  25
ATOM     24  C   UNL     1       1.497   2.575  21.709  0.00  0.00    +0.000 C 
ATOM     25  C   UNL     1       2.062   3.920  21.263  0.00  0.00    +0.000 C 
ENDBRANCH  23  25
BRANCH  23  26
ATOM     26  C   UNL     1       1.677   3.448  18.868  0.00  0.00    +0.000 C 
ATOM     27  C   UNL     1       1.541   4.301  17.609  0.00  0.00    +0.000 C 
ENDBRANCH  23  26
ENDBRANCH  22  23
ENDBRANCH  21  22
ENDBRANCH  20  21
ENDBRANCH  19  20
ENDBRANCH   1  19
TORSDOF 10
ENDMDL
MODEL 4
REMARK VINA RESULT:      -7.0      1.073      1.777
REMARK  Name = 
REMARK  13 active torsions:
REMARK  status: ('A' for Active; 'I' for Inactive)
REMARK    1  A    between atoms: C_1  and  C_2
REMARK    2  A    between atoms: C_2  and  N_3
REMARK    3  A    between atoms: N_3  and  C_4
REMARK    4  A    between atoms: N_3  and  C_6
REMARK    5  A    between atoms: C_4  and  C_5
REMARK    6  A    between atoms: C_6  and  C_7
REMARK    7  A    between atoms: C_7  and  C_8
REMARK    8  A    between atoms: C_8  and  O_9
REMARK    9  A    between atoms: O_9  and  C_10
REMARK   10  A    between atoms: C_13  and  C_14
REMARK   11  A    between atoms: C_15  and  C_16
REMARK   12  A    between atoms: C_20  and  O_21
REMARK   13  A    between atoms: N_23  and  C_24
REMARK                            x       y       z     vdW  Elec       q    Type
REMARK                         _______ _______ _______ _____ _____    ______ ____
ROOT
ATOM      1  C   UNL     1       6.527   5.840  17.800  0.00  0.00    +0.000 A 
ATOM      2  C   UNL     1       6.160   6.963  17.058  0.00  0.00    +0.000 A 
ATOM      3  C   UNL     1       6.871   8.157  17.183  0.00  0.00    +0.000 A 
ATOM      4  C   UNL     1       7.958   8.254  18.055  0.00  0.00    +0.000 A 
ATOM      5  C   UNL     1       8.342   7.122  18.782  0.00  0.00    +0.000 A 
ATOM      6  C   UNL     1       7.626   5.924  18.657  0.00  0.00    +0.000 A 
ENDROOT
BRANCH   4   7
ATOM      7  C   UNL     1       8.656   9.542  18.113  0.00  0.00    +0.000 C 
ATOM      8  C   UNL     1       9.380   9.981  19.155  0.00  0.00    +0.000 C 
BRANCH   8   9
ATOM      9  C   UNL     1      10.008  11.295  19.174  0.00  0.00    +0.000 A 
ATOM     10  C   UNL     1      10.775  11.651  18.126  0.00  0.00    +0.000 A 
ATOM     11  C   UNL     1      11.442  12.972  18.133  0.00  0.00    +0.000 A 
ATOM     12  O   UNL     1      12.167  13.344  17.215  0.00  0.00    +0.000 OA
ATOM     13  C   UNL     1      11.220  13.851  19.311  0.00  0.00    +0.000 A 
ATOM     14  C   UNL     1      10.426  13.389  20.282  0.00  0.00    +0.000 A 
ATOM     15  N   UNL     1       9.795  12.146  20.272  0.00  0.00    +0.000 N 
ATOM     16  C   UNL     1       9.016  11.714  21.440  0.00  0.00    +0.000 C 
BRANCH  13  17
ATOM     17  O   UNL     1      11.843  15.078  19.361  0.00  0.00    +0.000 OA
ATOM     18  H   UNL     1      11.431  15.592  18.634  0.00  0.00    +0.000 HD
ENDBRANCH  13  17
ENDBRANCH   8   9
ENDBRANCH   4   7
BRANCH   1  19
ATOM     19  O   UNL     1       5.883   4.627  17.760  0.00  0.00    +0.000 OA
BRANCH  19  20
ATOM     20  C   UNL     1       5.379   4.173  19.021  0.00  0.00    +0.000 C 
BRANCH  20  21
ATOM     21  C   UNL     1       4.152   4.984  19.415  0.00  0.00    +0.000 C 
BRANCH  21  22
ATOM     22  C   UNL     1       2.918   4.588  18.586  0.00  0.00    +0.000 C 
BRANCH  22  23
ATOM     23  N   UNL     1       2.056   3.554  19.195  0.00  0.00    +0.000 NA
BRANCH  23  25
ATOM     24  C   UNL     1       3.270   1.507  18.335  0.00  0.00    +0.000 C 
ATOM     25  C   UNL     1       1.990   2.337  18.368  0.00  0.00    +0.000 C 
ENDBRANCH  23  25
BRANCH  23  26
ATOM     26  C   UNL     1       2.420   3.304  20.601  0.00  0.00    +0.000 C 
ATOM     27  C   UNL     1       1.335   2.688  21.480  0.00  0.00    +0.000 C 
ENDBRANCH  23  26
ENDBRANCH  22  23
ENDBRANCH  21  22
ENDBRANCH  20  21
ENDBRANCH  19  20
ENDBRANCH   1  19
TORSDOF 10
ENDMDL
MODEL 5
REMARK VINA RESULT:      -6.8      0.973      1.697
REMARK  Name = 
REMARK  13 active torsions:
REMARK  status: ('A' for Active; 'I' for Inactive)
REMARK    1  A    between atoms: C_1  and  C_2
REMARK    2  A    between atoms: C_2  and  N_3
REMARK    3  A    between atoms: N_3  and  C_4
REMARK    4  A    between atoms: N_3  and  C_6
REMARK    5  A    between atoms: C_4  and  C_5
REMARK    6  A    between atoms: C_6  and  C_7
REMARK    7  A    between atoms: C_7  and  C_8
REMARK    8  A    between atoms: C_8  and  O_9
REMARK    9  A    between atoms: O_9  and  C_10
REMARK   10  A    between atoms: C_13  and  C_14
REMARK   11  A    between atoms: C_15  and  C_16
REMARK   12  A    between atoms: C_20  and  O_21
REMARK   13  A    between atoms: N_23  and  C_24
REMARK                            x       y       z     vdW  Elec       q    Type
REMARK                         _______ _______ _______ _____ _____    ______ ____
ROOT
ATOM      1  C   UNL     1       6.747   5.379  18.237  0.00  0.00    +0.000 A 
ATOM      2  C   UNL     1       7.728   5.807  19.133  0.00  0.00    +0.000 A 
ATOM      3  C   UNL     1       8.289   7.079  19.013  0.00  0.00    +0.000 A 
ATOM      4  C   UNL     1       7.886   7.946  17.994  0.00  0.00    +0.000 A 
ATOM      5  C   UNL     1       6.885   7.527  17.110  0.00  0.00    +0.000 A 
ATOM      6  C   UNL     1       6.324   6.248  17.230  0.00  0.00    +0.000 A 
ENDROOT
BRANCH   4   7
ATOM      7  C   UNL     1       8.518   9.268  17.951  0.00  0.00    +0.000 C 
ATOM      8  C   UNL     1       9.159   9.850  18.976  0.00  0.00    +0.000 C 
BRANCH   8   9
ATOM      9  C   UNL     1       9.723  11.190  18.888  0.00  0.00    +0.000 A 
ATOM     10  C   UNL     1      10.286  11.571  17.725  0.00  0.00    +0.000 A 
ATOM     11  C   UNL     1      10.885  12.919  17.618  0.00  0.00    +0.000 A 
ATOM     12  O   UNL     1      11.428  13.315  16.591  0.00  0.00    +0.000 OA
ATOM     13  C   UNL     1      10.826  13.798  18.816  0.00  0.00    +0.000 A 
ATOM     14  C   UNL     1      10.227  13.310  19.907  0.00  0.00    +0.000 A 
ATOM     15  N   UNL     1       9.660  12.041  20.005  0.00  0.00    +0.000 N 
ATOM     16  C   UNL     1       9.108  11.585  21.288  0.00  0.00    +0.000 C 
BRANCH  13  17
ATOM     17  O   UNL     1      11.393  15.051  18.758  0.00  0.00    +0.000 OA
ATOM     18  H   UNL     1      12.214  14.974  19.291  0.00  0.00    +0.000 HD
ENDBRANCH  13  17
ENDBRANCH   8   9
ENDBRANCH   4   7
BRANCH   1  19
ATOM     19  O   UNL     1       6.147   4.144  18.262  0.00  0.00    +0.000 OA
BRANCH  19  20
ATOM     20  C   UNL     1       5.110   4.001  19.239  0.00  0.00    +0.000 C 
BRANCH  20  21
ATOM     21  C   UNL     1       3.746   4.142  18.578  0.00  0.00    +0.000 C 
BRANCH  21  22
ATOM     22  C   UNL     1       3.243   5.595  18.618  0.00  0.00    +0.000 C 
BRANCH  22  23
ATOM     23  N   UNL     1       2.568   5.994  19.870  0.00  0.00    +0.000 NA
BRANCH  23  25
ATOM     24  C   UNL     1       1.416   7.892  21.084  0.00  0.00    +0.000 C 
ATOM     25  C   UNL     1       2.027   7.361  19.790  0.00  0.00    +0.000 C 
ENDBRANCH  23  25
BRANCH  23  26
ATOM     26  C   UNL     1       1.585   4.985  20.301  0.00  0.00    +0.000 C 
ATOM     27  C   UNL     1       2.050   4.002  21.374  0.00  0.00    +0.000 C 
ENDBRANCH  23  26
ENDBRANCH  22  23
ENDBRANCH  21  22
ENDBRANCH  20  21
ENDBRANCH  19  20
ENDBRANCH   1  19
TORSDOF 10
ENDMDL
MODEL 6
REMARK VINA RESULT:      -6.6      1.292      1.558
REMARK  Name = 
REMARK  13 active torsions:
REMARK  status: ('A' for Active; 'I' for Inactive)
REMARK    1  A    between atoms: C_1  and  C_2
REMARK    2  A    between atoms: C_2  and  N_3
REMARK    3  A    between atoms: N_3  and  C_4
REMARK    4  A    between atoms: N_3  and  C_6
REMARK    5  A    between atoms: C_4  and  C_5
REMARK    6  A    between atoms: C_6  and  C_7
REMARK    7  A    between atoms: C_7  and  C_8
REMARK    8  A    between atoms: C_8  and  O_9
REMARK    9  A    between atoms: O_9  and  C_10
REMARK   10  A    between atoms: C_13  and  C_14
REMARK   11  A    between atoms: C_15  and  C_16
REMARK   12  A    between atoms: C_20  and  O_21
REMARK   13  A    between atoms: N_23  and  C_24
REMARK                            x       y       z     vdW  Elec       q    Type
REMARK                         _______ _______ _______ _____ _____    ______ ____
ROOT
ATOM      1  C   UNL     1       7.134   5.753  18.182  0.00  0.00    +0.000 A 
ATOM      2  C   UNL     1       8.107   6.337  18.994  0.00  0.00    +0.000 A 
ATOM      3  C   UNL     1       8.456   7.677  18.827  0.00  0.00    +0.000 A 
ATOM      4  C   UNL     1       7.844   8.459  17.843  0.00  0.00    +0.000 A 
ATOM      5  C   UNL     1       6.851   7.880  17.046  0.00  0.00    +0.000 A 
ATOM      6  C   UNL     1       6.503   6.533  17.213  0.00  0.00    +0.000 A 
ENDROOT
BRANCH   4   7
ATOM      7  C   UNL     1       8.262   9.861  17.747  0.00  0.00    +0.000 C 
ATOM      8  C   UNL     1       9.163  10.454  18.544  0.00  0.00    +0.000 C 
BRANCH   8   9
ATOM      9  C   UNL     1       9.499  11.867  18.433  0.00  0.00    +0.000 A 
ATOM     10  C   UNL     1       8.516  12.734  18.123  0.00  0.00    +0.000 A 
ATOM     11  C   UNL     1       8.836  14.171  17.982  0.00  0.00    +0.000 A 
ATOM     12  O   UNL     1       7.987  15.005  17.684  0.00  0.00    +0.000 OA
ATOM     13  C   UNL     1      10.246  14.589  18.201  0.00  0.00    +0.000 A 
ATOM     14  C   UNL     1      11.127  13.635  18.517  0.00  0.00    +0.000 A 
ATOM     15  N   UNL     1      10.824  12.282  18.654  0.00  0.00    +0.000 N 
ATOM     16  C   UNL     1      11.898  11.315  18.918  0.00  0.00    +0.000 C 
BRANCH  13  17
ATOM     17  O   UNL     1      10.584  15.916  18.056  0.00  0.00    +0.000 OA
ATOM     18  H   UNL     1      10.093  16.209  17.259  0.00  0.00    +0.000 HD
ENDBRANCH  13  17
ENDBRANCH   8   9
ENDBRANCH   4   7
BRANCH   1  19
ATOM     19  O   UNL     1       6.733   4.441  18.258  0.00  0.00    +0.000 OA
BRANCH  19  20
ATOM     20  C   UNL     1       5.629   4.201  19.139  0.00  0.00    +0.000 C 
BRANCH  20  21
ATOM     21  C   UNL     1       4.485   3.548  18.375  0.00  0.00    +0.000 C 
BRANCH  21  22
ATOM     22  C   UNL     1       3.298   3.222  19.297  0.00  0.00    +0.000 C 
BRANCH  22  23
ATOM     23  N   UNL     1       1.994   3.760  18.860  0.00  0.00    +0.000 NA
BRANCH  23  25
ATOM     24  C   UNL     1       1.369   2.893  21.154  0.00  0.00    +0.000 C 
ATOM     25  C   UNL     1       0.910   3.393  19.787  0.00  0.00    +0.000 C 
ENDBRANCH  23  25
BRANCH  23  26
ATOM     26  C   UNL     1       2.072   5.203  18.571  0.00  0.00    +0.000 C 
ATOM     27  C   UNL     1       2.384   6.113  19.756  0.00  0.00    +0.000 C 
ENDBRANCH  23  26
ENDBRANCH  22  23
ENDBRANCH  21  22
ENDBRANCH  20  21
ENDBRANCH  19  20
ENDBRANCH   1  19
TORSDOF 10
ENDMDL
MODEL 7
REMARK VINA RESULT:      -6.5      7.273      9.676
REMARK  Name = 
REMARK  13 active torsions:
REMARK  status: ('A' for Active; 'I' for Inactive)
REMARK    1  A    between atoms: C_1  and  C_2
REMARK    2  A    between atoms: C_2  and  N_3
REMARK    3  A    between atoms: N_3  and  C_4
REMARK    4  A    between atoms: N_3  and  C_6
REMARK    5  A    between atoms: C_4  and  C_5
REMARK    6  A    between atoms: C_6  and  C_7
REMARK    7  A    between atoms: C_7  and  C_8
REMARK    8  A    between atoms: C_8  and  O_9
REMARK    9  A    between atoms: O_9  and  C_10
REMARK   10  A    between atoms: C_13  and  C_14
REMARK   11  A    between atoms: C_15  and  C_16
REMARK   12  A    between atoms: C_20  and  O_21
REMARK   13  A    between atoms: N_23  and  C_24
REMARK                            x       y       z     vdW  Elec       q    Type
REMARK                         _______ _______ _______ _____ _____    ______ ____
ROOT
ATOM      1  C   UNL     1       1.815   8.362  19.140  0.00  0.00    +0.000 A 
ATOM      2  C   UNL     1       1.544   8.298  20.508  0.00  0.00    +0.000 A 
ATOM      3  C   UNL     1       0.673   9.212  21.101  0.00  0.00    +0.000 A 
ATOM      4  C   UNL     1       0.061  10.212  20.342  0.00  0.00    +0.000 A 
ATOM      5  C   UNL     1       0.312  10.263  18.966  0.00  0.00    +0.000 A 
ATOM      6  C   UNL     1       1.189   9.345  18.372  0.00  0.00    +0.000 A 
ENDROOT
BRANCH   4   7
ATOM      7  C   UNL     1      -0.850  11.121  21.044  0.00  0.00    +0.000 C 
ATOM      8  C   UNL     1      -0.682  11.565  22.299  0.00  0.00    +0.000 C 
BRANCH   8   9
ATOM      9  C   UNL     1      -1.650  12.428  22.962  0.00  0.00    +0.000 A 
ATOM     10  C   UNL     1      -2.771  11.868  23.455  0.00  0.00    +0.000 A 
ATOM     11  C   UNL     1      -3.780  12.727  24.113  0.00  0.00    +0.000 A 
ATOM     12  O   UNL     1      -4.828  12.276  24.565  0.00  0.00    +0.000 OA
ATOM     13  C   UNL     1      -3.494  14.183  24.203  0.00  0.00    +0.000 A 
ATOM     14  C   UNL     1      -2.339  14.615  23.688  0.00  0.00    +0.000 A 
ATOM     15  N   UNL     1      -1.387  13.805  23.072  0.00  0.00    +0.000 N 
ATOM     16  C   UNL     1      -0.195  14.411  22.464  0.00  0.00    +0.000 C 
BRANCH  13  17
ATOM     17  O   UNL     1      -4.422  15.014  24.790  0.00  0.00    +0.000 OA
ATOM     18  H   UNL     1      -3.968  15.367  25.585  0.00  0.00    +0.000 HD
ENDBRANCH  13  17
ENDBRANCH   8   9
ENDBRANCH   4   7
BRANCH   1  19
ATOM     19  O   UNL     1       2.667   7.521  18.468  0.00  0.00    +0.000 OA
BRANCH  19  20
ATOM     20  C   UNL     1       3.013   6.326  19.178  0.00  0.00    +0.000 C 
BRANCH  20  21
ATOM     21  C   UNL     1       3.177   5.168  18.203  0.00  0.00    +0.000 C 
BRANCH  21  22
ATOM     22  C   UNL     1       1.868   4.377  18.034  0.00  0.00    +0.000 C 
BRANCH  22  23
ATOM     23  N   UNL     1       1.852   3.043  18.668  0.00  0.00    +0.000 NA
BRANCH  23  25
ATOM     24  C   UNL     1       3.606   1.244  18.369  0.00  0.00    +0.000 C 
ATOM     25  C   UNL     1       3.209   2.576  18.999  0.00  0.00    +0.000 C 
ENDBRANCH  23  25
BRANCH  23  26
ATOM     26  C   UNL     1       0.909   2.992  19.799  0.00  0.00    +0.000 C 
ATOM     27  C   UNL     1       1.520   3.104  21.194  0.00  0.00    +0.000 C 
ENDBRANCH  23  26
ENDBRANCH  22  23
ENDBRANCH  21  22
ENDBRANCH  20  21
ENDBRANCH  19  20
ENDBRANCH   1  19
TORSDOF 10
ENDMDL
MODEL 8
REMARK VINA RESULT:      -6.5      7.226      9.779
REMARK  Name = 
REMARK  13 active torsions:
REMARK  status: ('A' for Active; 'I' for Inactive)
REMARK    1  A    between atoms: C_1  and  C_2
REMARK    2  A    between atoms: C_2  and  N_3
REMARK    3  A    between atoms: N_3  and  C_4
REMARK    4  A    between atoms: N_3  and  C_6
REMARK    5  A    between atoms: C_4  and  C_5
REMARK    6  A    between atoms: C_6  and  C_7
REMARK    7  A    between atoms: C_7  and  C_8
REMARK    8  A    between atoms: C_8  and  O_9
REMARK    9  A    between atoms: O_9  and  C_10
REMARK   10  A    between atoms: C_13  and  C_14
REMARK   11  A    between atoms: C_15  and  C_16
REMARK   12  A    between atoms: C_20  and  O_21
REMARK   13  A    between atoms: N_23  and  C_24
REMARK                            x       y       z     vdW  Elec       q    Type
REMARK                         _______ _______ _______ _____ _____    ______ ____
ROOT
ATOM      1  C   UNL     1       1.959   8.176  19.259  0.00  0.00    +0.000 A 
ATOM      2  C   UNL     1       1.557   8.008  20.585  0.00  0.00    +0.000 A 
ATOM      3  C   UNL     1       0.664   8.903  21.173  0.00  0.00    +0.000 A 
ATOM      4  C   UNL     1       0.159   9.987  20.451  0.00  0.00    +0.000 A 
ATOM      5  C   UNL     1       0.542  10.144  19.115  0.00  0.00    +0.000 A 
ATOM      6  C   UNL     1       1.441   9.244  18.525  0.00  0.00    +0.000 A 
ENDROOT
BRANCH   4   7
ATOM      7  C   UNL     1      -0.785  10.871  21.143  0.00  0.00    +0.000 C 
ATOM      8  C   UNL     1      -0.507  11.587  22.244  0.00  0.00    +0.000 C 
BRANCH   8   9
ATOM      9  C   UNL     1      -1.503  12.408  22.918  0.00  0.00    +0.000 A 
ATOM     10  C   UNL     1      -2.609  11.805  23.396  0.00  0.00    +0.000 A 
ATOM     11  C   UNL     1      -3.646  12.621  24.065  0.00  0.00    +0.000 A 
ATOM     12  O   UNL     1      -4.681  12.131  24.504  0.00  0.00    +0.000 OA
ATOM     13  C   UNL     1      -3.404  14.083  24.181  0.00  0.00    +0.000 A 
ATOM     14  C   UNL     1      -2.261  14.559  23.679  0.00  0.00    +0.000 A 
ATOM     15  N   UNL     1      -1.283  13.789  23.053  0.00  0.00    +0.000 N 
ATOM     16  C   UNL     1      -0.108  14.442  22.461  0.00  0.00    +0.000 C 
BRANCH  13  17
ATOM     17  O   UNL     1      -4.359  14.876  24.779  0.00  0.00    +0.000 OA
ATOM     18  H   UNL     1      -3.890  15.306  25.525  0.00  0.00    +0.000 HD
ENDBRANCH  13  17
ENDBRANCH   8   9
ENDBRANCH   4   7
BRANCH   1  19
ATOM     19  O   UNL     1       2.843   7.360  18.597  0.00  0.00    +0.000 OA
BRANCH  19  20
ATOM     20  C   UNL     1       3.118   6.117  19.253  0.00  0.00    +0.000 C 
BRANCH  20  21
ATOM     21  C   UNL     1       3.741   5.135  18.270  0.00  0.00    +0.000 C 
BRANCH  21  22
ATOM     22  C   UNL     1       5.199   4.811  18.637  0.00  0.00    +0.000 C 
BRANCH  22  23
ATOM     23  N   UNL     1       6.032   4.307  17.526  0.00  0.00    +0.000 NA
BRANCH  23  25
ATOM     24  C   UNL     1       6.174   4.001  15.018  0.00  0.00    +0.000 C 
ATOM     25  C   UNL     1       5.403   4.546  16.216  0.00  0.00    +0.000 C 
ENDBRANCH  23  25
BRANCH  23  26
ATOM     26  C   UNL     1       7.419   4.796  17.623  0.00  0.00    +0.000 C 
ATOM     27  C   UNL     1       7.720   5.748  18.777  0.00  0.00    +0.000 C 
ENDBRANCH  23  26
ENDBRANCH  22  23
ENDBRANCH  21  22
ENDBRANCH  20  21
ENDBRANCH  19  20
ENDBRANCH   1  19
TORSDOF 10
ENDMDL
MODEL 9
REMARK VINA RESULT:      -6.4      7.081      9.532
REMARK  Name = 
REMARK  13 active torsions:
REMARK  status: ('A' for Active; 'I' for Inactive)
REMARK    1  A    between atoms: C_1  and  C_2
REMARK    2  A    between atoms: C_2  and  N_3
REMARK    3  A    between atoms: N_3  and  C_4
REMARK    4  A    between atoms: N_3  and  C_6
REMARK    5  A    between atoms: C_4  and  C_5
REMARK    6  A    between atoms: C_6  and  C_7
REMARK    7  A    between atoms: C_7  and  C_8
REMARK    8  A    between atoms: C_8  and  O_9
REMARK    9  A    between atoms: O_9  and  C_10
REMARK   10  A    between atoms: C_13  and  C_14
REMARK   11  A    between atoms: C_15  and  C_16
REMARK   12  A    between atoms: C_20  and  O_21
REMARK   13  A    between atoms: N_23  and  C_24
REMARK                            x       y       z     vdW  Elec       q    Type
REMARK                         _______ _______ _______ _____ _____    ______ ____
ROOT
ATOM      1  C   UNL     1       2.049   8.260  19.055  0.00  0.00    +0.000 A 
ATOM      2  C   UNL     1       1.467   9.489  18.738  0.00  0.00    +0.000 A 
ATOM      3  C   UNL     1       0.709  10.177  19.685  0.00  0.00    +0.000 A 
ATOM      4  C   UNL     1       0.512   9.650  20.964  0.00  0.00    +0.000 A 
ATOM      5  C   UNL     1       1.115   8.430  21.290  0.00  0.00    +0.000 A 
ATOM      6  C   UNL     1       1.875   7.739  20.337  0.00  0.00    +0.000 A 
ENDROOT
BRANCH   4   7
ATOM      7  C   UNL     1      -0.287  10.447  21.900  0.00  0.00    +0.000 C 
ATOM      8  C   UNL     1      -0.887  11.611  21.606  0.00  0.00    +0.000 C 
BRANCH   8   9
ATOM      9  C   UNL     1      -1.626  12.384  22.595  0.00  0.00    +0.000 A 
ATOM     10  C   UNL     1      -2.727  11.834  23.141  0.00  0.00    +0.000 A 
ATOM     11  C   UNL     1      -3.507  12.609  24.132  0.00  0.00    +0.000 A 
ATOM     12  O   UNL     1      -4.529  12.168  24.649  0.00  0.00    +0.000 OA
ATOM     13  C   UNL     1      -3.021  13.969  24.481  0.00  0.00    +0.000 A 
ATOM     14  C   UNL     1      -1.907  14.397  23.880  0.00  0.00    +0.000 A 
ATOM     15  N   UNL     1      -1.171  13.665  22.951  0.00  0.00    +0.000 N 
ATOM     16  C   UNL     1      -0.010  14.280  22.292  0.00  0.00    +0.000 C 
BRANCH  13  17
ATOM     17  O   UNL     1      -3.736  14.726  25.383  0.00  0.00    +0.000 OA
ATOM     18  H   UNL     1      -4.014  15.517  24.874  0.00  0.00    +0.000 HD
ENDBRANCH  13  17
ENDBRANCH   8   9
ENDBRANCH   4   7
BRANCH   1  19
ATOM     19  O   UNL     1       2.798   7.500  18.189  0.00  0.00    +0.000 OA
BRANCH  19  20
ATOM     20  C   UNL     1       2.356   6.146  18.044  0.00  0.00    +0.000 C 
BRANCH  20  21
ATOM     21  C   UNL     1       3.555   5.211  17.962  0.00  0.00    +0.000 C 
BRANCH  21  22
ATOM     22  C   UNL     1       4.026   4.767  19.357  0.00  0.00    +0.000 C 
BRANCH  22  23
ATOM     23  N   UNL     1       3.378   3.548  19.882  0.00  0.00    +0.000 NA
BRANCH  23  25
ATOM     24  C   UNL     1       0.939   3.815  20.502  0.00  0.00    +0.000 C 
ATOM     25  C   UNL     1       2.400   3.858  20.939  0.00  0.00    +0.000 C 
ENDBRANCH  23  25
BRANCH  23  26
ATOM     26  C   UNL     1       2.840   2.709  18.796  0.00  0.00    +0.000 C 
ATOM     27  C   UNL     1       3.625   1.440  18.471  0.00  0.00    +0.000 C 
ENDBRANCH  23  26
ENDBRANCH  22  23
ENDBRANCH  21  22
ENDBRANCH  20  21
ENDBRANCH  19  20
ENDBRANCH   1  19
TORSDOF 10
ENDMDL
