MODEL 1
REMARK VINA RESULT:      -8.4      0.000      0.000
REMARK  Name = 
REMARK  5 active torsions:
REMARK  status: ('A' for Active; 'I' for Inactive)
REMARK    1  A    between atoms: C_1  and  C_2
REMARK    2  A    between atoms: N_4  and  C_5
REMARK    3  A    between atoms: C_5  and  C_6
REMARK    4  A    between atoms: N_16  and  C_17
REMARK    5  A    between atoms: C_17  and  C_18
REMARK                            x       y       z     vdW  Elec       q    Type
REMARK                         _______ _______ _______ _____ _____    ______ ____
ROOT
ATOM      1  C   UNL     1       6.723   4.747  14.684  0.00  0.00    +0.000 C 
ATOM      2  O   UNL     1       7.924   5.027  14.679  0.00  0.00    +0.000 OA
ATOM      3  N   UNL     1       5.985   4.673  15.860  0.00  0.00    +0.000 N 
ATOM      4  C   UNL     1       6.572   5.131  17.116  0.00  0.00    +0.000 C 
ATOM      5  C   UNL     1       5.634   6.130  17.800  0.00  0.00    +0.000 C 
ATOM      6  C   UNL     1       4.197   5.593  17.937  0.00  0.00    +0.000 C 
ATOM      7  C   UNL     1       3.678   5.006  16.612  0.00  0.00    +0.000 C 
ATOM      8  C   UNL     1       4.679   4.033  15.994  0.00  0.00    +0.000 C 
ATOM      9  C   UNL     1       4.132   4.519  19.062  0.00  0.00    +0.000 C 
ATOM     10  O   UNL     1       4.766   3.474  19.092  0.00  0.00    +0.000 OA
ATOM     11  N   UNL     1       3.232   4.964  20.030  0.00  0.00    +0.000 N 
ATOM     12  C   UNL     1       2.715   6.220  19.703  0.00  0.00    +0.000 A 
ATOM     13  C   UNL     1       1.823   6.997  20.419  0.00  0.00    +0.000 A 
ATOM     14  C   UNL     1       1.446   8.228  19.883  0.00  0.00    +0.000 A 
ATOM     15  C   UNL     1       1.969   8.661  18.656  0.00  0.00    +0.000 A 
ATOM     16  C   UNL     1       2.877   7.869  17.947  0.00  0.00    +0.000 A 
ATOM     17  C   UNL     1       3.245   6.645  18.482  0.00  0.00    +0.000 A 
ENDROOT
BRANCH   1  18
ATOM     18  C   UNL     1       6.015   4.427  13.368  0.00  0.00    +0.000 C 
BRANCH  18  22
ATOM     19  C   UNL     1       6.451   1.322  11.261  0.00  0.00    +0.000 C 
ATOM     20  C   UNL     1       5.759   2.529  11.830  0.00  0.00    +0.000 C 
ATOM     21  O   UNL     1       4.651   2.892  11.450  0.00  0.00    +0.000 OA
ATOM     22  N   UNL     1       6.478   3.173  12.806  0.00  0.00    +0.000 N 
ATOM     23  H   UNL     1       7.439   2.907  12.985  0.00  0.00    +0.000 HD
ENDBRANCH  18  22
ENDBRANCH   1  18
BRANCH  11  24
ATOM     24  C   UNL     1       2.964   4.240  21.250  0.00  0.00    +0.000 C 
BRANCH  24  25
ATOM     25  C   UNL     1       1.800   3.291  21.196  0.00  0.00    +0.000 C 
ATOM     26  C   UNL     1       0.668   3.419  20.201  0.00  0.00    +0.000 C 
ATOM     27  C   UNL     1       1.612   2.252  20.114  0.00  0.00    +0.000 C 
ENDBRANCH  24  25
ENDBRANCH  11  24
TORSDOF 4
ENDMDL
MODEL 2
REMARK VINA RESULT:      -7.2      3.840      7.796
REMARK  Name = 
REMARK  5 active torsions:
REMARK  status: ('A' for Active; 'I' for Inactive)
REMARK    1  A    between atoms: C_1  and  C_2
REMARK    2  A    between atoms: N_4  and  C_5
REMARK    3  A    between atoms: C_5  and  C_6
REMARK    4  A    between atoms: N_16  and  C_17
REMARK    5  A    between atoms: C_17  and  C_18
REMARK                            x       y       z     vdW  Elec       q    Type
REMARK                         _______ _______ _______ _____ _____    ______ ____
ROOT
ATOM      1  C   UNL     1       0.577   9.628  19.572  0.00  0.00    +0.000 C 
ATOM      2  O   UNL     1       0.527  10.061  20.727  0.00  0.00    +0.000 OA
ATOM      3  N   UNL     1       1.533   8.703  19.169  0.00  0.00    +0.000 N 
ATOM      4  C   UNL     1       2.383   8.057  20.165  0.00  0.00    +0.000 C 
ATOM      5  C   UNL     1       2.327   6.535  19.996  0.00  0.00    +0.000 C 
ATOM      6  C   UNL     1       2.607   6.092  18.547  0.00  0.00    +0.000 C 
ATOM      7  C   UNL     1       1.775   6.898  17.533  0.00  0.00    +0.000 C 
ATOM      8  C   UNL     1       1.877   8.400  17.783  0.00  0.00    +0.000 C 
ATOM      9  C   UNL     1       4.123   6.231  18.229  0.00  0.00    +0.000 C 
ATOM     10  O   UNL     1       4.774   7.265  18.276  0.00  0.00    +0.000 OA
ATOM     11  N   UNL     1       4.609   4.968  17.889  0.00  0.00    +0.000 N 
ATOM     12  C   UNL     1       3.607   3.999  17.977  0.00  0.00    +0.000 A 
ATOM     13  C   UNL     1       3.702   2.638  17.747  0.00  0.00    +0.000 A 
ATOM     14  C   UNL     1       2.551   1.865  17.896  0.00  0.00    +0.000 A 
ATOM     15  C   UNL     1       1.339   2.457  18.275  0.00  0.00    +0.000 A 
ATOM     16  C   UNL     1       1.258   3.832  18.513  0.00  0.00    +0.000 A 
ATOM     17  C   UNL     1       2.404   4.597  18.360  0.00  0.00    +0.000 A 
ENDROOT
BRANCH   1  18
ATOM     18  C   UNL     1      -0.410  10.147  18.527  0.00  0.00    +0.000 C 
BRANCH  18  22
ATOM     19  C   UNL     1      -0.308  13.922  18.401  0.00  0.00    +0.000 C 
ATOM     20  C   UNL     1      -0.814  12.558  18.778  0.00  0.00    +0.000 C 
ATOM     21  O   UNL     1      -1.751  12.394  19.552  0.00  0.00    +0.000 OA
ATOM     22  N   UNL     1      -0.136  11.527  18.175  0.00  0.00    +0.000 N 
ATOM     23  H   UNL     1       0.711  11.717  17.651  0.00  0.00    +0.000 HD
ENDBRANCH  18  22
ENDBRANCH   1  18
BRANCH  11  24
ATOM     24  C   UNL     1       5.997   4.712  17.586  0.00  0.00    +0.000 C 
BRANCH  24  25
ATOM     25  C   UNL     1       6.401   4.953  16.158  0.00  0.00    +0.000 C 
ATOM     26  C   UNL     1       6.249   3.918  15.066  0.00  0.00    +0.000 C 
ATOM     27  C   UNL     1       5.419   5.171  15.031  0.00  0.00    +0.000 C 
ENDBRANCH  24  25
ENDBRANCH  11  24
TORSDOF 4
ENDMDL
MODEL 3
REMARK VINA RESULT:      -7.1      3.566      7.847
REMARK  Name = 
REMARK  5 active torsions:
REMARK  status: ('A' for Active; 'I' for Inactive)
REMARK    1  A    between atoms: C_1  and  C_2
REMARK    2  A    between atoms: N_4  and  C_5
REMARK    3  A    between atoms: C_5  and  C_6
REMARK    4  A    between atoms: N_16  and  C_17
REMARK    5  A    between atoms: C_17  and  C_18
REMARK                            x       y       z     vdW  Elec       q    Type
REMARK                         _______ _______ _______ _____ _____    ______ ____
ROOT
ATOM      1  C   UNL     1       1.057   9.879  19.548  0.00  0.00    +0.000 C 
ATOM      2  O   UNL     1       0.577  10.721  18.785  0.00  0.00    +0.000 OA
ATOM      3  N   UNL     1       1.485   8.634  19.101  0.00  0.00    +0.000 N 
ATOM      4  C   UNL     1       1.568   8.367  17.668  0.00  0.00    +0.000 C 
ATOM      5  C   UNL     1       2.959   7.829  17.314  0.00  0.00    +0.000 C 
ATOM      6  C   UNL     1       3.376   6.641  18.201  0.00  0.00    +0.000 C 
ATOM      7  C   UNL     1       3.145   6.934  19.694  0.00  0.00    +0.000 C 
ATOM      8  C   UNL     1       1.742   7.478  19.955  0.00  0.00    +0.000 C 
ATOM      9  C   UNL     1       2.599   5.360  17.779  0.00  0.00    +0.000 C 
ATOM     10  O   UNL     1       1.384   5.226  17.781  0.00  0.00    +0.000 OA
ATOM     11  N   UNL     1       3.532   4.399  17.391  0.00  0.00    +0.000 N 
ATOM     12  C   UNL     1       4.835   4.896  17.471  0.00  0.00    +0.000 A 
ATOM     13  C   UNL     1       6.020   4.261  17.147  0.00  0.00    +0.000 A 
ATOM     14  C   UNL     1       7.211   4.967  17.315  0.00  0.00    +0.000 A 
ATOM     15  C   UNL     1       7.196   6.286  17.791  0.00  0.00    +0.000 A 
ATOM     16  C   UNL     1       5.991   6.919  18.105  0.00  0.00    +0.000 A 
ATOM     17  C   UNL     1       4.811   6.211  17.941  0.00  0.00    +0.000 A 
ENDROOT
BRANCH   1  18
ATOM     18  C   UNL     1       1.154  10.180  21.043  0.00  0.00    +0.000 C 
BRANCH  18  22
ATOM     19  C   UNL     1      -1.679  11.377  23.238  0.00  0.00    +0.000 C 
ATOM     20  C   UNL     1      -0.469  10.576  22.844  0.00  0.00    +0.000 C 
ATOM     21  O   UNL     1       0.098   9.816  23.622  0.00  0.00    +0.000 OA
ATOM     22  N   UNL     1      -0.070  10.775  21.546  0.00  0.00    +0.000 N 
ATOM     23  H   UNL     1      -0.494  11.511  20.994  0.00  0.00    +0.000 HD
ENDBRANCH  18  22
ENDBRANCH   1  18
BRANCH  11  24
ATOM     24  C   UNL     1       3.162   3.099  16.885  0.00  0.00    +0.000 C 
BRANCH  24  25
ATOM     25  C   UNL     1       2.769   2.087  17.925  0.00  0.00    +0.000 C 
ATOM     26  C   UNL     1       3.753   1.148  18.584  0.00  0.00    +0.000 C 
ATOM     27  C   UNL     1       3.089   2.226  19.395  0.00  0.00    +0.000 C 
ENDBRANCH  24  25
ENDBRANCH  11  24
TORSDOF 4
ENDMDL
MODEL 4
REMARK VINA RESULT:      -7.1      3.894      7.715
REMARK  Name = 
REMARK  5 active torsions:
REMARK  status: ('A' for Active; 'I' for Inactive)
REMARK    1  A    between atoms: C_1  and  C_2
REMARK    2  A    between atoms: N_4  and  C_5
REMARK    3  A    between atoms: C_5  and  C_6
REMARK    4  A    between atoms: N_16  and  C_17
REMARK    5  A    between atoms: C_17  and  C_18
REMARK                            x       y       z     vdW  Elec       q    Type
REMARK                         _______ _______ _______ _____ _____    ______ ____
ROOT
ATOM      1  C   UNL     1       0.607   9.690  19.385  0.00  0.00    +0.000 C 
ATOM      2  O   UNL     1       0.538  10.163  20.522  0.00  0.00    +0.000 OA
ATOM      3  N   UNL     1       1.563   8.744  19.033  0.00  0.00    +0.000 N 
ATOM      4  C   UNL     1       2.389   8.128  20.067  0.00  0.00    +0.000 C 
ATOM      5  C   UNL     1       2.324   6.601  19.950  0.00  0.00    +0.000 C 
ATOM      6  C   UNL     1       2.627   6.105  18.524  0.00  0.00    +0.000 C 
ATOM      7  C   UNL     1       1.822   6.880  17.466  0.00  0.00    +0.000 C 
ATOM      8  C   UNL     1       1.931   8.390  17.665  0.00  0.00    +0.000 C 
ATOM      9  C   UNL     1       4.151   6.221  18.230  0.00  0.00    +0.000 C 
ATOM     10  O   UNL     1       4.809   7.251  18.254  0.00  0.00    +0.000 OA
ATOM     11  N   UNL     1       4.633   4.944  17.945  0.00  0.00    +0.000 N 
ATOM     12  C   UNL     1       3.622   3.986  18.047  0.00  0.00    +0.000 A 
ATOM     13  C   UNL     1       3.711   2.617  17.868  0.00  0.00    +0.000 A 
ATOM     14  C   UNL     1       2.551   1.857  18.021  0.00  0.00    +0.000 A 
ATOM     15  C   UNL     1       1.336   2.472  18.356  0.00  0.00    +0.000 A 
ATOM     16  C   UNL     1       1.262   3.855  18.543  0.00  0.00    +0.000 A 
ATOM     17  C   UNL     1       2.417   4.605  18.386  0.00  0.00    +0.000 A 
ENDROOT
BRANCH   1  18
ATOM     18  C   UNL     1      -0.356  10.178  18.302  0.00  0.00    +0.000 C 
BRANCH  18  22
ATOM     19  C   UNL     1      -3.696  11.861  18.836  0.00  0.00    +0.000 C 
ATOM     20  C   UNL     1      -2.502  11.354  18.078  0.00  0.00    +0.000 C 
ATOM     21  O   UNL     1      -2.425  11.412  16.855  0.00  0.00    +0.000 OA
ATOM     22  N   UNL     1      -1.517  10.829  18.878  0.00  0.00    +0.000 N 
ATOM     23  H   UNL     1      -1.691  10.687  19.866  0.00  0.00    +0.000 HD
ENDBRANCH  18  22
ENDBRANCH   1  18
BRANCH  11  24
ATOM     24  C   UNL     1       6.024   4.667  17.678  0.00  0.00    +0.000 C 
BRANCH  24  25
ATOM     25  C   UNL     1       6.450   4.820  16.244  0.00  0.00    +0.000 C 
ATOM     26  C   UNL     1       6.028   3.870  15.146  0.00  0.00    +0.000 C 
ATOM     27  C   UNL     1       5.531   5.289  15.140  0.00  0.00    +0.000 C 
ENDBRANCH  24  25
ENDBRANCH  11  24
TORSDOF 4
ENDMDL
MODEL 5
REMARK VINA RESULT:      -6.9      4.832      8.368
REMARK  Name = 
REMARK  5 active torsions:
REMARK  status: ('A' for Active; 'I' for Inactive)
REMARK    1  A    between atoms: C_1  and  C_2
REMARK    2  A    between atoms: N_4  and  C_5
REMARK    3  A    between atoms: C_5  and  C_6
REMARK    4  A    between atoms: N_16  and  C_17
REMARK    5  A    between atoms: C_17  and  C_18
REMARK                            x       y       z     vdW  Elec       q    Type
REMARK                         _______ _______ _______ _____ _____    ______ ____
ROOT
ATOM      1  C   UNL     1       2.594   7.012  19.028  0.00  0.00    +0.000 C 
ATOM      2  O   UNL     1       3.420   6.857  18.125  0.00  0.00    +0.000 OA
ATOM      3  N   UNL     1       1.939   8.220  19.234  0.00  0.00    +0.000 N 
ATOM      4  C   UNL     1       2.061   9.289  18.247  0.00  0.00    +0.000 C 
ATOM      5  C   UNL     1       0.670   9.783  17.834  0.00  0.00    +0.000 C 
ATOM      6  C   UNL     1      -0.212  10.142  19.044  0.00  0.00    +0.000 C 
ATOM      7  C   UNL     1      -0.199   9.032  20.110  0.00  0.00    +0.000 C 
ATOM      8  C   UNL     1       1.221   8.591  20.452  0.00  0.00    +0.000 C 
ATOM      9  C   UNL     1       0.256  11.489  19.667  0.00  0.00    +0.000 C 
ATOM     10  O   UNL     1       1.366  11.720  20.124  0.00  0.00    +0.000 OA
ATOM     11  N   UNL     1      -0.810  12.386  19.604  0.00  0.00    +0.000 N 
ATOM     12  C   UNL     1      -1.922  11.810  18.983  0.00  0.00    +0.000 A 
ATOM     13  C   UNL     1      -3.150  12.384  18.712  0.00  0.00    +0.000 A 
ATOM     14  C   UNL     1      -4.116  11.601  18.080  0.00  0.00    +0.000 A 
ATOM     15  C   UNL     1      -3.837  10.274  17.725  0.00  0.00    +0.000 A 
ATOM     16  C   UNL     1      -2.588   9.709  17.997  0.00  0.00    +0.000 A 
ATOM     17  C   UNL     1      -1.633  10.490  18.630  0.00  0.00    +0.000 A 
ENDROOT
BRANCH   1  18
ATOM     18  C   UNL     1       2.299   5.859  19.989  0.00  0.00    +0.000 C 
BRANCH  18  22
ATOM     19  C   UNL     1       0.775   2.528  19.062  0.00  0.00    +0.000 C 
ATOM     20  C   UNL     1       1.325   3.604  19.956  0.00  0.00    +0.000 C 
ATOM     21  O   UNL     1       1.307   3.515  21.180  0.00  0.00    +0.000 OA
ATOM     22  N   UNL     1       1.845   4.678  19.279  0.00  0.00    +0.000 N 
ATOM     23  H   UNL     1       1.714   4.756  18.277  0.00  0.00    +0.000 HD
ENDBRANCH  18  22
ENDBRANCH   1  18
BRANCH  11  24
ATOM     24  C   UNL     1      -0.715  13.757  20.045  0.00  0.00    +0.000 C 
BRANCH  24  25
ATOM     25  C   UNL     1      -0.168  14.725  19.033  0.00  0.00    +0.000 C 
ATOM     26  C   UNL     1      -0.577  16.179  18.968  0.00  0.00    +0.000 C 
ATOM     27  C   UNL     1       0.826  15.814  19.364  0.00  0.00    +0.000 C 
ENDBRANCH  24  25
ENDBRANCH  11  24
TORSDOF 4
ENDMDL
MODEL 6
REMARK VINA RESULT:      -6.8      3.936      7.853
REMARK  Name = 
REMARK  5 active torsions:
REMARK  status: ('A' for Active; 'I' for Inactive)
REMARK    1  A    between atoms: C_1  and  C_2
REMARK    2  A    between atoms: N_4  and  C_5
REMARK    3  A    between atoms: C_5  and  C_6
REMARK    4  A    between atoms: N_16  and  C_17
REMARK    5  A    between atoms: C_17  and  C_18
REMARK                            x       y       z     vdW  Elec       q    Type
REMARK                         _______ _______ _______ _____ _____    ______ ____
ROOT
ATOM      1  C   UNL     1       0.487   9.737  19.710  0.00  0.00    +0.000 C 
ATOM      2  O   UNL     1       0.579  10.170  20.862  0.00  0.00    +0.000 OA
ATOM      3  N   UNL     1       1.421   8.859  19.172  0.00  0.00    +0.000 N 
ATOM      4  C   UNL     1       2.435   8.259  20.035  0.00  0.00    +0.000 C 
ATOM      5  C   UNL     1       2.430   6.736  19.869  0.00  0.00    +0.000 C 
ATOM      6  C   UNL     1       2.524   6.303  18.393  0.00  0.00    +0.000 C 
ATOM      7  C   UNL     1       1.519   7.063  17.510  0.00  0.00    +0.000 C 
ATOM      8  C   UNL     1       1.580   8.570  17.749  0.00  0.00    +0.000 C 
ATOM      9  C   UNL     1       3.972   6.516  17.864  0.00  0.00    +0.000 C 
ATOM     10  O   UNL     1       4.570   7.581  17.823  0.00  0.00    +0.000 OA
ATOM     11  N   UNL     1       4.467   5.278  17.454  0.00  0.00    +0.000 N 
ATOM     12  C   UNL     1       3.536   4.261  17.678  0.00  0.00    +0.000 A 
ATOM     13  C   UNL     1       3.666   2.906  17.432  0.00  0.00    +0.000 A 
ATOM     14  C   UNL     1       2.587   2.076  17.738  0.00  0.00    +0.000 A 
ATOM     15  C   UNL     1       1.412   2.609  18.288  0.00  0.00    +0.000 A 
ATOM     16  C   UNL     1       1.298   3.979  18.540  0.00  0.00    +0.000 A 
ATOM     17  C   UNL     1       2.371   4.799  18.230  0.00  0.00    +0.000 A 
ENDROOT
BRANCH   1  18
ATOM     18  C   UNL     1      -0.662  10.203  18.817  0.00  0.00    +0.000 C 
BRANCH  18  22
ATOM     19  C   UNL     1      -0.414  13.946  18.370  0.00  0.00    +0.000 C 
ATOM     20  C   UNL     1      -0.867  12.647  18.973  0.00  0.00    +0.000 C 
ATOM     21  O   UNL     1      -1.570  12.596  19.976  0.00  0.00    +0.000 OA
ATOM     22  N   UNL     1      -0.425  11.536  18.297  0.00  0.00    +0.000 N 
ATOM     23  H   UNL     1       0.259  11.635  17.556  0.00  0.00    +0.000 HD
ENDBRANCH  18  22
ENDBRANCH   1  18
BRANCH  11  24
ATOM     24  C   UNL     1       5.809   5.091  16.956  0.00  0.00    +0.000 C 
BRANCH  24  25
ATOM     25  C   UNL     1       6.867   4.902  18.007  0.00  0.00    +0.000 C 
ATOM     26  C   UNL     1       7.720   6.031  18.539  0.00  0.00    +0.000 C 
ATOM     27  C   UNL     1       6.721   5.359  19.439  0.00  0.00    +0.000 C 
ENDBRANCH  24  25
ENDBRANCH  11  24
TORSDOF 4
ENDMDL
MODEL 7
REMARK VINA RESULT:      -6.8      4.640      7.529
REMARK  Name = 
REMARK  5 active torsions:
REMARK  status: ('A' for Active; 'I' for Inactive)
REMARK    1  A    between atoms: C_1  and  C_2
REMARK    2  A    between atoms: N_4  and  C_5
REMARK    3  A    between atoms: C_5  and  C_6
REMARK    4  A    between atoms: N_16  and  C_17
REMARK    5  A    between atoms: C_17  and  C_18
REMARK                            x       y       z     vdW  Elec       q    Type
REMARK                         _______ _______ _______ _____ _____    ______ ____
ROOT
ATOM      1  C   UNL     1       2.792   7.074  18.653  0.00  0.00    +0.000 C 
ATOM      2  O   UNL     1       3.621   7.083  17.738  0.00  0.00    +0.000 OA
ATOM      3  N   UNL     1       2.123   8.224  19.055  0.00  0.00    +0.000 N 
ATOM      4  C   UNL     1       2.232   9.444  18.260  0.00  0.00    +0.000 C 
ATOM      5  C   UNL     1       0.836   9.983  17.931  0.00  0.00    +0.000 C 
ATOM      6  C   UNL     1      -0.052  10.125  19.182  0.00  0.00    +0.000 C 
ATOM      7  C   UNL     1      -0.026   8.853  20.048  0.00  0.00    +0.000 C 
ATOM      8  C   UNL     1       1.400   8.378  20.315  0.00  0.00    +0.000 C 
ATOM      9  C   UNL     1       0.400  11.355  20.022  0.00  0.00    +0.000 C 
ATOM     10  O   UNL     1       1.507  11.520  20.513  0.00  0.00    +0.000 OA
ATOM     11  N   UNL     1      -0.678  12.237  20.106  0.00  0.00    +0.000 N 
ATOM     12  C   UNL     1      -1.781  11.759  19.395  0.00  0.00    +0.000 A 
ATOM     13  C   UNL     1      -3.017  12.356  19.220  0.00  0.00    +0.000 A 
ATOM     14  C   UNL     1      -3.973  11.677  18.464  0.00  0.00    +0.000 A 
ATOM     15  C   UNL     1      -3.677  10.430  17.895  0.00  0.00    +0.000 A 
ATOM     16  C   UNL     1      -2.421   9.843  18.072  0.00  0.00    +0.000 A 
ATOM     17  C   UNL     1      -1.477  10.520  18.828  0.00  0.00    +0.000 A 
ENDROOT
BRANCH   1  18
ATOM     18  C   UNL     1       2.511   5.775  19.407  0.00  0.00    +0.000 C 
BRANCH  18  22
ATOM     19  C   UNL     1       3.097   2.817  17.131  0.00  0.00    +0.000 C 
ATOM     20  C   UNL     1       2.318   3.875  17.861  0.00  0.00    +0.000 C 
ATOM     21  O   UNL     1       1.114   4.038  17.696  0.00  0.00    +0.000 OA
ATOM     22  N   UNL     1       3.077   4.629  18.722  0.00  0.00    +0.000 N 
ATOM     23  H   UNL     1       4.086   4.537  18.719  0.00  0.00    +0.000 HD
ENDBRANCH  18  22
ENDBRANCH   1  18
BRANCH  11  24
ATOM     24  C   UNL     1      -0.600  13.517  20.769  0.00  0.00    +0.000 C 
BRANCH  24  25
ATOM     25  C   UNL     1      -0.692  13.475  22.269  0.00  0.00    +0.000 C 
ATOM     26  C   UNL     1      -1.965  13.765  23.031  0.00  0.00    +0.000 C 
ATOM     27  C   UNL     1      -1.388  12.377  23.038  0.00  0.00    +0.000 C 
ENDBRANCH  24  25
ENDBRANCH  11  24
TORSDOF 4
ENDMDL
MODEL 8
REMARK VINA RESULT:      -6.8      1.359      1.505
REMARK  Name = 
REMARK  5 active torsions:
REMARK  status: ('A' for Active; 'I' for Inactive)
REMARK    1  A    between atoms: C_1  and  C_2
REMARK    2  A    between atoms: N_4  and  C_5
REMARK    3  A    between atoms: C_5  and  C_6
REMARK    4  A    between atoms: N_16  and  C_17
REMARK    5  A    between atoms: C_17  and  C_18
REMARK                            x       y       z     vdW  Elec       q    Type
REMARK                         _______ _______ _______ _____ _____    ______ ____
ROOT
ATOM      1  C   UNL     1       7.045   4.482  15.767  0.00  0.00    +0.000 C 
ATOM      2  O   UNL     1       8.245   4.680  15.977  0.00  0.00    +0.000 OA
ATOM      3  N   UNL     1       6.115   4.413  16.798  0.00  0.00    +0.000 N 
ATOM      4  C   UNL     1       6.507   4.781  18.155  0.00  0.00    +0.000 C 
ATOM      5  C   UNL     1       5.527   5.815  18.722  0.00  0.00    +0.000 C 
ATOM      6  C   UNL     1       4.058   5.372  18.589  0.00  0.00    +0.000 C 
ATOM      7  C   UNL     1       3.738   4.873  17.169  0.00  0.00    +0.000 C 
ATOM      8  C   UNL     1       4.769   3.859  16.679  0.00  0.00    +0.000 C 
ATOM      9  C   UNL     1       3.739   4.262  19.633  0.00  0.00    +0.000 C 
ATOM     10  O   UNL     1       4.293   3.177  19.717  0.00  0.00    +0.000 OA
ATOM     11  N   UNL     1       2.715   4.729  20.457  0.00  0.00    +0.000 N 
ATOM     12  C   UNL     1       2.338   6.029  20.111  0.00  0.00    +0.000 A 
ATOM     13  C   UNL     1       1.386   6.837  20.705  0.00  0.00    +0.000 A 
ATOM     14  C   UNL     1       1.181   8.111  20.175  0.00  0.00    +0.000 A 
ATOM     15  C   UNL     1       1.930   8.554  19.076  0.00  0.00    +0.000 A 
ATOM     16  C   UNL     1       2.896   7.731  18.490  0.00  0.00    +0.000 A 
ATOM     17  C   UNL     1       3.092   6.464  19.018  0.00  0.00    +0.000 A 
ENDROOT
BRANCH   1  18
ATOM     18  C   UNL     1       6.554   4.263  14.336  0.00  0.00    +0.000 C 
BRANCH  18  22
ATOM     19  C   UNL     1       7.847   6.041  11.264  0.00  0.00    +0.000 C 
ATOM     20  C   UNL     1       7.365   4.892  12.104  0.00  0.00    +0.000 C 
ATOM     21  O   UNL     1       7.192   3.768  11.645  0.00  0.00    +0.000 OA
ATOM     22  N   UNL     1       7.143   5.219  13.419  0.00  0.00    +0.000 N 
ATOM     23  H   UNL     1       7.175   6.189  13.711  0.00  0.00    +0.000 HD
ENDBRANCH  18  22
ENDBRANCH   1  18
BRANCH  11  24
ATOM     24  C   UNL     1       2.200   3.979  21.577  0.00  0.00    +0.000 C 
BRANCH  24  25
ATOM     25  C   UNL     1       1.187   2.922  21.237  0.00  0.00    +0.000 C 
ATOM     26  C   UNL     1       0.298   2.986  20.015  0.00  0.00    +0.000 C 
ATOM     27  C   UNL     1       1.357   1.925  20.115  0.00  0.00    +0.000 C 
ENDBRANCH  24  25
ENDBRANCH  11  24
TORSDOF 4
ENDMDL
MODEL 9
REMARK VINA RESULT:      -6.7      4.587      7.897
REMARK  Name = 
REMARK  5 active torsions:
REMARK  status: ('A' for Active; 'I' for Inactive)
REMARK    1  A    between atoms: C_1  and  C_2
REMARK    2  A    between atoms: N_4  and  C_5
REMARK    3  A    between atoms: C_5  and  C_6
REMARK    4  A    between atoms: N_16  and  C_17
REMARK    5  A    between atoms: C_17  and  C_18
REMARK                            x       y       z     vdW  Elec       q    Type
REMARK                         _______ _______ _______ _____ _____    ______ ____
ROOT
ATOM      1  C   UNL     1       2.726   6.925  18.984  0.00  0.00    +0.000 C 
ATOM      2  O   UNL     1       3.564   6.835  18.082  0.00  0.00    +0.000 OA
ATOM      3  N   UNL     1       2.064   8.114  19.263  0.00  0.00    +0.000 N 
ATOM      4  C   UNL     1       2.194   9.249  18.353  0.00  0.00    +0.000 C 
ATOM      5  C   UNL     1       0.806   9.765  17.957  0.00  0.00    +0.000 C 
ATOM      6  C   UNL     1      -0.093  10.038  19.177  0.00  0.00    +0.000 C 
ATOM      7  C   UNL     1      -0.088   8.858  20.165  0.00  0.00    +0.000 C 
ATOM      8  C   UNL     1       1.330   8.399  20.494  0.00  0.00    +0.000 C 
ATOM      9  C   UNL     1       0.362  11.341  19.896  0.00  0.00    +0.000 C 
ATOM     10  O   UNL     1       1.466  11.544  20.381  0.00  0.00    +0.000 OA
ATOM     11  N   UNL     1      -0.707  12.237  19.881  0.00  0.00    +0.000 N 
ATOM     12  C   UNL     1      -1.808  11.701  19.209  0.00  0.00    +0.000 A 
ATOM     13  C   UNL     1      -3.035  12.288  18.961  0.00  0.00    +0.000 A 
ATOM     14  C   UNL     1      -3.990  11.547  18.265  0.00  0.00    +0.000 A 
ATOM     15  C   UNL     1      -3.701  10.247  17.825  0.00  0.00    +0.000 A 
ATOM     16  C   UNL     1      -2.453   9.669  18.074  0.00  0.00    +0.000 A 
ATOM     17  C   UNL     1      -1.510  10.408  18.770  0.00  0.00    +0.000 A 
ENDROOT
BRANCH   1  18
ATOM     18  C   UNL     1       2.424   5.709  19.860  0.00  0.00    +0.000 C 
BRANCH  18  22
ATOM     19  C   UNL     1       0.802   2.474  18.775  0.00  0.00    +0.000 C 
ATOM     20  C   UNL     1       1.599   3.405  19.645  0.00  0.00    +0.000 C 
ATOM     21  O   UNL     1       2.037   3.068  20.740  0.00  0.00    +0.000 OA
ATOM     22  N   UNL     1       1.789   4.650  19.099  0.00  0.00    +0.000 N 
ATOM     23  H   UNL     1       1.294   4.913  18.255  0.00  0.00    +0.000 HD
ENDBRANCH  18  22
ENDBRANCH   1  18
BRANCH  11  24
ATOM     24  C   UNL     1      -0.623  13.575  20.415  0.00  0.00    +0.000 C 
BRANCH  24  25
ATOM     25  C   UNL     1      -0.823  13.693  21.900  0.00  0.00    +0.000 C 
ATOM     26  C   UNL     1      -2.181  13.865  22.544  0.00  0.00    +0.000 C 
ATOM     27  C   UNL     1      -1.407  12.595  22.759  0.00  0.00    +0.000 C 
ENDBRANCH  24  25
ENDBRANCH  11  24
TORSDOF 4
ENDMDL
