MODEL 1
REMARK VINA RESULT:      -9.2      0.000      0.000
REMARK  Name = 
REMARK  8 active torsions:
REMARK  status: ('A' for Active; 'I' for Inactive)
REMARK    1  A    between atoms: C_1  and  O_2
REMARK    2  A    between atoms: O_2  and  C_3
REMARK    3  A    between atoms: C_6  and  C_7
REMARK    4  A    between atoms: C_7  and  C_9
REMARK    5  A    between atoms: C_10  and  C_11
REMARK    6  A    between atoms: C_14  and  N_15
REMARK    7  A    between atoms: C_19  and  C_20
REMARK    8  A    between atoms: N_21  and  C_22
REMARK                            x       y       z     vdW  Elec       q    Type
REMARK                         _______ _______ _______ _____ _____    ______ ____
ROOT
ATOM      1  C   UNL     1       2.430   7.244  19.118  0.00  0.00    +0.000 A 
ATOM      2  C   UNL     1       2.026   8.380  18.369  0.00  0.00    +0.000 A 
ATOM      3  C   UNL     1       1.287   9.495  18.922  0.00  0.00    +0.000 A 
ATOM      4  C   UNL     1       0.896   9.473  20.255  0.00  0.00    +0.000 A 
ATOM      5  C   UNL     1       1.308   8.318  20.995  0.00  0.00    +0.000 A 
ATOM      6  C   UNL     1       2.026   7.225  20.446  0.00  0.00    +0.000 A 
ENDROOT
BRANCH   4   7
ATOM      7  N   UNL     1       0.007  10.428  20.941  0.00  0.00    +0.000 N 
ATOM      8  N   UNL     1      -0.800  10.434  22.127  0.00  0.00    +0.000 NA
ATOM      9  C   UNL     1      -1.556  11.589  21.958  0.00  0.00    +0.000 A 
ATOM     10  C   UNL     1      -1.300  12.069  20.625  0.00  0.00    +0.000 A 
ATOM     11  C   UNL     1       0.019  11.736  20.514  0.00  0.00    +0.000 A 
ATOM     12  C   UNL     1       1.307  12.471  20.415  0.00  0.00    +0.000 C 
ATOM     13  N   UNL     1      -1.997  13.160  20.085  0.00  0.00    +0.000 N 
ATOM     14  C   UNL     1      -3.485  12.888  19.895  0.00  0.00    +0.000 C 
ATOM     15  S   UNL     1      -1.721  14.552  21.065  0.00  0.00    +0.000 S 
ATOM     16  O   UNL     1      -0.326  14.752  21.392  0.00  0.00    +0.000 OA
ATOM     17  O   UNL     1      -2.522  15.627  20.524  0.00  0.00    +0.000 OA
ATOM     18  C   UNL     1      -2.474  13.942  22.549  0.00  0.00    +0.000 A 
ATOM     19  C   UNL     1      -3.289  14.911  23.165  0.00  0.00    +0.000 A 
ATOM     20  C   UNL     1      -4.146  14.522  24.158  0.00  0.00    +0.000 A 
ATOM     21  C   UNL     1      -4.150  13.172  24.525  0.00  0.00    +0.000 A 
ATOM     22  C   UNL     1      -3.292  12.185  23.912  0.00  0.00    +0.000 A 
ATOM     23  C   UNL     1      -2.407  12.531  22.879  0.00  0.00    +0.000 A 
ENDBRANCH   4   7
BRANCH   1  25
ATOM     24  C   UNL     1       4.357   5.627  19.132  0.00  0.00    +0.000 C 
ATOM     25  C   UNL     1       3.222   6.093  18.569  0.00  0.00    +0.000 C 
BRANCH  24  26
ATOM     26  C   UNL     1       5.160   4.434  18.644  0.00  0.00    +0.000 C 
ATOM     27  O   UNL     1       5.427   3.508  19.377  0.00  0.00    +0.000 OA
BRANCH  26  31
ATOM     28  C   UNL     1       6.566   4.439  14.508  0.00  0.00    +0.000 A 
ATOM     29  C   UNL     1       7.401   4.858  15.543  0.00  0.00    +0.000 A 
ATOM     30  C   UNL     1       6.942   4.843  16.866  0.00  0.00    +0.000 A 
ATOM     31  C   UNL     1       5.638   4.437  17.195  0.00  0.00    +0.000 A 
ATOM     32  C   UNL     1       4.819   4.040  16.130  0.00  0.00    +0.000 A 
ATOM     33  C   UNL     1       5.268   4.046  14.807  0.00  0.00    +0.000 A 
BRANCH  28  35
ATOM     34  C   UNL     1       6.513   3.591  12.288  0.00  0.00    +0.000 C 
ATOM     35  O   UNL     1       7.095   4.480  13.247  0.00  0.00    +0.000 OA
ENDBRANCH  28  35
ENDBRANCH  26  31
ENDBRANCH  24  26
ENDBRANCH   1  25
TORSDOF 5
ENDMDL
MODEL 2
REMARK VINA RESULT:      -9.0      1.876      2.707
REMARK  Name = 
REMARK  8 active torsions:
REMARK  status: ('A' for Active; 'I' for Inactive)
REMARK    1  A    between atoms: C_1  and  O_2
REMARK    2  A    between atoms: O_2  and  C_3
REMARK    3  A    between atoms: C_6  and  C_7
REMARK    4  A    between atoms: C_7  and  C_9
REMARK    5  A    between atoms: C_10  and  C_11
REMARK    6  A    between atoms: C_14  and  N_15
REMARK    7  A    between atoms: C_19  and  C_20
REMARK    8  A    between atoms: N_21  and  C_22
REMARK                            x       y       z     vdW  Elec       q    Type
REMARK                         _______ _______ _______ _____ _____    ______ ____
ROOT
ATOM      1  C   UNL     1       1.543   8.359  20.140  0.00  0.00    +0.000 A 
ATOM      2  C   UNL     1       1.325   9.532  19.370  0.00  0.00    +0.000 A 
ATOM      3  C   UNL     1       0.746  10.750  19.895  0.00  0.00    +0.000 A 
ATOM      4  C   UNL     1       0.330  10.803  21.220  0.00  0.00    +0.000 A 
ATOM      5  C   UNL     1       0.554   9.611  21.981  0.00  0.00    +0.000 A 
ATOM      6  C   UNL     1       1.115   8.418  21.459  0.00  0.00    +0.000 A 
ENDROOT
BRANCH   4   7
ATOM      7  N   UNL     1      -0.423  11.888  21.877  0.00  0.00    +0.000 N 
ATOM      8  N   UNL     1      -0.128  12.965  22.777  0.00  0.00    +0.000 NA
ATOM      9  C   UNL     1      -1.399  13.384  23.155  0.00  0.00    +0.000 A 
ATOM     10  C   UNL     1      -2.334  12.425  22.626  0.00  0.00    +0.000 A 
ATOM     11  C   UNL     1      -1.709  12.126  21.449  0.00  0.00    +0.000 A 
ATOM     12  C   UNL     1      -1.982  12.340  20.005  0.00  0.00    +0.000 C 
ATOM     13  N   UNL     1      -3.703  12.486  22.923  0.00  0.00    +0.000 N 
ATOM     14  C   UNL     1      -4.010  12.241  24.395  0.00  0.00    +0.000 C 
ATOM     15  S   UNL     1      -4.337  13.994  22.379  0.00  0.00    +0.000 S 
ATOM     16  O   UNL     1      -3.935  14.329  21.030  0.00  0.00    +0.000 OA
ATOM     17  O   UNL     1      -5.724  14.050  22.780  0.00  0.00    +0.000 OA
ATOM     18  C   UNL     1      -3.373  15.042  23.435  0.00  0.00    +0.000 A 
ATOM     19  C   UNL     1      -4.148  16.069  24.009  0.00  0.00    +0.000 A 
ATOM     20  C   UNL     1      -3.625  16.792  25.047  0.00  0.00    +0.000 A 
ATOM     21  C   UNL     1      -2.329  16.482  25.471  0.00  0.00    +0.000 A 
ATOM     22  C   UNL     1      -1.526  15.447  24.861  0.00  0.00    +0.000 A 
ATOM     23  C   UNL     1      -2.022  14.669  23.805  0.00  0.00    +0.000 A 
ENDBRANCH   4   7
BRANCH   1  25
ATOM     24  C   UNL     1       2.112   5.912  20.264  0.00  0.00    +0.000 C 
ATOM     25  C   UNL     1       2.169   7.097  19.620  0.00  0.00    +0.000 C 
BRANCH  24  26
ATOM     26  C   UNL     1       2.682   4.601  19.751  0.00  0.00    +0.000 C 
ATOM     27  O   UNL     1       2.220   3.534  20.090  0.00  0.00    +0.000 OA
BRANCH  26  31
ATOM     28  C   UNL     1       6.115   4.763  17.055  0.00  0.00    +0.000 A 
ATOM     29  C   UNL     1       6.271   5.006  18.419  0.00  0.00    +0.000 A 
ATOM     30  C   UNL     1       5.165   4.942  19.275  0.00  0.00    +0.000 A 
ATOM     31  C   UNL     1       3.873   4.661  18.799  0.00  0.00    +0.000 A 
ATOM     32  C   UNL     1       3.748   4.441  17.421  0.00  0.00    +0.000 A 
ATOM     33  C   UNL     1       4.845   4.497  16.559  0.00  0.00    +0.000 A 
BRANCH  28  35
ATOM     34  C   UNL     1       7.058   4.800  14.873  0.00  0.00    +0.000 C 
ATOM     35  O   UNL     1       7.248   4.842  16.291  0.00  0.00    +0.000 OA
ENDBRANCH  28  35
ENDBRANCH  26  31
ENDBRANCH  24  26
ENDBRANCH   1  25
TORSDOF 5
ENDMDL
MODEL 3
REMARK VINA RESULT:      -8.9      1.669      2.619
REMARK  Name = 
REMARK  8 active torsions:
REMARK  status: ('A' for Active; 'I' for Inactive)
REMARK    1  A    between atoms: C_1  and  O_2
REMARK    2  A    between atoms: O_2  and  C_3
REMARK    3  A    between atoms: C_6  and  C_7
REMARK    4  A    between atoms: C_7  and  C_9
REMARK    5  A    between atoms: C_10  and  C_11
REMARK    6  A    between atoms: C_14  and  N_15
REMARK    7  A    between atoms: C_19  and  C_20
REMARK    8  A    between atoms: N_21  and  C_22
REMARK                            x       y       z     vdW  Elec       q    Type
REMARK                         _______ _______ _______ _____ _____    ______ ____
ROOT
ATOM      1  C   UNL     1       2.585   7.537  18.625  0.00  0.00    +0.000 A 
ATOM      2  C   UNL     1       2.002   7.641  19.916  0.00  0.00    +0.000 A 
ATOM      3  C   UNL     1       1.178   8.751  20.347  0.00  0.00    +0.000 A 
ATOM      4  C   UNL     1       0.951   9.818  19.488  0.00  0.00    +0.000 A 
ATOM      5  C   UNL     1       1.549   9.700  18.192  0.00  0.00    +0.000 A 
ATOM      6  C   UNL     1       2.361   8.614  17.777  0.00  0.00    +0.000 A 
ENDROOT
BRANCH   4   7
ATOM      7  N   UNL     1       0.286  11.095  19.806  0.00  0.00    +0.000 N 
ATOM      8  N   UNL     1       0.648  12.483  19.827  0.00  0.00    +0.000 NA
ATOM      9  C   UNL     1      -0.429  13.055  20.495  0.00  0.00    +0.000 A 
ATOM     10  C   UNL     1      -1.240  11.973  20.991  0.00  0.00    +0.000 A 
ATOM     11  C   UNL     1      -1.081  11.083  19.967  0.00  0.00    +0.000 A 
ATOM     12  C   UNL     1      -1.946  10.496  18.912  0.00  0.00    +0.000 C 
ATOM     13  N   UNL     1      -2.351  12.200  21.816  0.00  0.00    +0.000 N 
ATOM     14  C   UNL     1      -1.982  12.783  23.174  0.00  0.00    +0.000 C 
ATOM     15  S   UNL     1      -3.487  13.191  20.980  0.00  0.00    +0.000 S 
ATOM     16  O   UNL     1      -3.745  12.748  19.626  0.00  0.00    +0.000 OA
ATOM     17  O   UNL     1      -4.572  13.470  21.893  0.00  0.00    +0.000 OA
ATOM     18  C   UNL     1      -2.463  14.629  20.822  0.00  0.00    +0.000 A 
ATOM     19  C   UNL     1      -3.167  15.814  21.116  0.00  0.00    +0.000 A 
ATOM     20  C   UNL     1      -2.464  16.973  21.304  0.00  0.00    +0.000 A 
ATOM     21  C   UNL     1      -1.073  16.922  21.171  0.00  0.00    +0.000 A 
ATOM     22  C   UNL     1      -0.356  15.712  20.840  0.00  0.00    +0.000 A 
ATOM     23  C   UNL     1      -1.029  14.495  20.653  0.00  0.00    +0.000 A 
ENDBRANCH   4   7
BRANCH   1  25
ATOM     24  C   UNL     1       4.331   5.752  18.918  0.00  0.00    +0.000 C 
ATOM     25  C   UNL     1       3.417   6.381  18.151  0.00  0.00    +0.000 C 
BRANCH  24  26
ATOM     26  C   UNL     1       5.156   4.546  18.499  0.00  0.00    +0.000 C 
ATOM     27  O   UNL     1       5.405   3.650  19.274  0.00  0.00    +0.000 OA
BRANCH  26  31
ATOM     28  C   UNL     1       6.615   4.413  14.384  0.00  0.00    +0.000 A 
ATOM     29  C   UNL     1       5.356   3.907  14.708  0.00  0.00    +0.000 A 
ATOM     30  C   UNL     1       4.896   3.964  16.029  0.00  0.00    +0.000 A 
ATOM     31  C   UNL     1       5.678   4.499  17.066  0.00  0.00    +0.000 A 
ATOM     32  C   UNL     1       6.944   4.981  16.710  0.00  0.00    +0.000 A 
ATOM     33  C   UNL     1       7.412   4.934  15.394  0.00  0.00    +0.000 A 
BRANCH  28  35
ATOM     34  C   UNL     1       6.236   3.406  12.265  0.00  0.00    +0.000 C 
ATOM     35  O   UNL     1       6.985   4.321  13.070  0.00  0.00    +0.000 OA
ENDBRANCH  28  35
ENDBRANCH  26  31
ENDBRANCH  24  26
ENDBRANCH   1  25
TORSDOF 5
ENDMDL
MODEL 4
REMARK VINA RESULT:      -8.9      1.950      2.866
REMARK  Name = 
REMARK  8 active torsions:
REMARK  status: ('A' for Active; 'I' for Inactive)
REMARK    1  A    between atoms: C_1  and  O_2
REMARK    2  A    between atoms: O_2  and  C_3
REMARK    3  A    between atoms: C_6  and  C_7
REMARK    4  A    between atoms: C_7  and  C_9
REMARK    5  A    between atoms: C_10  and  C_11
REMARK    6  A    between atoms: C_14  and  N_15
REMARK    7  A    between atoms: C_19  and  C_20
REMARK    8  A    between atoms: N_21  and  C_22
REMARK                            x       y       z     vdW  Elec       q    Type
REMARK                         _______ _______ _______ _____ _____    ______ ____
ROOT
ATOM      1  C   UNL     1       0.975   8.204  21.037  0.00  0.00    +0.000 A 
ATOM      2  C   UNL     1       1.147   9.408  20.305  0.00  0.00    +0.000 A 
ATOM      3  C   UNL     1       0.634  10.694  20.727  0.00  0.00    +0.000 A 
ATOM      4  C   UNL     1      -0.112  10.791  21.896  0.00  0.00    +0.000 A 
ATOM      5  C   UNL     1      -0.279   9.567  22.620  0.00  0.00    +0.000 A 
ATOM      6  C   UNL     1       0.221   8.309  22.199  0.00  0.00    +0.000 A 
ENDROOT
BRANCH   4   7
ATOM      7  N   UNL     1      -0.846  11.970  22.391  0.00  0.00    +0.000 N 
ATOM      8  N   UNL     1      -0.553  13.114  23.205  0.00  0.00    +0.000 NA
ATOM      9  C   UNL     1      -1.822  13.630  23.448  0.00  0.00    +0.000 A 
ATOM     10  C   UNL     1      -2.771  12.671  22.944  0.00  0.00    +0.000 A 
ATOM     11  C   UNL     1      -2.085  12.228  21.850  0.00  0.00    +0.000 A 
ATOM     12  C   UNL     1      -2.246  12.313  20.375  0.00  0.00    +0.000 C 
ATOM     13  N   UNL     1      -4.151  12.828  23.133  0.00  0.00    +0.000 N 
ATOM     14  C   UNL     1      -4.571  12.743  24.595  0.00  0.00    +0.000 C 
ATOM     15  S   UNL     1      -4.661  14.305  22.404  0.00  0.00    +0.000 S 
ATOM     16  O   UNL     1      -4.150  14.486  21.063  0.00  0.00    +0.000 OA
ATOM     17  O   UNL     1      -6.067  14.468  22.696  0.00  0.00    +0.000 OA
ATOM     18  C   UNL     1      -3.715  15.402  23.425  0.00  0.00    +0.000 A 
ATOM     19  C   UNL     1      -4.468  16.517  23.842  0.00  0.00    +0.000 A 
ATOM     20  C   UNL     1      -3.978  17.311  24.844  0.00  0.00    +0.000 A 
ATOM     21  C   UNL     1      -2.734  16.981  25.389  0.00  0.00    +0.000 A 
ATOM     22  C   UNL     1      -1.950  15.854  24.939  0.00  0.00    +0.000 A 
ATOM     23  C   UNL     1      -2.415  15.001  23.927  0.00  0.00    +0.000 A 
ENDBRANCH   4   7
BRANCH   1  25
ATOM     24  C   UNL     1       2.393   6.693  19.612  0.00  0.00    +0.000 C 
ATOM     25  C   UNL     1       1.526   6.867  20.631  0.00  0.00    +0.000 C 
BRANCH  24  26
ATOM     26  C   UNL     1       3.017   5.370  19.200  0.00  0.00    +0.000 C 
ATOM     27  O   UNL     1       2.782   4.346  19.802  0.00  0.00    +0.000 OA
BRANCH  26  31
ATOM     28  C   UNL     1       5.742   5.397  15.786  0.00  0.00    +0.000 A 
ATOM     29  C   UNL     1       5.127   6.574  16.214  0.00  0.00    +0.000 A 
ATOM     30  C   UNL     1       4.263   6.554  17.315  0.00  0.00    +0.000 A 
ATOM     31  C   UNL     1       3.965   5.367  18.005  0.00  0.00    +0.000 A 
ATOM     32  C   UNL     1       4.584   4.200  17.538  0.00  0.00    +0.000 A 
ATOM     33  C   UNL     1       5.452   4.209  16.443  0.00  0.00    +0.000 A 
BRANCH  28  35
ATOM     34  C   UNL     1       6.591   4.393  13.806  0.00  0.00    +0.000 C 
ATOM     35  O   UNL     1       6.575   5.506  14.706  0.00  0.00    +0.000 OA
ENDBRANCH  28  35
ENDBRANCH  26  31
ENDBRANCH  24  26
ENDBRANCH   1  25
TORSDOF 5
ENDMDL
MODEL 5
REMARK VINA RESULT:      -8.8      0.731      1.120
REMARK  Name = 
REMARK  8 active torsions:
REMARK  status: ('A' for Active; 'I' for Inactive)
REMARK    1  A    between atoms: C_1  and  O_2
REMARK    2  A    between atoms: O_2  and  C_3
REMARK    3  A    between atoms: C_6  and  C_7
REMARK    4  A    between atoms: C_7  and  C_9
REMARK    5  A    between atoms: C_10  and  C_11
REMARK    6  A    between atoms: C_14  and  N_15
REMARK    7  A    between atoms: C_19  and  C_20
REMARK    8  A    between atoms: N_21  and  C_22
REMARK                            x       y       z     vdW  Elec       q    Type
REMARK                         _______ _______ _______ _____ _____    ______ ____
ROOT
ATOM      1  C   UNL     1       2.299   7.495  19.292  0.00  0.00    +0.000 A 
ATOM      2  C   UNL     1       1.872   8.611  18.526  0.00  0.00    +0.000 A 
ATOM      3  C   UNL     1       1.110   9.719  19.063  0.00  0.00    +0.000 A 
ATOM      4  C   UNL     1       0.722   9.709  20.397  0.00  0.00    +0.000 A 
ATOM      5  C   UNL     1       1.158   8.574  21.154  0.00  0.00    +0.000 A 
ATOM      6  C   UNL     1       1.898   7.489  20.621  0.00  0.00    +0.000 A 
ENDROOT
BRANCH   4   7
ATOM      7  N   UNL     1      -0.186  10.657  21.070  0.00  0.00    +0.000 N 
ATOM      8  N   UNL     1      -0.976  10.672  22.267  0.00  0.00    +0.000 NA
ATOM      9  C   UNL     1      -1.768  11.799  22.078  0.00  0.00    +0.000 A 
ATOM     10  C   UNL     1      -1.545  12.250  20.728  0.00  0.00    +0.000 A 
ATOM     11  C   UNL     1      -0.217  11.953  20.608  0.00  0.00    +0.000 A 
ATOM     12  C   UNL     1       1.046  12.722  20.471  0.00  0.00    +0.000 C 
ATOM     13  N   UNL     1      -2.281  13.305  20.170  0.00  0.00    +0.000 N 
ATOM     14  C   UNL     1      -3.762  12.985  20.008  0.00  0.00    +0.000 C 
ATOM     15  S   UNL     1      -2.032  14.731  21.107  0.00  0.00    +0.000 S 
ATOM     16  O   UNL     1      -0.639  14.980  21.408  0.00  0.00    +0.000 OA
ATOM     17  O   UNL     1      -2.872  15.766  20.549  0.00  0.00    +0.000 OA
ATOM     18  C   UNL     1      -2.746  14.140  22.618  0.00  0.00    +0.000 A 
ATOM     19  C   UNL     1      -3.581  15.102  23.219  0.00  0.00    +0.000 A 
ATOM     20  C   UNL     1      -4.413  14.715  24.235  0.00  0.00    +0.000 A 
ATOM     21  C   UNL     1      -4.372  13.377  24.639  0.00  0.00    +0.000 A 
ATOM     22  C   UNL     1      -3.493  12.398  24.040  0.00  0.00    +0.000 A 
ATOM     23  C   UNL     1      -2.634  12.741  22.985  0.00  0.00    +0.000 A 
ENDBRANCH   4   7
BRANCH   1  25
ATOM     24  C   UNL     1       3.145   5.127  19.325  0.00  0.00    +0.000 C 
ATOM     25  C   UNL     1       3.114   6.352  18.759  0.00  0.00    +0.000 C 
BRANCH  24  26
ATOM     26  C   UNL     1       3.911   3.927  18.791  0.00  0.00    +0.000 C 
ATOM     27  O   UNL     1       3.692   2.807  19.195  0.00  0.00    +0.000 OA
BRANCH  26  31
ATOM     28  C   UNL     1       6.951   4.644  15.738  0.00  0.00    +0.000 A 
ATOM     29  C   UNL     1       5.671   4.223  15.381  0.00  0.00    +0.000 A 
ATOM     30  C   UNL     1       4.702   4.006  16.368  0.00  0.00    +0.000 A 
ATOM     31  C   UNL     1       4.982   4.175  17.734  0.00  0.00    +0.000 A 
ATOM     32  C   UNL     1       6.283   4.580  18.060  0.00  0.00    +0.000 A 
ATOM     33  C   UNL     1       7.256   4.804  17.083  0.00  0.00    +0.000 A 
BRANCH  28  35
ATOM     34  C   UNL     1       7.273   4.893  13.396  0.00  0.00    +0.000 C 
ATOM     35  O   UNL     1       7.835   4.837  14.711  0.00  0.00    +0.000 OA
ENDBRANCH  28  35
ENDBRANCH  26  31
ENDBRANCH  24  26
ENDBRANCH   1  25
TORSDOF 5
ENDMDL
MODEL 6
REMARK VINA RESULT:      -8.7      2.032      3.174
REMARK  Name = 
REMARK  8 active torsions:
REMARK  status: ('A' for Active; 'I' for Inactive)
REMARK    1  A    between atoms: C_1  and  O_2
REMARK    2  A    between atoms: O_2  and  C_3
REMARK    3  A    between atoms: C_6  and  C_7
REMARK    4  A    between atoms: C_7  and  C_9
REMARK    5  A    between atoms: C_10  and  C_11
REMARK    6  A    between atoms: C_14  and  N_15
REMARK    7  A    between atoms: C_19  and  C_20
REMARK    8  A    between atoms: N_21  and  C_22
REMARK                            x       y       z     vdW  Elec       q    Type
REMARK                         _______ _______ _______ _____ _____    ______ ____
ROOT
ATOM      1  C   UNL     1       1.171   8.315  20.641  0.00  0.00    +0.000 A 
ATOM      2  C   UNL     1       1.264   9.546  19.942  0.00  0.00    +0.000 A 
ATOM      3  C   UNL     1       0.730  10.800  20.433  0.00  0.00    +0.000 A 
ATOM      4  C   UNL     1       0.046  10.834  21.642  0.00  0.00    +0.000 A 
ATOM      5  C   UNL     1      -0.041   9.582  22.332  0.00  0.00    +0.000 A 
ATOM      6  C   UNL     1       0.477   8.356  21.843  0.00  0.00    +0.000 A 
ENDROOT
BRANCH   4   7
ATOM      7  N   UNL     1      -0.700  11.970  22.213  0.00  0.00    +0.000 N 
ATOM      8  N   UNL     1      -0.401  13.102  23.042  0.00  0.00    +0.000 NA
ATOM      9  C   UNL     1      -1.671  13.563  23.374  0.00  0.00    +0.000 A 
ATOM     10  C   UNL     1      -2.612  12.581  22.900  0.00  0.00    +0.000 A 
ATOM     11  C   UNL     1      -1.978  12.194  21.755  0.00  0.00    +0.000 A 
ATOM     12  C   UNL     1      -2.231  12.313  20.296  0.00  0.00    +0.000 C 
ATOM     13  N   UNL     1      -3.984  12.679  23.176  0.00  0.00    +0.000 N 
ATOM     14  C   UNL     1      -4.311  12.540  24.657  0.00  0.00    +0.000 C 
ATOM     15  S   UNL     1      -4.591  14.155  22.522  0.00  0.00    +0.000 S 
ATOM     16  O   UNL     1      -4.169  14.392  21.158  0.00  0.00    +0.000 OA
ATOM     17  O   UNL     1      -5.982  14.255  22.901  0.00  0.00    +0.000 OA
ATOM     18  C   UNL     1      -3.626  15.260  23.516  0.00  0.00    +0.000 A 
ATOM     19  C   UNL     1      -4.393  16.334  24.009  0.00  0.00    +0.000 A 
ATOM     20  C   UNL     1      -3.872  17.119  25.002  0.00  0.00    +0.000 A 
ATOM     21  C   UNL     1      -2.586  16.822  25.462  0.00  0.00    +0.000 A 
ATOM     22  C   UNL     1      -1.790  15.739  24.934  0.00  0.00    +0.000 A 
ATOM     23  C   UNL     1      -2.284  14.896  23.927  0.00  0.00    +0.000 A 
ENDBRANCH   4   7
BRANCH   1  25
ATOM     24  C   UNL     1       1.790   5.892  20.914  0.00  0.00    +0.000 C 
ATOM     25  C   UNL     1       1.744   7.012  20.162  0.00  0.00    +0.000 C 
BRANCH  24  26
ATOM     26  C   UNL     1       2.309   4.541  20.453  0.00  0.00    +0.000 C 
ATOM     27  O   UNL     1       2.012   3.519  21.031  0.00  0.00    +0.000 OA
BRANCH  26  31
ATOM     28  C   UNL     1       4.927   4.440  16.958  0.00  0.00    +0.000 A 
ATOM     29  C   UNL     1       3.612   3.983  16.874  0.00  0.00    +0.000 A 
ATOM     30  C   UNL     1       2.779   4.029  17.999  0.00  0.00    +0.000 A 
ATOM     31  C   UNL     1       3.234   4.504  19.240  0.00  0.00    +0.000 A 
ATOM     32  C   UNL     1       4.565   4.937  19.295  0.00  0.00    +0.000 A 
ATOM     33  C   UNL     1       5.403   4.901  18.178  0.00  0.00    +0.000 A 
BRANCH  28  35
ATOM     34  C   UNL     1       7.052   4.714  15.929  0.00  0.00    +0.000 C 
ATOM     35  O   UNL     1       5.669   4.363  15.811  0.00  0.00    +0.000 OA
ENDBRANCH  28  35
ENDBRANCH  26  31
ENDBRANCH  24  26
ENDBRANCH   1  25
TORSDOF 5
ENDMDL
MODEL 7
REMARK VINA RESULT:      -8.7      1.488      2.136
REMARK  Name = 
REMARK  8 active torsions:
REMARK  status: ('A' for Active; 'I' for Inactive)
REMARK    1  A    between atoms: C_1  and  O_2
REMARK    2  A    between atoms: O_2  and  C_3
REMARK    3  A    between atoms: C_6  and  C_7
REMARK    4  A    between atoms: C_7  and  C_9
REMARK    5  A    between atoms: C_10  and  C_11
REMARK    6  A    between atoms: C_14  and  N_15
REMARK    7  A    between atoms: C_19  and  C_20
REMARK    8  A    between atoms: N_21  and  C_22
REMARK                            x       y       z     vdW  Elec       q    Type
REMARK                         _______ _______ _______ _____ _____    ______ ____
ROOT
ATOM      1  C   UNL     1       2.698   7.673  18.493  0.00  0.00    +0.000 A 
ATOM      2  C   UNL     1       2.303   8.757  17.666  0.00  0.00    +0.000 A 
ATOM      3  C   UNL     1       1.365   9.784  18.069  0.00  0.00    +0.000 A 
ATOM      4  C   UNL     1       0.762   9.719  19.319  0.00  0.00    +0.000 A 
ATOM      5  C   UNL     1       1.169   8.617  20.138  0.00  0.00    +0.000 A 
ATOM      6  C   UNL     1       2.083   7.611  19.737  0.00  0.00    +0.000 A 
ENDROOT
BRANCH   4   7
ATOM      7  N   UNL     1      -0.328  10.570  19.830  0.00  0.00    +0.000 N 
ATOM      8  N   UNL     1      -1.636  10.962  19.392  0.00  0.00    +0.000 NA
ATOM      9  C   UNL     1      -1.940  11.995  20.273  0.00  0.00    +0.000 A 
ATOM     10  C   UNL     1      -0.743  12.273  21.025  0.00  0.00    +0.000 A 
ATOM     11  C   UNL     1      -0.244  11.007  21.132  0.00  0.00    +0.000 A 
ATOM     12  C   UNL     1      -0.024  10.030  22.229  0.00  0.00    +0.000 C 
ATOM     13  N   UNL     1      -0.669  13.345  21.926  0.00  0.00    +0.000 N 
ATOM     14  C   UNL     1      -0.777  14.707  21.251  0.00  0.00    +0.000 C 
ATOM     15  S   UNL     1      -1.864  13.141  23.152  0.00  0.00    +0.000 S 
ATOM     16  O   UNL     1      -1.889  11.806  23.709  0.00  0.00    +0.000 OA
ATOM     17  O   UNL     1      -1.810  14.306  24.006  0.00  0.00    +0.000 OA
ATOM     18  C   UNL     1      -3.289  13.244  22.102  0.00  0.00    +0.000 A 
ATOM     19  C   UNL     1      -4.299  14.051  22.661  0.00  0.00    +0.000 A 
ATOM     20  C   UNL     1      -5.342  14.450  21.869  0.00  0.00    +0.000 A 
ATOM     21  C   UNL     1      -5.358  14.012  20.541  0.00  0.00    +0.000 A 
ATOM     22  C   UNL     1      -4.335  13.161  19.979  0.00  0.00    +0.000 A 
ATOM     23  C   UNL     1      -3.239  12.737  20.744  0.00  0.00    +0.000 A 
ENDBRANCH   4   7
BRANCH   1  25
ATOM     24  C   UNL     1       4.077   5.613  18.921  0.00  0.00    +0.000 C 
ATOM     25  C   UNL     1       3.692   6.617  18.105  0.00  0.00    +0.000 C 
BRANCH  24  26
ATOM     26  C   UNL     1       5.036   4.494  18.553  0.00  0.00    +0.000 C 
ATOM     27  O   UNL     1       5.355   3.645  19.356  0.00  0.00    +0.000 OA
BRANCH  26  31
ATOM     28  C   UNL     1       6.623   4.439  14.484  0.00  0.00    +0.000 A 
ATOM     29  C   UNL     1       5.341   3.959  14.753  0.00  0.00    +0.000 A 
ATOM     30  C   UNL     1       4.840   3.991  16.060  0.00  0.00    +0.000 A 
ATOM     31  C   UNL     1       5.603   4.474  17.137  0.00  0.00    +0.000 A 
ATOM     32  C   UNL     1       6.893   4.930  16.835  0.00  0.00    +0.000 A 
ATOM     33  C   UNL     1       7.401   4.908  15.534  0.00  0.00    +0.000 A 
BRANCH  28  35
ATOM     34  C   UNL     1       6.329   3.454  12.341  0.00  0.00    +0.000 C 
ATOM     35  O   UNL     1       7.033   4.375  13.180  0.00  0.00    +0.000 OA
ENDBRANCH  28  35
ENDBRANCH  26  31
ENDBRANCH  24  26
ENDBRANCH   1  25
TORSDOF 5
ENDMDL
MODEL 8
REMARK VINA RESULT:      -8.6      1.547      2.432
REMARK  Name = 
REMARK  8 active torsions:
REMARK  status: ('A' for Active; 'I' for Inactive)
REMARK    1  A    between atoms: C_1  and  O_2
REMARK    2  A    between atoms: O_2  and  C_3
REMARK    3  A    between atoms: C_6  and  C_7
REMARK    4  A    between atoms: C_7  and  C_9
REMARK    5  A    between atoms: C_10  and  C_11
REMARK    6  A    between atoms: C_14  and  N_15
REMARK    7  A    between atoms: C_19  and  C_20
REMARK    8  A    between atoms: N_21  and  C_22
REMARK                            x       y       z     vdW  Elec       q    Type
REMARK                         _______ _______ _______ _____ _____    ______ ____
ROOT
ATOM      1  C   UNL     1       2.034   7.708  19.552  0.00  0.00    +0.000 A 
ATOM      2  C   UNL     1       1.476   7.707  20.858  0.00  0.00    +0.000 A 
ATOM      3  C   UNL     1       0.719   8.807  21.417  0.00  0.00    +0.000 A 
ATOM      4  C   UNL     1       0.538   9.969  20.676  0.00  0.00    +0.000 A 
ATOM      5  C   UNL     1       1.112   9.955  19.364  0.00  0.00    +0.000 A 
ATOM      6  C   UNL     1       1.857   8.877  18.824  0.00  0.00    +0.000 A 
ENDROOT
BRANCH   4   7
ATOM      7  N   UNL     1      -0.053  11.238  21.138  0.00  0.00    +0.000 N 
ATOM      8  N   UNL     1       0.424  12.461  21.717  0.00  0.00    +0.000 NA
ATOM      9  C   UNL     1      -0.758  13.069  22.126  0.00  0.00    +0.000 A 
ATOM     10  C   UNL     1      -1.812  12.104  21.950  0.00  0.00    +0.000 A 
ATOM     11  C   UNL     1      -1.367  11.489  20.815  0.00  0.00    +0.000 A 
ATOM     12  C   UNL     1      -1.814  11.392  19.401  0.00  0.00    +0.000 C 
ATOM     13  N   UNL     1      -3.123  12.356  22.377  0.00  0.00    +0.000 N 
ATOM     14  C   UNL     1      -3.248  12.482  23.891  0.00  0.00    +0.000 C 
ATOM     15  S   UNL     1      -3.728  13.752  21.566  0.00  0.00    +0.000 S 
ATOM     16  O   UNL     1      -3.488  13.732  20.139  0.00  0.00    +0.000 OA
ATOM     17  O   UNL     1      -5.045  14.024  22.097  0.00  0.00    +0.000 OA
ATOM     18  C   UNL     1      -2.571  14.920  22.227  0.00  0.00    +0.000 A 
ATOM     19  C   UNL     1      -3.198  16.117  22.624  0.00  0.00    +0.000 A 
ATOM     20  C   UNL     1      -2.499  17.007  23.396  0.00  0.00    +0.000 A 
ATOM     21  C   UNL     1      -1.181  16.684  23.731  0.00  0.00    +0.000 A 
ATOM     22  C   UNL     1      -0.530  15.469  23.297  0.00  0.00    +0.000 A 
ATOM     23  C   UNL     1      -1.208  14.519  22.519  0.00  0.00    +0.000 A 
ENDBRANCH   4   7
BRANCH   1  25
ATOM     24  C   UNL     1       3.156   5.458  19.628  0.00  0.00    +0.000 C 
ATOM     25  C   UNL     1       2.796   6.565  18.945  0.00  0.00    +0.000 C 
BRANCH  24  26
ATOM     26  C   UNL     1       3.878   4.256  19.043  0.00  0.00    +0.000 C 
ATOM     27  O   UNL     1       3.648   3.131  19.427  0.00  0.00    +0.000 OA
BRANCH  26  31
ATOM     28  C   UNL     1       6.835   4.985  15.912  0.00  0.00    +0.000 A 
ATOM     29  C   UNL     1       5.506   4.718  15.585  0.00  0.00    +0.000 A 
ATOM     30  C   UNL     1       4.565   4.496  16.598  0.00  0.00    +0.000 A 
ATOM     31  C   UNL     1       4.921   4.506  17.957  0.00  0.00    +0.000 A 
ATOM     32  C   UNL     1       6.267   4.758  18.250  0.00  0.00    +0.000 A 
ATOM     33  C   UNL     1       7.213   4.987  17.248  0.00  0.00    +0.000 A 
BRANCH  28  35
ATOM     34  C   UNL     1       7.205   4.810  13.570  0.00  0.00    +0.000 C 
ATOM     35  O   UNL     1       7.687   5.195  14.862  0.00  0.00    +0.000 OA
ENDBRANCH  28  35
ENDBRANCH  26  31
ENDBRANCH  24  26
ENDBRANCH   1  25
TORSDOF 5
ENDMDL
MODEL 9
REMARK VINA RESULT:      -8.6      1.526      2.259
REMARK  Name = 
REMARK  8 active torsions:
REMARK  status: ('A' for Active; 'I' for Inactive)
REMARK    1  A    between atoms: C_1  and  O_2
REMARK    2  A    between atoms: O_2  and  C_3
REMARK    3  A    between atoms: C_6  and  C_7
REMARK    4  A    between atoms: C_7  and  C_9
REMARK    5  A    between atoms: C_10  and  C_11
REMARK    6  A    between atoms: C_14  and  N_15
REMARK    7  A    between atoms: C_19  and  C_20
REMARK    8  A    between atoms: N_21  and  C_22
REMARK                            x       y       z     vdW  Elec       q    Type
REMARK                         _______ _______ _______ _____ _____    ______ ____
ROOT
ATOM      1  C   UNL     1       2.249   7.699  18.930  0.00  0.00    +0.000 A 
ATOM      2  C   UNL     1       1.830   7.684  20.286  0.00  0.00    +0.000 A 
ATOM      3  C   UNL     1       1.095   8.759  20.920  0.00  0.00    +0.000 A 
ATOM      4  C   UNL     1       0.796   9.910  20.201  0.00  0.00    +0.000 A 
ATOM      5  C   UNL     1       1.230   9.910  18.836  0.00  0.00    +0.000 A 
ATOM      6  C   UNL     1       1.954   8.857  18.223  0.00  0.00    +0.000 A 
ENDROOT
BRANCH   4   7
ATOM      7  N   UNL     1       0.210  11.159  20.720  0.00  0.00    +0.000 N 
ATOM      8  N   UNL     1       0.699  12.391  21.269  0.00  0.00    +0.000 NA
ATOM      9  C   UNL     1      -0.461  12.964  21.779  0.00  0.00    +0.000 A 
ATOM     10  C   UNL     1      -1.500  11.970  21.680  0.00  0.00    +0.000 A 
ATOM     11  C   UNL     1      -1.133  11.375  20.507  0.00  0.00    +0.000 A 
ATOM     12  C   UNL     1      -1.691  11.275  19.134  0.00  0.00    +0.000 C 
ATOM     13  N   UNL     1      -2.778  12.182  22.216  0.00  0.00    +0.000 N 
ATOM     14  C   UNL     1      -2.783  12.295  23.735  0.00  0.00    +0.000 C 
ATOM     15  S   UNL     1      -3.486  13.566  21.468  0.00  0.00    +0.000 S 
ATOM     16  O   UNL     1      -3.362  13.562  20.027  0.00  0.00    +0.000 OA
ATOM     17  O   UNL     1      -4.761  13.798  22.107  0.00  0.00    +0.000 OA
ATOM     18  C   UNL     1      -2.311  14.762  22.043  0.00  0.00    +0.000 A 
ATOM     19  C   UNL     1      -2.936  15.939  22.500  0.00  0.00    +0.000 A 
ATOM     20  C   UNL     1      -2.201  16.842  23.220  0.00  0.00    +0.000 A 
ATOM     21  C   UNL     1      -0.851  16.555  23.444  0.00  0.00    +0.000 A 
ATOM     22  C   UNL     1      -0.205  15.362  22.948  0.00  0.00    +0.000 A 
ATOM     23  C   UNL     1      -0.918  14.398  22.219  0.00  0.00    +0.000 A 
ENDBRANCH   4   7
BRANCH   1  25
ATOM     24  C   UNL     1       3.320   5.425  18.856  0.00  0.00    +0.000 C 
ATOM     25  C   UNL     1       2.985   6.582  18.248  0.00  0.00    +0.000 C 
BRANCH  24  26
ATOM     26  C   UNL     1       4.015   4.248  18.193  0.00  0.00    +0.000 C 
ATOM     27  O   UNL     1       3.776   3.106  18.519  0.00  0.00    +0.000 OA
BRANCH  26  31
ATOM     28  C   UNL     1       6.982   5.091  15.100  0.00  0.00    +0.000 A 
ATOM     29  C   UNL     1       7.251   5.375  16.439  0.00  0.00    +0.000 A 
ATOM     30  C   UNL     1       6.295   5.091  17.422  0.00  0.00    +0.000 A 
ATOM     31  C   UNL     1       5.041   4.544  17.103  0.00  0.00    +0.000 A 
ATOM     32  C   UNL     1       4.797   4.288  15.748  0.00  0.00    +0.000 A 
ATOM     33  C   UNL     1       5.744   4.562  14.759  0.00  0.00    +0.000 A 
BRANCH  28  35
ATOM     34  C   UNL     1       7.702   5.083  12.835  0.00  0.00    +0.000 C 
ATOM     35  O   UNL     1       7.972   5.394  14.205  0.00  0.00    +0.000 OA
ENDBRANCH  28  35
ENDBRANCH  26  31
ENDBRANCH  24  26
ENDBRANCH   1  25
TORSDOF 5
ENDMDL
