MODEL 1
REMARK VINA RESULT:      -8.4      0.000      0.000
REMARK  Name = 
REMARK  3 active torsions:
REMARK  status: ('A' for Active; 'I' for Inactive)
REMARK    1  A    between atoms: N_3  and  C_4
REMARK    2  A    between atoms: N_10  and  C_11
REMARK    3  A    between atoms: C_21  and  C_22
REMARK                            x       y       z     vdW  Elec       q    Type
REMARK                         _______ _______ _______ _____ _____    ______ ____
ROOT
ATOM      1  C   UNL     1       1.547   8.484  20.001  0.00  0.00    +0.000 A 
ATOM      2  C   UNL     1       1.844   8.879  18.675  0.00  0.00    +0.000 A 
ATOM      3  C   UNL     1       2.708   8.133  17.855  0.00  0.00    +0.000 A 
ATOM      4  C   UNL     1       3.244   6.972  18.370  0.00  0.00    +0.000 A 
ATOM      5  C   UNL     1       2.810   6.512  19.620  0.00  0.00    +0.000 A 
ATOM      6  C   UNL     1       1.957   7.226  20.440  0.00  0.00    +0.000 A 
ATOM      7  N   UNL     1       3.425   5.306  19.939  0.00  0.00    +0.000 N 
ATOM      8  C   UNL     1       4.413   4.992  19.024  0.00  0.00    +0.000 C 
ATOM      9  O   UNL     1       5.258   4.126  19.118  0.00  0.00    +0.000 OA
ATOM     10  C   UNL     1       4.252   6.002  17.916  0.00  0.00    +0.000 C 
ATOM     11  C   UNL     1       4.972   6.040  16.778  0.00  0.00    +0.000 C 
ATOM     12  H   UNL     1       3.245   4.745  20.754  0.00  0.00    +0.000 HD
ENDROOT
BRANCH  11  13
ATOM     13  C   UNL     1       5.566   5.340  15.597  0.00  0.00    +0.000 A 
ATOM     14  C   UNL     1       4.878   4.202  15.146  0.00  0.00    +0.000 A 
ATOM     15  C   UNL     1       5.306   3.510  14.010  0.00  0.00    +0.000 A 
ATOM     16  C   UNL     1       6.434   3.942  13.309  0.00  0.00    +0.000 A 
ATOM     17 CL   UNL     1       6.908   3.033  11.917  0.00  0.00    +0.000 Cl
ATOM     18  C   UNL     1       7.132   5.075  13.749  0.00  0.00    +0.000 A 
ATOM     19 CL   UNL     1       8.526   5.671  12.918  0.00  0.00    +0.000 Cl
ATOM     20  C   UNL     1       6.699   5.771  14.891  0.00  0.00    +0.000 A 
ENDBRANCH  11  13
BRANCH   1  24
ATOM     21  O   UNL     1      -0.956   9.849  19.794  0.00  0.00    +0.000 OA
ATOM     22  C   UNL     1      -0.227  10.034  20.765  0.00  0.00    +0.000 C 
ATOM     23  N   UNL     1      -0.457  10.997  21.737  0.00  0.00    +0.000 N 
ATOM     24  N   UNL     1       0.952   9.340  20.962  0.00  0.00    +0.000 N 
ATOM     25  H   UNL     1       0.318  11.217  22.334  0.00  0.00    +0.000 HD
ATOM     26  H   UNL     1       1.549   9.673  21.703  0.00  0.00    +0.000 HD
BRANCH  23  27
ATOM     27  C   UNL     1      -1.565  11.880  21.770  0.00  0.00    +0.000 A 
ATOM     28  C   UNL     1      -1.929  12.702  20.700  0.00  0.00    +0.000 A 
ATOM     29  C   UNL     1      -3.018  13.574  20.791  0.00  0.00    +0.000 A 
ATOM     30  C   UNL     1      -3.773  13.625  21.961  0.00  0.00    +0.000 A 
ATOM     31  C   UNL     1      -3.439  12.797  23.033  0.00  0.00    +0.000 A 
ATOM     32  C   UNL     1      -2.345  11.928  22.935  0.00  0.00    +0.000 A 
ENDBRANCH  23  27
ENDBRANCH   1  24
TORSDOF 3
ENDMDL
MODEL 2
REMARK VINA RESULT:      -8.4      2.935      4.673
REMARK  Name = 
REMARK  3 active torsions:
REMARK  status: ('A' for Active; 'I' for Inactive)
REMARK    1  A    between atoms: N_3  and  C_4
REMARK    2  A    between atoms: N_10  and  C_11
REMARK    3  A    between atoms: C_21  and  C_22
REMARK                            x       y       z     vdW  Elec       q    Type
REMARK                         _______ _______ _______ _____ _____    ______ ____
ROOT
ATOM      1  C   UNL     1      -0.660  10.656  22.567  0.00  0.00    +0.000 A 
ATOM      2  C   UNL     1      -0.436   9.261  22.648  0.00  0.00    +0.000 A 
ATOM      3  C   UNL     1       0.268   8.565  21.650  0.00  0.00    +0.000 A 
ATOM      4  C   UNL     1       0.769   9.289  20.589  0.00  0.00    +0.000 A 
ATOM      5  C   UNL     1       0.680  10.686  20.610  0.00  0.00    +0.000 A 
ATOM      6  C   UNL     1      -0.001  11.392  21.584  0.00  0.00    +0.000 A 
ATOM      7  N   UNL     1       1.287  11.233  19.483  0.00  0.00    +0.000 N 
ATOM      8  C   UNL     1       1.645  10.248  18.583  0.00  0.00    +0.000 C 
ATOM      9  O   UNL     1       2.008  10.395  17.434  0.00  0.00    +0.000 OA
ATOM     10  C   UNL     1       1.426   8.950  19.318  0.00  0.00    +0.000 C 
ATOM     11  C   UNL     1       1.702   7.721  18.840  0.00  0.00    +0.000 C 
ATOM     12  H   UNL     1       1.403  12.213  19.289  0.00  0.00    +0.000 HD
ENDROOT
BRANCH  11  13
ATOM     13  C   UNL     1       2.636   6.780  18.146  0.00  0.00    +0.000 A 
ATOM     14  C   UNL     1       3.763   7.363  17.547  0.00  0.00    +0.000 A 
ATOM     15  C   UNL     1       4.736   6.572  16.929  0.00  0.00    +0.000 A 
ATOM     16  C   UNL     1       4.593   5.184  16.896  0.00  0.00    +0.000 A 
ATOM     17 CL   UNL     1       5.832   4.270  16.111  0.00  0.00    +0.000 Cl
ATOM     18  C   UNL     1       3.472   4.588  17.489  0.00  0.00    +0.000 A 
ATOM     19 CL   UNL     1       3.243   2.874  17.497  0.00  0.00    +0.000 Cl
ATOM     20  C   UNL     1       2.495   5.385  18.111  0.00  0.00    +0.000 A 
ENDBRANCH  11  13
BRANCH   1  24
ATOM     21  O   UNL     1      -2.843  12.257  21.650  0.00  0.00    +0.000 OA
ATOM     22  C   UNL     1      -2.599  12.170  22.851  0.00  0.00    +0.000 C 
ATOM     23  N   UNL     1      -3.227  12.929  23.828  0.00  0.00    +0.000 N 
ATOM     24  N   UNL     1      -1.613  11.346  23.359  0.00  0.00    +0.000 N 
ATOM     25  H   UNL     1      -2.782  12.950  24.727  0.00  0.00    +0.000 HD
ATOM     26  H   UNL     1      -1.391  11.463  24.335  0.00  0.00    +0.000 HD
BRANCH  23  27
ATOM     27  C   UNL     1      -4.249  13.884  23.595  0.00  0.00    +0.000 A 
ATOM     28  C   UNL     1      -3.997  15.220  23.276  0.00  0.00    +0.000 A 
ATOM     29  C   UNL     1      -5.041  16.129  23.078  0.00  0.00    +0.000 A 
ATOM     30  C   UNL     1      -6.363  15.705  23.187  0.00  0.00    +0.000 A 
ATOM     31  C   UNL     1      -6.636  14.370  23.484  0.00  0.00    +0.000 A 
ATOM     32  C   UNL     1      -5.585  13.466  23.683  0.00  0.00    +0.000 A 
ENDBRANCH  23  27
ENDBRANCH   1  24
TORSDOF 3
ENDMDL
MODEL 3
REMARK VINA RESULT:      -8.3      4.814     10.968
REMARK  Name = 
REMARK  3 active torsions:
REMARK  status: ('A' for Active; 'I' for Inactive)
REMARK    1  A    between atoms: N_3  and  C_4
REMARK    2  A    between atoms: N_10  and  C_11
REMARK    3  A    between atoms: C_21  and  C_22
REMARK                            x       y       z     vdW  Elec       q    Type
REMARK                         _______ _______ _______ _____ _____    ______ ____
ROOT
ATOM      1  C   UNL     1       3.499   6.741  18.078  0.00  0.00    +0.000 A 
ATOM      2  C   UNL     1       3.152   7.963  17.456  0.00  0.00    +0.000 A 
ATOM      3  C   UNL     1       2.222   8.848  18.027  0.00  0.00    +0.000 A 
ATOM      4  C   UNL     1       1.668   8.505  19.243  0.00  0.00    +0.000 A 
ATOM      5  C   UNL     1       2.146   7.376  19.920  0.00  0.00    +0.000 A 
ATOM      6  C   UNL     1       3.065   6.497  19.380  0.00  0.00    +0.000 A 
ATOM      7  N   UNL     1       1.503   7.230  21.145  0.00  0.00    +0.000 N 
ATOM      8  C   UNL     1       0.460   8.128  21.271  0.00  0.00    +0.000 C 
ATOM      9  O   UNL     1      -0.411   8.134  22.117  0.00  0.00    +0.000 OA
ATOM     10  C   UNL     1       0.604   9.059  20.094  0.00  0.00    +0.000 C 
ATOM     11  C   UNL     1      -0.170  10.133  19.844  0.00  0.00    +0.000 C 
ATOM     12  H   UNL     1       1.703   6.531  21.840  0.00  0.00    +0.000 HD
ENDROOT
BRANCH  11  13
ATOM     13  C   UNL     1      -0.848  11.380  20.316  0.00  0.00    +0.000 A 
ATOM     14  C   UNL     1      -1.801  11.930  19.444  0.00  0.00    +0.000 A 
ATOM     15  C   UNL     1      -2.544  13.056  19.811  0.00  0.00    +0.000 A 
ATOM     16  C   UNL     1      -2.339  13.654  21.056  0.00  0.00    +0.000 A 
ATOM     17 CL   UNL     1      -3.289  15.046  21.440  0.00  0.00    +0.000 Cl
ATOM     18  C   UNL     1      -1.390  13.118  21.936  0.00  0.00    +0.000 A 
ATOM     19 CL   UNL     1      -1.100  13.801  23.497  0.00  0.00    +0.000 Cl
ATOM     20  C   UNL     1      -0.645  11.984  21.566  0.00  0.00    +0.000 A 
ENDBRANCH  11  13
BRANCH   1  24
ATOM     21  O   UNL     1       5.110   6.921  15.723  0.00  0.00    +0.000 OA
ATOM     22  C   UNL     1       4.872   5.828  16.230  0.00  0.00    +0.000 C 
ATOM     23  N   UNL     1       5.210   4.613  15.651  0.00  0.00    +0.000 N 
ATOM     24  N   UNL     1       4.173   5.684  17.413  0.00  0.00    +0.000 N 
ATOM     25  H   UNL     1       4.756   3.801  16.027  0.00  0.00    +0.000 HD
ATOM     26  H   UNL     1       3.900   4.747  17.662  0.00  0.00    +0.000 HD
BRANCH  23  27
ATOM     27  C   UNL     1       5.896   4.453  14.421  0.00  0.00    +0.000 A 
ATOM     28  C   UNL     1       7.138   5.033  14.149  0.00  0.00    +0.000 A 
ATOM     29  C   UNL     1       7.763   4.865  12.910  0.00  0.00    +0.000 A 
ATOM     30  C   UNL     1       7.154   4.096  11.922  0.00  0.00    +0.000 A 
ATOM     31  C   UNL     1       5.924   3.491  12.180  0.00  0.00    +0.000 A 
ATOM     32  C   UNL     1       5.302   3.666  13.423  0.00  0.00    +0.000 A 
ENDBRANCH  23  27
ENDBRANCH   1  24
TORSDOF 3
ENDMDL
MODEL 4
REMARK VINA RESULT:      -8.3      6.107     12.243
REMARK  Name = 
REMARK  3 active torsions:
REMARK  status: ('A' for Active; 'I' for Inactive)
REMARK    1  A    between atoms: N_3  and  C_4
REMARK    2  A    between atoms: N_10  and  C_11
REMARK    3  A    between atoms: C_21  and  C_22
REMARK                            x       y       z     vdW  Elec       q    Type
REMARK                         _______ _______ _______ _____ _____    ______ ____
ROOT
ATOM      1  C   UNL     1       0.654   9.051  21.662  0.00  0.00    +0.000 A 
ATOM      2  C   UNL     1      -0.278   9.114  22.724  0.00  0.00    +0.000 A 
ATOM      3  C   UNL     1      -0.882  10.324  23.108  0.00  0.00    +0.000 A 
ATOM      4  C   UNL     1      -0.561  11.460  22.396  0.00  0.00    +0.000 A 
ATOM      5  C   UNL     1       0.234  11.349  21.249  0.00  0.00    +0.000 A 
ATOM      6  C   UNL     1       0.832  10.169  20.849  0.00  0.00    +0.000 A 
ATOM      7  N   UNL     1       0.399  12.591  20.645  0.00  0.00    +0.000 N 
ATOM      8  C   UNL     1      -0.114  13.602  21.435  0.00  0.00    +0.000 C 
ATOM      9  O   UNL     1       0.042  14.798  21.296  0.00  0.00    +0.000 OA
ATOM     10  C   UNL     1      -0.854  12.894  22.541  0.00  0.00    +0.000 C 
ATOM     11  C   UNL     1      -1.564  13.492  23.518  0.00  0.00    +0.000 C 
ATOM     12  H   UNL     1       0.882  12.771  19.781  0.00  0.00    +0.000 HD
ENDROOT
BRANCH  11  13
ATOM     13  C   UNL     1      -2.574  14.508  23.950  0.00  0.00    +0.000 A 
ATOM     14  C   UNL     1      -2.105  15.513  24.810  0.00  0.00    +0.000 A 
ATOM     15  C   UNL     1      -2.945  16.551  25.224  0.00  0.00    +0.000 A 
ATOM     16  C   UNL     1      -4.271  16.596  24.787  0.00  0.00    +0.000 A 
ATOM     17 CL   UNL     1      -5.253  17.905  25.343  0.00  0.00    +0.000 Cl
ATOM     18  C   UNL     1      -4.753  15.598  23.929  0.00  0.00    +0.000 A 
ATOM     19 CL   UNL     1      -6.378  15.604  23.340  0.00  0.00    +0.000 Cl
ATOM     20  C   UNL     1      -3.906  14.555  23.513  0.00  0.00    +0.000 A 
ENDBRANCH  11  13
BRANCH   1  24
ATOM     21  O   UNL     1       1.673   8.126  19.157  0.00  0.00    +0.000 OA
ATOM     22  C   UNL     1       1.909   7.505  20.190  0.00  0.00    +0.000 C 
ATOM     23  N   UNL     1       2.530   6.264  20.225  0.00  0.00    +0.000 N 
ATOM     24  N   UNL     1       1.517   7.947  21.439  0.00  0.00    +0.000 N 
ATOM     25  H   UNL     1       2.448   5.753  21.085  0.00  0.00    +0.000 HD
ATOM     26  H   UNL     1       1.623   7.295  22.199  0.00  0.00    +0.000 HD
BRANCH  23  27
ATOM     27  C   UNL     1       3.003   5.551  19.096  0.00  0.00    +0.000 A 
ATOM     28  C   UNL     1       4.223   5.819  18.470  0.00  0.00    +0.000 A 
ATOM     29  C   UNL     1       4.635   5.102  17.342  0.00  0.00    +0.000 A 
ATOM     30  C   UNL     1       3.830   4.089  16.830  0.00  0.00    +0.000 A 
ATOM     31  C   UNL     1       2.618   3.790  17.453  0.00  0.00    +0.000 A 
ATOM     32  C   UNL     1       2.211   4.514  18.580  0.00  0.00    +0.000 A 
ENDBRANCH  23  27
ENDBRANCH   1  24
TORSDOF 3
ENDMDL
MODEL 5
REMARK VINA RESULT:      -8.2      3.397      5.486
REMARK  Name = 
REMARK  3 active torsions:
REMARK  status: ('A' for Active; 'I' for Inactive)
REMARK    1  A    between atoms: N_3  and  C_4
REMARK    2  A    between atoms: N_10  and  C_11
REMARK    3  A    between atoms: C_21  and  C_22
REMARK                            x       y       z     vdW  Elec       q    Type
REMARK                         _______ _______ _______ _____ _____    ______ ____
ROOT
ATOM      1  C   UNL     1      -1.096  11.783  22.922  0.00  0.00    +0.000 A 
ATOM      2  C   UNL     1      -0.905  10.401  23.159  0.00  0.00    +0.000 A 
ATOM      3  C   UNL     1      -0.165   9.594  22.277  0.00  0.00    +0.000 A 
ATOM      4  C   UNL     1       0.404  10.196  21.175  0.00  0.00    +0.000 A 
ATOM      5  C   UNL     1       0.342  11.589  21.047  0.00  0.00    +0.000 A 
ATOM      6  C   UNL     1      -0.373  12.402  21.904  0.00  0.00    +0.000 A 
ATOM      7  N   UNL     1       1.017  12.007  19.903  0.00  0.00    +0.000 N 
ATOM      8  C   UNL     1       1.401  10.928  19.130  0.00  0.00    +0.000 C 
ATOM      9  O   UNL     1       1.826  10.949  17.992  0.00  0.00    +0.000 OA
ATOM     10  C   UNL     1       1.119   9.717  19.982  0.00  0.00    +0.000 C 
ATOM     11  C   UNL     1       1.395   8.441  19.649  0.00  0.00    +0.000 C 
ATOM     12  H   UNL     1       1.163  12.959  19.615  0.00  0.00    +0.000 HD
ENDROOT
BRANCH  11  13
ATOM     13  C   UNL     1       2.344   7.419  19.107  0.00  0.00    +0.000 A 
ATOM     14  C   UNL     1       2.366   6.185  19.777  0.00  0.00    +0.000 A 
ATOM     15  C   UNL     1       3.166   5.135  19.317  0.00  0.00    +0.000 A 
ATOM     16  C   UNL     1       3.961   5.305  18.181  0.00  0.00    +0.000 A 
ATOM     17 CL   UNL     1       4.927   3.965  17.673  0.00  0.00    +0.000 Cl
ATOM     18  C   UNL     1       3.950   6.532  17.504  0.00  0.00    +0.000 A 
ATOM     19 CL   UNL     1       4.898   6.802  16.084  0.00  0.00    +0.000 Cl
ATOM     20  C   UNL     1       3.143   7.587  17.967  0.00  0.00    +0.000 A 
ENDBRANCH  11  13
BRANCH   1  24
ATOM     21  O   UNL     1      -3.827  12.155  22.165  0.00  0.00    +0.000 OA
ATOM     22  C   UNL     1      -3.360  12.767  23.122  0.00  0.00    +0.000 C 
ATOM     23  N   UNL     1      -4.031  13.773  23.802  0.00  0.00    +0.000 N 
ATOM     24  N   UNL     1      -2.075  12.566  23.587  0.00  0.00    +0.000 N 
ATOM     25  H   UNL     1      -3.470  14.357  24.394  0.00  0.00    +0.000 HD
ATOM     26  H   UNL     1      -1.739  13.222  24.274  0.00  0.00    +0.000 HD
BRANCH  23  27
ATOM     27  C   UNL     1      -5.346  14.220  23.520  0.00  0.00    +0.000 A 
ATOM     28  C   UNL     1      -6.496  13.554  23.952  0.00  0.00    +0.000 A 
ATOM     29  C   UNL     1      -7.773  14.022  23.626  0.00  0.00    +0.000 A 
ATOM     30  C   UNL     1      -7.916  15.181  22.868  0.00  0.00    +0.000 A 
ATOM     31  C   UNL     1      -6.781  15.872  22.445  0.00  0.00    +0.000 A 
ATOM     32  C   UNL     1      -5.506  15.396  22.772  0.00  0.00    +0.000 A 
ENDBRANCH  23  27
ENDBRANCH   1  24
TORSDOF 3
ENDMDL
MODEL 6
REMARK VINA RESULT:      -8.2      1.104      1.767
REMARK  Name = 
REMARK  3 active torsions:
REMARK  status: ('A' for Active; 'I' for Inactive)
REMARK    1  A    between atoms: N_3  and  C_4
REMARK    2  A    between atoms: N_10  and  C_11
REMARK    3  A    between atoms: C_21  and  C_22
REMARK                            x       y       z     vdW  Elec       q    Type
REMARK                         _______ _______ _______ _____ _____    ______ ____
ROOT
ATOM      1  C   UNL     1       1.784   7.818  20.091  0.00  0.00    +0.000 A 
ATOM      2  C   UNL     1       2.192   8.411  18.873  0.00  0.00    +0.000 A 
ATOM      3  C   UNL     1       2.968   7.712  17.932  0.00  0.00    +0.000 A 
ATOM      4  C   UNL     1       3.302   6.405  18.215  0.00  0.00    +0.000 A 
ATOM      5  C   UNL     1       2.753   5.786  19.344  0.00  0.00    +0.000 A 
ATOM      6  C   UNL     1       1.983   6.451  20.279  0.00  0.00    +0.000 A 
ATOM      7  N   UNL     1       3.167   4.460  19.426  0.00  0.00    +0.000 N 
ATOM      8  C   UNL     1       4.134   4.179  18.480  0.00  0.00    +0.000 C 
ATOM      9  O   UNL     1       4.835   3.191  18.411  0.00  0.00    +0.000 OA
ATOM     10  C   UNL     1       4.172   5.396  17.590  0.00  0.00    +0.000 C 
ATOM     11  C   UNL     1       4.936   5.541  16.490  0.00  0.00    +0.000 C 
ATOM     12  H   UNL     1       2.870   3.787  20.113  0.00  0.00    +0.000 HD
ENDROOT
BRANCH  11  13
ATOM     13  C   UNL     1       5.468   4.999  15.201  0.00  0.00    +0.000 A 
ATOM     14  C   UNL     1       6.864   5.023  15.054  0.00  0.00    +0.000 A 
ATOM     15  C   UNL     1       7.474   4.481  13.919  0.00  0.00    +0.000 A 
ATOM     16  C   UNL     1       6.695   3.911  12.909  0.00  0.00    +0.000 A 
ATOM     17 CL   UNL     1       7.518   3.266  11.533  0.00  0.00    +0.000 Cl
ATOM     18  C   UNL     1       5.301   3.882  13.042  0.00  0.00    +0.000 A 
ATOM     19 CL   UNL     1       4.281   3.178  11.837  0.00  0.00    +0.000 Cl
ATOM     20  C   UNL     1       4.689   4.426  14.185  0.00  0.00    +0.000 A 
ENDBRANCH  11  13
BRANCH   1  24
ATOM     21  O   UNL     1      -0.344   9.726  20.082  0.00  0.00    +0.000 OA
ATOM     22  C   UNL     1       0.303   9.523  21.107  0.00  0.00    +0.000 C 
ATOM     23  N   UNL     1       0.179  10.277  22.265  0.00  0.00    +0.000 N 
ATOM     24  N   UNL     1       1.285   8.555  21.196  0.00  0.00    +0.000 N 
ATOM     25  H   UNL     1       0.917  10.179  22.938  0.00  0.00    +0.000 HD
ATOM     26  H   UNL     1       1.857   8.572  22.024  0.00  0.00    +0.000 HD
BRANCH  23  27
ATOM     27  C   UNL     1      -0.718  11.358  22.449  0.00  0.00    +0.000 A 
ATOM     28  C   UNL     1      -1.908  11.258  23.175  0.00  0.00    +0.000 A 
ATOM     29  C   UNL     1      -2.773  12.349  23.307  0.00  0.00    +0.000 A 
ATOM     30  C   UNL     1      -2.448  13.569  22.720  0.00  0.00    +0.000 A 
ATOM     31  C   UNL     1      -1.255  13.696  22.010  0.00  0.00    +0.000 A 
ATOM     32  C   UNL     1      -0.395  12.598  21.879  0.00  0.00    +0.000 A 
ENDBRANCH  23  27
ENDBRANCH   1  24
TORSDOF 3
ENDMDL
MODEL 7
REMARK VINA RESULT:      -8.2      4.604     10.925
REMARK  Name = 
REMARK  3 active torsions:
REMARK  status: ('A' for Active; 'I' for Inactive)
REMARK    1  A    between atoms: N_3  and  C_4
REMARK    2  A    between atoms: N_10  and  C_11
REMARK    3  A    between atoms: C_21  and  C_22
REMARK                            x       y       z     vdW  Elec       q    Type
REMARK                         _______ _______ _______ _____ _____    ______ ____
ROOT
ATOM      1  C   UNL     1       3.436   6.843  18.033  0.00  0.00    +0.000 A 
ATOM      2  C   UNL     1       3.184   8.089  17.413  0.00  0.00    +0.000 A 
ATOM      3  C   UNL     1       2.316   9.037  17.982  0.00  0.00    +0.000 A 
ATOM      4  C   UNL     1       1.730   8.732  19.192  0.00  0.00    +0.000 A 
ATOM      5  C   UNL     1       2.118   7.568  19.867  0.00  0.00    +0.000 A 
ATOM      6  C   UNL     1       2.975   6.626  19.331  0.00  0.00    +0.000 A 
ATOM      7  N   UNL     1       1.457   7.466  21.087  0.00  0.00    +0.000 N 
ATOM      8  C   UNL     1       0.481   8.437  21.209  0.00  0.00    +0.000 C 
ATOM      9  O   UNL     1      -0.394   8.503  22.048  0.00  0.00    +0.000 OA
ATOM     10  C   UNL     1       0.702   9.359  20.036  0.00  0.00    +0.000 C 
ATOM     11  C   UNL     1       0.010  10.487  19.785  0.00  0.00    +0.000 C 
ATOM     12  H   UNL     1       1.600   6.752  21.781  0.00  0.00    +0.000 HD
ENDROOT
BRANCH  11  13
ATOM     13  C   UNL     1      -0.579  11.779  20.257  0.00  0.00    +0.000 A 
ATOM     14  C   UNL     1      -1.312  11.719  21.453  0.00  0.00    +0.000 A 
ATOM     15  C   UNL     1      -1.850  12.876  22.023  0.00  0.00    +0.000 A 
ATOM     16  C   UNL     1      -1.669  14.113  21.400  0.00  0.00    +0.000 A 
ATOM     17 CL   UNL     1      -2.367  15.501  22.158  0.00  0.00    +0.000 Cl
ATOM     18  C   UNL     1      -0.941  14.188  20.205  0.00  0.00    +0.000 A 
ATOM     19 CL   UNL     1      -0.667  15.689  19.392  0.00  0.00    +0.000 Cl
ATOM     20  C   UNL     1      -0.399  13.022  19.634  0.00  0.00    +0.000 A 
ENDBRANCH  11  13
BRANCH   1  24
ATOM     21  O   UNL     1       5.206   6.925  15.790  0.00  0.00    +0.000 OA
ATOM     22  C   UNL     1       4.821   5.848  16.237  0.00  0.00    +0.000 C 
ATOM     23  N   UNL     1       5.066   4.624  15.632  0.00  0.00    +0.000 N 
ATOM     24  N   UNL     1       4.036   5.742  17.369  0.00  0.00    +0.000 N 
ATOM     25  H   UNL     1       4.506   3.854  15.948  0.00  0.00    +0.000 HD
ATOM     26  H   UNL     1       3.650   4.832  17.563  0.00  0.00    +0.000 HD
BRANCH  23  27
ATOM     27  C   UNL     1       5.810   4.432  14.441  0.00  0.00    +0.000 A 
ATOM     28  C   UNL     1       7.068   4.997  14.217  0.00  0.00    +0.000 A 
ATOM     29  C   UNL     1       7.751   4.797  13.014  0.00  0.00    +0.000 A 
ATOM     30  C   UNL     1       7.185   4.010  12.015  0.00  0.00    +0.000 A 
ATOM     31  C   UNL     1       5.940   3.418  12.227  0.00  0.00    +0.000 A 
ATOM     32  C   UNL     1       5.260   3.626  13.433  0.00  0.00    +0.000 A 
ENDBRANCH  23  27
ENDBRANCH   1  24
TORSDOF 3
ENDMDL
MODEL 8
REMARK VINA RESULT:      -8.2      4.852     11.007
REMARK  Name = 
REMARK  3 active torsions:
REMARK  status: ('A' for Active; 'I' for Inactive)
REMARK    1  A    between atoms: N_3  and  C_4
REMARK    2  A    between atoms: N_10  and  C_11
REMARK    3  A    between atoms: C_21  and  C_22
REMARK                            x       y       z     vdW  Elec       q    Type
REMARK                         _______ _______ _______ _____ _____    ______ ____
ROOT
ATOM      1  C   UNL     1       3.435   6.845  18.005  0.00  0.00    +0.000 A 
ATOM      2  C   UNL     1       3.128   8.063  17.355  0.00  0.00    +0.000 A 
ATOM      3  C   UNL     1       2.237   8.996  17.913  0.00  0.00    +0.000 A 
ATOM      4  C   UNL     1       1.683   8.705  19.142  0.00  0.00    +0.000 A 
ATOM      5  C   UNL     1       2.125   7.576  19.843  0.00  0.00    +0.000 A 
ATOM      6  C   UNL     1       3.005   6.650  19.317  0.00  0.00    +0.000 A 
ATOM      7  N   UNL     1       1.490   7.486  21.077  0.00  0.00    +0.000 N 
ATOM      8  C   UNL     1       0.482   8.425  21.189  0.00  0.00    +0.000 C 
ATOM      9  O   UNL     1      -0.379   8.485  22.043  0.00  0.00    +0.000 OA
ATOM     10  C   UNL     1       0.649   9.320  19.987  0.00  0.00    +0.000 C 
ATOM     11  C   UNL     1      -0.087  10.416  19.717  0.00  0.00    +0.000 C 
ATOM     12  H   UNL     1       1.670   6.797  21.788  0.00  0.00    +0.000 HD
ENDROOT
BRANCH  11  13
ATOM     13  C   UNL     1      -0.713  11.699  20.164  0.00  0.00    +0.000 A 
ATOM     14  C   UNL     1       0.176  12.707  20.572  0.00  0.00    +0.000 A 
ATOM     15  C   UNL     1      -0.295  13.969  20.946  0.00  0.00    +0.000 A 
ATOM     16  C   UNL     1      -1.665  14.241  20.923  0.00  0.00    +0.000 A 
ATOM     17 CL   UNL     1      -2.175  15.821  21.403  0.00  0.00    +0.000 Cl
ATOM     18  C   UNL     1      -2.563  13.244  20.519  0.00  0.00    +0.000 A 
ATOM     19 CL   UNL     1      -4.268  13.521  20.453  0.00  0.00    +0.000 Cl
ATOM     20  C   UNL     1      -2.088  11.976  20.142  0.00  0.00    +0.000 A 
ENDBRANCH  11  13
BRANCH   1  24
ATOM     21  O   UNL     1       5.148   6.922  15.718  0.00  0.00    +0.000 OA
ATOM     22  C   UNL     1       4.816   5.846  16.208  0.00  0.00    +0.000 C 
ATOM     23  N   UNL     1       5.094   4.613  15.636  0.00  0.00    +0.000 N 
ATOM     24  N   UNL     1       4.062   5.747  17.362  0.00  0.00    +0.000 N 
ATOM     25  H   UNL     1       4.572   3.833  15.989  0.00  0.00    +0.000 HD
ATOM     26  H   UNL     1       3.716   4.829  17.593  0.00  0.00    +0.000 HD
BRANCH  23  27
ATOM     27  C   UNL     1       5.817   4.411  14.433  0.00  0.00    +0.000 A 
ATOM     28  C   UNL     1       7.069   4.978  14.181  0.00  0.00    +0.000 A 
ATOM     29  C   UNL     1       7.731   4.768  12.968  0.00  0.00    +0.000 A 
ATOM     30  C   UNL     1       7.149   3.969  11.987  0.00  0.00    +0.000 A 
ATOM     31  C   UNL     1       5.910   3.376  12.227  0.00  0.00    +0.000 A 
ATOM     32  C   UNL     1       5.251   3.594  13.444  0.00  0.00    +0.000 A 
ENDBRANCH  23  27
ENDBRANCH   1  24
TORSDOF 3
ENDMDL
MODEL 9
REMARK VINA RESULT:      -8.1      5.316     11.417
REMARK  Name = 
REMARK  3 active torsions:
REMARK  status: ('A' for Active; 'I' for Inactive)
REMARK    1  A    between atoms: N_3  and  C_4
REMARK    2  A    between atoms: N_10  and  C_11
REMARK    3  A    between atoms: C_21  and  C_22
REMARK                            x       y       z     vdW  Elec       q    Type
REMARK                         _______ _______ _______ _____ _____    ______ ____
ROOT
ATOM      1  C   UNL     1       2.151   7.417  19.582  0.00  0.00    +0.000 A 
ATOM      2  C   UNL     1       1.460   7.425  20.816  0.00  0.00    +0.000 A 
ATOM      3  C   UNL     1       0.675   8.519  21.219  0.00  0.00    +0.000 A 
ATOM      4  C   UNL     1       0.569   9.589  20.356  0.00  0.00    +0.000 A 
ATOM      5  C   UNL     1       1.124   9.494  19.074  0.00  0.00    +0.000 A 
ATOM      6  C   UNL     1       1.893   8.426  18.655  0.00  0.00    +0.000 A 
ATOM      7  N   UNL     1       0.866  10.649  18.341  0.00  0.00    +0.000 N 
ATOM      8  C   UNL     1       0.295  11.626  19.135  0.00  0.00    +0.000 C 
ATOM      9  O   UNL     1       0.132  12.797  18.860  0.00  0.00    +0.000 OA
ATOM     10  C   UNL     1      -0.021  10.934  20.437  0.00  0.00    +0.000 C 
ATOM     11  C   UNL     1      -0.644  11.495  21.492  0.00  0.00    +0.000 C 
ATOM     12  H   UNL     1       1.111  10.807  17.379  0.00  0.00    +0.000 HD
ENDROOT
BRANCH  11  13
ATOM     13  C   UNL     1      -1.760  12.321  22.049  0.00  0.00    +0.000 A 
ATOM     14  C   UNL     1      -2.099  13.469  21.316  0.00  0.00    +0.000 A 
ATOM     15  C   UNL     1      -3.169  14.279  21.708  0.00  0.00    +0.000 A 
ATOM     16  C   UNL     1      -3.914  13.955  22.844  0.00  0.00    +0.000 A 
ATOM     17 CL   UNL     1      -5.220  15.004  23.271  0.00  0.00    +0.000 Cl
ATOM     18  C   UNL     1      -3.585  12.812  23.586  0.00  0.00    +0.000 A 
ATOM     19 CL   UNL     1      -4.476  12.347  24.992  0.00  0.00    +0.000 Cl
ATOM     20  C   UNL     1      -2.509  11.998  23.190  0.00  0.00    +0.000 A 
ENDBRANCH  11  13
BRANCH   1  24
ATOM     21  O   UNL     1       3.749   7.355  17.212  0.00  0.00    +0.000 OA
ATOM     22  C   UNL     1       3.871   6.479  18.065  0.00  0.00    +0.000 C 
ATOM     23  N   UNL     1       4.643   5.338  17.903  0.00  0.00    +0.000 N 
ATOM     24  N   UNL     1       3.189   6.503  19.267  0.00  0.00    +0.000 N 
ATOM     25  H   UNL     1       4.474   4.593  18.553  0.00  0.00    +0.000 HD
ATOM     26  H   UNL     1       3.241   5.667  19.828  0.00  0.00    +0.000 HD
BRANCH  23  27
ATOM     27  C   UNL     1       5.420   5.029  16.759  0.00  0.00    +0.000 A 
ATOM     28  C   UNL     1       6.780   5.329  16.646  0.00  0.00    +0.000 A 
ATOM     29  C   UNL     1       7.497   5.024  15.485  0.00  0.00    +0.000 A 
ATOM     30  C   UNL     1       6.859   4.398  14.417  0.00  0.00    +0.000 A 
ATOM     31  C   UNL     1       5.507   4.071  14.518  0.00  0.00    +0.000 A 
ATOM     32  C   UNL     1       4.795   4.381  15.683  0.00  0.00    +0.000 A 
ENDBRANCH  23  27
ENDBRANCH   1  24
TORSDOF 3
ENDMDL
