MODEL 1
REMARK VINA RESULT:      -7.1      0.000      0.000
REMARK  Name = 
REMARK  7 active torsions:
REMARK  status: ('A' for Active; 'I' for Inactive)
REMARK    1  A    between atoms: C_1  and  C_2
REMARK    2  A    between atoms: C_2  and  C_3
REMARK    3  A    between atoms: C_2  and  C_4
REMARK    4  A    between atoms: C_2  and  S_5
REMARK    5  A    between atoms: S_5  and  C_8
REMARK    6  A    between atoms: C_8  and  C_9
REMARK    7  A    between atoms: C_9  and  C_11
REMARK                            x       y       z     vdW  Elec       q    Type
REMARK                         _______ _______ _______ _____ _____    ______ ____
ROOT
ATOM      1  C   UNL     1       5.466   5.040  18.918  0.00  0.00    +0.000 C 
ATOM      2  O   UNL     1       6.348   5.099  19.777  0.00  0.00    +0.000 OA
ENDROOT
BRANCH   1   3
ATOM      3  C   UNL     1       5.846   4.883  17.483  0.00  0.00    +0.000 A 
ATOM      4  C   UNL     1       5.270   3.837  16.736  0.00  0.00    +0.000 A 
ATOM      5  C   UNL     1       5.605   3.649  15.395  0.00  0.00    +0.000 A 
ATOM      6  C   UNL     1       6.488   4.528  14.777  0.00  0.00    +0.000 A 
ATOM      7 CL   UNL     1       6.883   4.307  13.119  0.00  0.00    +0.000 Cl
ATOM      8  C   UNL     1       7.051   5.582  15.491  0.00  0.00    +0.000 A 
ATOM      9  C   UNL     1       6.737   5.759  16.846  0.00  0.00    +0.000 A 
ATOM     10 CL   UNL     1       7.541   7.060  17.652  0.00  0.00    +0.000 Cl
ENDBRANCH   1   3
BRANCH   1  11
ATOM     11  C   UNL     1       4.033   5.295  19.299  0.00  0.00    +0.000 C 
BRANCH  11  12
ATOM     12  S   UNL     1       3.262   3.828  19.945  0.00  0.00    +0.000 S 
ATOM     13  O   UNL     1       2.567   4.197  21.164  0.00  0.00    +0.000 OA
ATOM     14  O   UNL     1       4.255   2.770  19.972  0.00  0.00    +0.000 OA
BRANCH  12  16
ATOM     15  C   UNL     1       1.727   4.507  17.754  0.00  0.00    +0.000 C 
ATOM     16  C   UNL     1       2.011   3.340  18.706  0.00  0.00    +0.000 C 
ATOM     17  C   UNL     1       0.719   2.966  19.453  0.00  0.00    +0.000 C 
ATOM     18  C   UNL     1       2.492   2.120  17.907  0.00  0.00    +0.000 C 
ENDBRANCH  12  16
ENDBRANCH  11  12
ENDBRANCH   1  11
TORSDOF 4
ENDMDL
MODEL 2
REMARK VINA RESULT:      -7.0      0.020      1.023
REMARK  Name = 
REMARK  7 active torsions:
REMARK  status: ('A' for Active; 'I' for Inactive)
REMARK    1  A    between atoms: C_1  and  C_2
REMARK    2  A    between atoms: C_2  and  C_3
REMARK    3  A    between atoms: C_2  and  C_4
REMARK    4  A    between atoms: C_2  and  S_5
REMARK    5  A    between atoms: S_5  and  C_8
REMARK    6  A    between atoms: C_8  and  C_9
REMARK    7  A    between atoms: C_9  and  C_11
REMARK                            x       y       z     vdW  Elec       q    Type
REMARK                         _______ _______ _______ _____ _____    ______ ____
ROOT
ATOM      1  C   UNL     1       5.460   5.036  18.916  0.00  0.00    +0.000 C 
ATOM      2  O   UNL     1       6.338   5.093  19.779  0.00  0.00    +0.000 OA
ENDROOT
BRANCH   1   3
ATOM      3  C   UNL     1       5.845   4.885  17.482  0.00  0.00    +0.000 A 
ATOM      4  C   UNL     1       5.274   3.842  16.728  0.00  0.00    +0.000 A 
ATOM      5  C   UNL     1       5.614   3.660  15.388  0.00  0.00    +0.000 A 
ATOM      6  C   UNL     1       6.498   4.542  14.777  0.00  0.00    +0.000 A 
ATOM      7 CL   UNL     1       6.899   4.328  13.120  0.00  0.00    +0.000 Cl
ATOM      8  C   UNL     1       7.058   5.593  15.497  0.00  0.00    +0.000 A 
ATOM      9  C   UNL     1       6.739   5.764  16.852  0.00  0.00    +0.000 A 
ATOM     10 CL   UNL     1       7.538   7.062  17.666  0.00  0.00    +0.000 Cl
ENDBRANCH   1   3
BRANCH   1  11
ATOM     11  C   UNL     1       4.025   5.286  19.293  0.00  0.00    +0.000 C 
BRANCH  11  12
ATOM     12  S   UNL     1       3.260   3.819  19.945  0.00  0.00    +0.000 S 
ATOM     13  O   UNL     1       2.581   4.186  21.173  0.00  0.00    +0.000 OA
ATOM     14  O   UNL     1       4.252   2.759  19.958  0.00  0.00    +0.000 OA
BRANCH  12  16
ATOM     15  C   UNL     1       0.694   2.941  19.434  0.00  0.00    +0.000 C 
ATOM     16  C   UNL     1       1.992   3.335  18.721  0.00  0.00    +0.000 C 
ATOM     17  C   UNL     1       2.526   2.127  17.931  0.00  0.00    +0.000 C 
ATOM     18  C   UNL     1       1.722   4.487  17.743  0.00  0.00    +0.000 C 
ENDBRANCH  12  16
ENDBRANCH  11  12
ENDBRANCH   1  11
TORSDOF 4
ENDMDL
MODEL 3
REMARK VINA RESULT:      -7.0      0.030      1.019
REMARK  Name = 
REMARK  7 active torsions:
REMARK  status: ('A' for Active; 'I' for Inactive)
REMARK    1  A    between atoms: C_1  and  C_2
REMARK    2  A    between atoms: C_2  and  C_3
REMARK    3  A    between atoms: C_2  and  C_4
REMARK    4  A    between atoms: C_2  and  S_5
REMARK    5  A    between atoms: S_5  and  C_8
REMARK    6  A    between atoms: C_8  and  C_9
REMARK    7  A    between atoms: C_9  and  C_11
REMARK                            x       y       z     vdW  Elec       q    Type
REMARK                         _______ _______ _______ _____ _____    ______ ____
ROOT
ATOM      1  C   UNL     1       5.460   5.039  18.912  0.00  0.00    +0.000 C 
ATOM      2  O   UNL     1       6.337   5.104  19.777  0.00  0.00    +0.000 OA
ENDROOT
BRANCH   1   3
ATOM      3  C   UNL     1       5.848   4.889  17.479  0.00  0.00    +0.000 A 
ATOM      4  C   UNL     1       5.282   3.844  16.725  0.00  0.00    +0.000 A 
ATOM      5  C   UNL     1       5.625   3.662  15.385  0.00  0.00    +0.000 A 
ATOM      6  C   UNL     1       6.508   4.547  14.776  0.00  0.00    +0.000 A 
ATOM      7 CL   UNL     1       6.912   4.333  13.119  0.00  0.00    +0.000 Cl
ATOM      8  C   UNL     1       7.062   5.600  15.497  0.00  0.00    +0.000 A 
ATOM      9  C   UNL     1       6.740   5.771  16.851  0.00  0.00    +0.000 A 
ATOM     10 CL   UNL     1       7.534   7.072  17.666  0.00  0.00    +0.000 Cl
ENDBRANCH   1   3
BRANCH   1  11
ATOM     11  C   UNL     1       4.022   5.280  19.287  0.00  0.00    +0.000 C 
BRANCH  11  12
ATOM     12  S   UNL     1       3.265   3.807  19.934  0.00  0.00    +0.000 S 
ATOM     13  O   UNL     1       2.575   4.170  21.158  0.00  0.00    +0.000 OA
ATOM     14  O   UNL     1       4.264   2.755  19.954  0.00  0.00    +0.000 OA
BRANCH  12  16
ATOM     15  C   UNL     1       2.521   2.132  17.872  0.00  0.00    +0.000 C 
ATOM     16  C   UNL     1       2.009   3.313  18.702  0.00  0.00    +0.000 C 
ATOM     17  C   UNL     1       1.751   4.513  17.775  0.00  0.00    +0.000 C 
ATOM     18  C   UNL     1       0.694   2.932  19.398  0.00  0.00    +0.000 C 
ENDBRANCH  12  16
ENDBRANCH  11  12
ENDBRANCH   1  11
TORSDOF 4
ENDMDL
MODEL 4
REMARK VINA RESULT:      -6.7      2.372      3.476
REMARK  Name = 
REMARK  7 active torsions:
REMARK  status: ('A' for Active; 'I' for Inactive)
REMARK    1  A    between atoms: C_1  and  C_2
REMARK    2  A    between atoms: C_2  and  C_3
REMARK    3  A    between atoms: C_2  and  C_4
REMARK    4  A    between atoms: C_2  and  S_5
REMARK    5  A    between atoms: S_5  and  C_8
REMARK    6  A    between atoms: C_8  and  C_9
REMARK    7  A    between atoms: C_9  and  C_11
REMARK                            x       y       z     vdW  Elec       q    Type
REMARK                         _______ _______ _______ _____ _____    ______ ____
ROOT
ATOM      1  C   UNL     1       5.348   4.121  17.241  0.00  0.00    +0.000 C 
ATOM      2  O   UNL     1       5.487   3.552  16.156  0.00  0.00    +0.000 OA
ENDROOT
BRANCH   1   3
ATOM      3  C   UNL     1       6.188   5.313  17.561  0.00  0.00    +0.000 A 
ATOM      4  C   UNL     1       7.161   5.209  18.573  0.00  0.00    +0.000 A 
ATOM      5  C   UNL     1       7.961   6.301  18.909  0.00  0.00    +0.000 A 
ATOM      6  C   UNL     1       7.823   7.495  18.210  0.00  0.00    +0.000 A 
ATOM      7 CL   UNL     1       8.824   8.833  18.612  0.00  0.00    +0.000 Cl
ATOM      8  C   UNL     1       6.882   7.613  17.191  0.00  0.00    +0.000 A 
ATOM      9  C   UNL     1       6.058   6.525  16.867  0.00  0.00    +0.000 A 
ATOM     10 CL   UNL     1       4.884   6.800  15.630  0.00  0.00    +0.000 Cl
ENDBRANCH   1   3
BRANCH   1  11
ATOM     11  C   UNL     1       4.460   3.515  18.294  0.00  0.00    +0.000 C 
BRANCH  11  12
ATOM     12  S   UNL     1       2.762   3.989  18.062  0.00  0.00    +0.000 S 
ATOM     13  O   UNL     1       2.226   3.188  16.978  0.00  0.00    +0.000 OA
ATOM     14  O   UNL     1       2.702   5.437  17.987  0.00  0.00    +0.000 OA
BRANCH  12  16
ATOM     15  C   UNL     1       2.841   2.709  20.506  0.00  0.00    +0.000 C 
ATOM     16  C   UNL     1       1.899   3.509  19.600  0.00  0.00    +0.000 C 
ATOM     17  C   UNL     1       0.693   2.633  19.219  0.00  0.00    +0.000 C 
ATOM     18  C   UNL     1       1.393   4.754  20.344  0.00  0.00    +0.000 C 
ENDBRANCH  12  16
ENDBRANCH  11  12
ENDBRANCH   1  11
TORSDOF 4
ENDMDL
MODEL 5
REMARK VINA RESULT:      -6.7      1.217      1.584
REMARK  Name = 
REMARK  7 active torsions:
REMARK  status: ('A' for Active; 'I' for Inactive)
REMARK    1  A    between atoms: C_1  and  C_2
REMARK    2  A    between atoms: C_2  and  C_3
REMARK    3  A    between atoms: C_2  and  C_4
REMARK    4  A    between atoms: C_2  and  S_5
REMARK    5  A    between atoms: S_5  and  C_8
REMARK    6  A    between atoms: C_8  and  C_9
REMARK    7  A    between atoms: C_9  and  C_11
REMARK                            x       y       z     vdW  Elec       q    Type
REMARK                         _______ _______ _______ _____ _____    ______ ____
ROOT
ATOM      1  C   UNL     1       5.474   4.428  18.413  0.00  0.00    +0.000 C 
ATOM      2  O   UNL     1       6.280   4.412  19.347  0.00  0.00    +0.000 OA
ENDROOT
BRANCH   1   3
ATOM      3  C   UNL     1       5.973   4.571  17.014  0.00  0.00    +0.000 A 
ATOM      4  C   UNL     1       5.513   3.674  16.031  0.00  0.00    +0.000 A 
ATOM      5  C   UNL     1       5.960   3.767  14.713  0.00  0.00    +0.000 A 
ATOM      6  C   UNL     1       6.841   4.782  14.357  0.00  0.00    +0.000 A 
ATOM      7 CL   UNL     1       7.375   4.907  12.728  0.00  0.00    +0.000 Cl
ATOM      8  C   UNL     1       7.291   5.693  15.307  0.00  0.00    +0.000 A 
ATOM      9  C   UNL     1       6.864   5.588  16.639  0.00  0.00    +0.000 A 
ATOM     10 CL   UNL     1       7.534   6.732  17.748  0.00  0.00    +0.000 Cl
ENDBRANCH   1   3
BRANCH   1  11
ATOM     11  C   UNL     1       3.998   4.473  18.701  0.00  0.00    +0.000 C 
BRANCH  11  12
ATOM     12  S   UNL     1       3.393   2.889  19.236  0.00  0.00    +0.000 S 
ATOM     13  O   UNL     1       4.294   2.397  20.260  0.00  0.00    +0.000 OA
ATOM     14  O   UNL     1       3.131   2.083  18.058  0.00  0.00    +0.000 OA
BRANCH  12  16
ATOM     15  C   UNL     1       0.647   2.624  19.163  0.00  0.00    +0.000 C 
ATOM     16  C   UNL     1       1.773   3.215  20.017  0.00  0.00    +0.000 C 
ATOM     17  C   UNL     1       1.589   4.739  20.118  0.00  0.00    +0.000 C 
ATOM     18  C   UNL     1       1.727   2.615  21.430  0.00  0.00    +0.000 C 
ENDBRANCH  12  16
ENDBRANCH  11  12
ENDBRANCH   1  11
TORSDOF 4
ENDMDL
MODEL 6
REMARK VINA RESULT:      -6.7      1.625      2.075
REMARK  Name = 
REMARK  7 active torsions:
REMARK  status: ('A' for Active; 'I' for Inactive)
REMARK    1  A    between atoms: C_1  and  C_2
REMARK    2  A    between atoms: C_2  and  C_3
REMARK    3  A    between atoms: C_2  and  C_4
REMARK    4  A    between atoms: C_2  and  S_5
REMARK    5  A    between atoms: S_5  and  C_8
REMARK    6  A    between atoms: C_8  and  C_9
REMARK    7  A    between atoms: C_9  and  C_11
REMARK                            x       y       z     vdW  Elec       q    Type
REMARK                         _______ _______ _______ _____ _____    ______ ____
ROOT
ATOM      1  C   UNL     1       5.084   4.483  17.974  0.00  0.00    +0.000 C 
ATOM      2  O   UNL     1       5.705   4.036  18.941  0.00  0.00    +0.000 OA
ENDROOT
BRANCH   1   3
ATOM      3  C   UNL     1       5.775   4.633  16.660  0.00  0.00    +0.000 A 
ATOM      4  C   UNL     1       5.343   3.853  15.570  0.00  0.00    +0.000 A 
ATOM      5  C   UNL     1       5.968   3.955  14.327  0.00  0.00    +0.000 A 
ATOM      6  C   UNL     1       7.004   4.865  14.151  0.00  0.00    +0.000 A 
ATOM      7 CL   UNL     1       7.758   5.004  12.613  0.00  0.00    +0.000 Cl
ATOM      8  C   UNL     1       7.432   5.662  15.209  0.00  0.00    +0.000 A 
ATOM      9  C   UNL     1       6.824   5.544  16.468  0.00  0.00    +0.000 A 
ATOM     10 CL   UNL     1       7.475   6.534  17.725  0.00  0.00    +0.000 Cl
ENDBRANCH   1   3
BRANCH   1  11
ATOM     11  C   UNL     1       3.694   5.028  18.167  0.00  0.00    +0.000 C 
BRANCH  11  12
ATOM     12  S   UNL     1       2.489   3.722  18.239  0.00  0.00    +0.000 S 
ATOM     13  O   UNL     1       3.165   2.482  17.907  0.00  0.00    +0.000 OA
ATOM     14  O   UNL     1       1.326   4.136  17.477  0.00  0.00    +0.000 OA
BRANCH  12  16
ATOM     15  C   UNL     1       2.942   2.762  20.787  0.00  0.00    +0.000 C 
ATOM     16  C   UNL     1       1.964   3.629  19.987  0.00  0.00    +0.000 C 
ATOM     17  C   UNL     1       0.564   2.993  20.033  0.00  0.00    +0.000 C 
ATOM     18  C   UNL     1       1.890   5.035  20.601  0.00  0.00    +0.000 C 
ENDBRANCH  12  16
ENDBRANCH  11  12
ENDBRANCH   1  11
TORSDOF 4
ENDMDL
MODEL 7
REMARK VINA RESULT:      -6.7      1.575      2.066
REMARK  Name = 
REMARK  7 active torsions:
REMARK  status: ('A' for Active; 'I' for Inactive)
REMARK    1  A    between atoms: C_1  and  C_2
REMARK    2  A    between atoms: C_2  and  C_3
REMARK    3  A    between atoms: C_2  and  C_4
REMARK    4  A    between atoms: C_2  and  S_5
REMARK    5  A    between atoms: S_5  and  C_8
REMARK    6  A    between atoms: C_8  and  C_9
REMARK    7  A    between atoms: C_9  and  C_11
REMARK                            x       y       z     vdW  Elec       q    Type
REMARK                         _______ _______ _______ _____ _____    ______ ____
ROOT
ATOM      1  C   UNL     1       5.724   5.220  19.084  0.00  0.00    +0.000 C 
ATOM      2  O   UNL     1       6.645   5.464  19.867  0.00  0.00    +0.000 OA
ENDROOT
BRANCH   1   3
ATOM      3  C   UNL     1       5.997   5.176  17.617  0.00  0.00    +0.000 A 
ATOM      4  C   UNL     1       7.025   4.342  17.140  0.00  0.00    +0.000 A 
ATOM      5  C   UNL     1       7.318   4.278  15.777  0.00  0.00    +0.000 A 
ATOM      6  C   UNL     1       6.561   5.018  14.876  0.00  0.00    +0.000 A 
ATOM      7 CL   UNL     1       6.911   4.922  13.196  0.00  0.00    +0.000 Cl
ATOM      8  C   UNL     1       5.526   5.833  15.325  0.00  0.00    +0.000 A 
ATOM      9  C   UNL     1       5.244   5.920  16.696  0.00  0.00    +0.000 A 
ATOM     10 CL   UNL     1       3.980   7.008  17.148  0.00  0.00    +0.000 Cl
ENDBRANCH   1   3
BRANCH   1  11
ATOM     11  C   UNL     1       4.312   5.137  19.596  0.00  0.00    +0.000 C 
BRANCH  11  12
ATOM     12  S   UNL     1       3.656   3.493  19.426  0.00  0.00    +0.000 S 
ATOM     13  O   UNL     1       4.568   2.584  20.095  0.00  0.00    +0.000 OA
ATOM     14  O   UNL     1       3.321   3.281  18.030  0.00  0.00    +0.000 OA
BRANCH  12  16
ATOM     15  C   UNL     1       2.231   2.702  21.653  0.00  0.00    +0.000 C 
ATOM     16  C   UNL     1       2.078   3.491  20.348  0.00  0.00    +0.000 C 
ATOM     17  C   UNL     1       1.011   2.818  19.468  0.00  0.00    +0.000 C 
ATOM     18  C   UNL     1       1.634   4.928  20.655  0.00  0.00    +0.000 C 
ENDBRANCH  12  16
ENDBRANCH  11  12
ENDBRANCH   1  11
TORSDOF 4
ENDMDL
MODEL 8
REMARK VINA RESULT:      -6.6      1.598      1.987
REMARK  Name = 
REMARK  7 active torsions:
REMARK  status: ('A' for Active; 'I' for Inactive)
REMARK    1  A    between atoms: C_1  and  C_2
REMARK    2  A    between atoms: C_2  and  C_3
REMARK    3  A    between atoms: C_2  and  C_4
REMARK    4  A    between atoms: C_2  and  S_5
REMARK    5  A    between atoms: S_5  and  C_8
REMARK    6  A    between atoms: C_8  and  C_9
REMARK    7  A    between atoms: C_9  and  C_11
REMARK                            x       y       z     vdW  Elec       q    Type
REMARK                         _______ _______ _______ _____ _____    ______ ____
ROOT
ATOM      1  C   UNL     1       5.096   4.493  18.007  0.00  0.00    +0.000 C 
ATOM      2  O   UNL     1       5.725   4.070  18.979  0.00  0.00    +0.000 OA
ENDROOT
BRANCH   1   3
ATOM      3  C   UNL     1       5.786   4.643  16.692  0.00  0.00    +0.000 A 
ATOM      4  C   UNL     1       5.371   3.843  15.610  0.00  0.00    +0.000 A 
ATOM      5  C   UNL     1       5.996   3.945  14.367  0.00  0.00    +0.000 A 
ATOM      6  C   UNL     1       7.013   4.874  14.183  0.00  0.00    +0.000 A 
ATOM      7 CL   UNL     1       7.766   5.012  12.644  0.00  0.00    +0.000 Cl
ATOM      8  C   UNL     1       7.423   5.690  15.233  0.00  0.00    +0.000 A 
ATOM      9  C   UNL     1       6.816   5.573  16.492  0.00  0.00    +0.000 A 
ATOM     10 CL   UNL     1       7.445   6.590  17.739  0.00  0.00    +0.000 Cl
ENDBRANCH   1   3
BRANCH   1  11
ATOM     11  C   UNL     1       3.695   5.012  18.192  0.00  0.00    +0.000 C 
BRANCH  11  12
ATOM     12  S   UNL     1       2.522   3.681  18.314  0.00  0.00    +0.000 S 
ATOM     13  O   UNL     1       3.226   2.446  18.025  0.00  0.00    +0.000 OA
ATOM     14  O   UNL     1       1.348   4.041  17.540  0.00  0.00    +0.000 OA
BRANCH  12  16
ATOM     15  C   UNL     1       2.051   5.048  20.664  0.00  0.00    +0.000 C 
ATOM     16  C   UNL     1       2.001   3.639  20.065  0.00  0.00    +0.000 C 
ATOM     17  C   UNL     1       2.973   2.724  20.831  0.00  0.00    +0.000 C 
ATOM     18  C   UNL     1       0.581   3.068  20.189  0.00  0.00    +0.000 C 
ENDBRANCH  12  16
ENDBRANCH  11  12
ENDBRANCH   1  11
TORSDOF 4
ENDMDL
MODEL 9
REMARK VINA RESULT:      -6.6      1.613      2.014
REMARK  Name = 
REMARK  7 active torsions:
REMARK  status: ('A' for Active; 'I' for Inactive)
REMARK    1  A    between atoms: C_1  and  C_2
REMARK    2  A    between atoms: C_2  and  C_3
REMARK    3  A    between atoms: C_2  and  C_4
REMARK    4  A    between atoms: C_2  and  S_5
REMARK    5  A    between atoms: S_5  and  C_8
REMARK    6  A    between atoms: C_8  and  C_9
REMARK    7  A    between atoms: C_9  and  C_11
REMARK                            x       y       z     vdW  Elec       q    Type
REMARK                         _______ _______ _______ _____ _____    ______ ____
ROOT
ATOM      1  C   UNL     1       5.076   4.501  17.926  0.00  0.00    +0.000 C 
ATOM      2  O   UNL     1       5.707   4.095  18.905  0.00  0.00    +0.000 OA
ENDROOT
BRANCH   1   3
ATOM      3  C   UNL     1       5.765   4.637  16.610  0.00  0.00    +0.000 A 
ATOM      4  C   UNL     1       5.351   3.827  15.536  0.00  0.00    +0.000 A 
ATOM      5  C   UNL     1       5.975   3.916  14.291  0.00  0.00    +0.000 A 
ATOM      6  C   UNL     1       6.993   4.842  14.098  0.00  0.00    +0.000 A 
ATOM      7 CL   UNL     1       7.746   4.965  12.558  0.00  0.00    +0.000 Cl
ATOM      8  C   UNL     1       7.403   5.669  15.140  0.00  0.00    +0.000 A 
ATOM      9  C   UNL     1       6.797   5.565  16.400  0.00  0.00    +0.000 A 
ATOM     10 CL   UNL     1       7.426   6.594  17.637  0.00  0.00    +0.000 Cl
ENDBRANCH   1   3
BRANCH   1  11
ATOM     11  C   UNL     1       3.671   5.012  18.103  0.00  0.00    +0.000 C 
BRANCH  11  12
ATOM     12  S   UNL     1       2.507   3.675  18.241  0.00  0.00    +0.000 S 
ATOM     13  O   UNL     1       3.207   2.447  17.919  0.00  0.00    +0.000 OA
ATOM     14  O   UNL     1       1.311   4.039  17.504  0.00  0.00    +0.000 OA
BRANCH  12  16
ATOM     15  C   UNL     1       0.600   3.092  20.149  0.00  0.00    +0.000 C 
ATOM     16  C   UNL     1       2.035   3.610  20.006  0.00  0.00    +0.000 C 
ATOM     17  C   UNL     1       2.120   5.037  20.577  0.00  0.00    +0.000 C 
ATOM     18  C   UNL     1       2.998   2.705  20.787  0.00  0.00    +0.000 C 
ENDBRANCH  12  16
ENDBRANCH  11  12
ENDBRANCH   1  11
TORSDOF 4
ENDMDL
