MODEL 1
REMARK VINA RESULT:      -8.5      0.000      0.000
REMARK  Name = 
REMARK  11 active torsions:
REMARK  status: ('A' for Active; 'I' for Inactive)
REMARK    1  A    between atoms: C_1  and  C_2
REMARK    2  A    between atoms: C_2  and  C_3
REMARK    3  A    between atoms: C_2  and  N_11
REMARK    4  A    between atoms: C_4  and  C_5
REMARK    5  A    between atoms: C_12  and  C_14
REMARK    6  A    between atoms: C_14  and  C_15
REMARK    7  A    between atoms: C_14  and  N_22
REMARK    8  A    between atoms: C_15  and  C_16
REMARK    9  A    between atoms: C_23  and  O_25
REMARK   10  A    between atoms: O_25  and  C_26
REMARK   11  A    between atoms: C_26  and  C_27
REMARK                            x       y       z     vdW  Elec       q    Type
REMARK                         _______ _______ _______ _____ _____    ______ ____
ROOT
ATOM      1  C   UNL     1       2.820   6.920  18.343  0.00  0.00    +0.000 C 
ENDROOT
BRANCH   1   3
ATOM      2  N   UNL     1       5.143   6.041  18.410  0.00  0.00    +0.000 N 
ATOM      3  C   UNL     1       4.293   6.979  17.866  0.00  0.00    +0.000 C 
ATOM      4  O   UNL     1       4.655   7.735  16.965  0.00  0.00    +0.000 OA
ATOM      5  H   UNL     1       4.829   5.517  19.217  0.00  0.00    +0.000 HD
BRANCH   2   7
ATOM      6  C   UNL     1       7.272   4.909  18.841  0.00  0.00    +0.000 C 
ATOM      7  C   UNL     1       6.540   5.976  18.027  0.00  0.00    +0.000 C 
BRANCH   7   8
ATOM      8  C   UNL     1       6.594   5.797  16.535  0.00  0.00    +0.000 C 
ATOM      9  C   UNL     1       6.663   4.633  15.861  0.00  0.00    +0.000 C 
BRANCH   9  10
ATOM     10  C   UNL     1       6.829   4.540  14.403  0.00  0.00    +0.000 A 
ATOM     11  C   UNL     1       6.106   3.596  13.676  0.00  0.00    +0.000 A 
ATOM     12  C   UNL     1       6.314   3.504  12.303  0.00  0.00    +0.000 A 
ATOM     13  C   UNL     1       7.233   4.350  11.695  0.00  0.00    +0.000 A 
ATOM     14  C   UNL     1       7.908   5.257  12.491  0.00  0.00    +0.000 A 
ATOM     15  N   UNL     1       7.724   5.370  13.825  0.00  0.00    +0.000 NA
ENDBRANCH   9  10
ENDBRANCH   7   8
ENDBRANCH   2   7
ENDBRANCH   1   3
BRANCH   1  16
ATOM     16  N   UNL     1       2.058   8.102  17.932  0.00  0.00    +0.000 N 
ATOM     17  C   UNL     1       1.381   8.896  18.809  0.00  0.00    +0.000 C 
ATOM     18  O   UNL     1       1.433   8.805  20.021  0.00  0.00    +0.000 OA
ATOM     19  H   UNL     1       1.841   8.241  16.954  0.00  0.00    +0.000 HD
BRANCH  17  20
ATOM     20  O   UNL     1       0.633   9.782  18.109  0.00  0.00    +0.000 OA
BRANCH  20  21
ATOM     21  C   UNL     1      -0.431  10.417  18.834  0.00  0.00    +0.000 C 
BRANCH  21  22
ATOM     22  C   UNL     1      -1.667  10.600  17.984  0.00  0.00    +0.000 A 
ATOM     23  C   UNL     1      -1.850   9.840  16.818  0.00  0.00    +0.000 A 
ATOM     24  C   UNL     1      -3.017   9.962  16.060  0.00  0.00    +0.000 A 
ATOM     25  C   UNL     1      -4.018  10.844  16.460  0.00  0.00    +0.000 A 
ATOM     26  C   UNL     1      -3.854  11.598  17.620  0.00  0.00    +0.000 A 
ATOM     27  C   UNL     1      -2.687  11.477  18.380  0.00  0.00    +0.000 A 
ENDBRANCH  21  22
ENDBRANCH  20  21
ENDBRANCH  17  20
ENDBRANCH   1  16
BRANCH   1  28
ATOM     28  C   UNL     1       2.195   5.609  17.808  0.00  0.00    +0.000 C 
BRANCH  28  29
ATOM     29  C   UNL     1       2.027   4.501  18.824  0.00  0.00    +0.000 A 
ATOM     30  C   UNL     1       1.678   4.798  20.150  0.00  0.00    +0.000 A 
ATOM     31  C   UNL     1       1.493   3.773  21.081  0.00  0.00    +0.000 A 
ATOM     32  C   UNL     1       1.641   2.442  20.696  0.00  0.00    +0.000 A 
ATOM     33  C   UNL     1       1.960   2.135  19.377  0.00  0.00    +0.000 A 
ATOM     34  C   UNL     1       2.148   3.158  18.444  0.00  0.00    +0.000 A 
ENDBRANCH  28  29
ENDBRANCH   1  28
TORSDOF 10
ENDMDL
MODEL 2
REMARK VINA RESULT:      -8.3      4.030     10.918
REMARK  Name = 
REMARK  11 active torsions:
REMARK  status: ('A' for Active; 'I' for Inactive)
REMARK    1  A    between atoms: C_1  and  C_2
REMARK    2  A    between atoms: C_2  and  C_3
REMARK    3  A    between atoms: C_2  and  N_11
REMARK    4  A    between atoms: C_4  and  C_5
REMARK    5  A    between atoms: C_12  and  C_14
REMARK    6  A    between atoms: C_14  and  C_15
REMARK    7  A    between atoms: C_14  and  N_22
REMARK    8  A    between atoms: C_15  and  C_16
REMARK    9  A    between atoms: C_23  and  O_25
REMARK   10  A    between atoms: O_25  and  C_26
REMARK   11  A    between atoms: C_26  and  C_27
REMARK                            x       y       z     vdW  Elec       q    Type
REMARK                         _______ _______ _______ _____ _____    ______ ____
ROOT
ATOM      1  C   UNL     1       0.064  10.299  19.272  0.00  0.00    +0.000 C 
ENDROOT
BRANCH   1   3
ATOM      2  N   UNL     1      -0.418  12.222  20.769  0.00  0.00    +0.000 N 
ATOM      3  C   UNL     1       0.370  11.113  20.554  0.00  0.00    +0.000 C 
ATOM      4  O   UNL     1       1.182  10.724  21.393  0.00  0.00    +0.000 OA
ATOM      5  H   UNL     1      -0.993  12.559  20.008  0.00  0.00    +0.000 HD
BRANCH   2   7
ATOM      6  C   UNL     1       0.577  14.295  21.615  0.00  0.00    +0.000 C 
ATOM      7  C   UNL     1      -0.249  13.052  21.946  0.00  0.00    +0.000 C 
BRANCH   7   8
ATOM      8  C   UNL     1      -1.615  13.319  22.514  0.00  0.00    +0.000 C 
ATOM      9  C   UNL     1      -2.715  12.556  22.370  0.00  0.00    +0.000 C 
BRANCH   9  10
ATOM     10  C   UNL     1      -4.048  12.940  22.857  0.00  0.00    +0.000 A 
ATOM     11  C   UNL     1      -4.697  14.049  22.318  0.00  0.00    +0.000 A 
ATOM     12  C   UNL     1      -5.941  14.411  22.828  0.00  0.00    +0.000 A 
ATOM     13  C   UNL     1      -6.499  13.664  23.856  0.00  0.00    +0.000 A 
ATOM     14  C   UNL     1      -5.788  12.579  24.334  0.00  0.00    +0.000 A 
ATOM     15  N   UNL     1      -4.581  12.202  23.856  0.00  0.00    +0.000 NA
ENDBRANCH   9  10
ENDBRANCH   7   8
ENDBRANCH   2   7
ENDBRANCH   1   3
BRANCH   1  16
ATOM     16  N   UNL     1       0.948   9.139  19.128  0.00  0.00    +0.000 N 
ATOM     17  C   UNL     1       1.931   9.061  18.188  0.00  0.00    +0.000 C 
ATOM     18  O   UNL     1       2.277   9.971  17.459  0.00  0.00    +0.000 OA
ATOM     19  H   UNL     1       0.713   8.272  19.594  0.00  0.00    +0.000 HD
BRANCH  17  20
ATOM     20  O   UNL     1       2.439   7.805  18.189  0.00  0.00    +0.000 OA
BRANCH  20  21
ATOM     21  C   UNL     1       2.488   7.149  19.465  0.00  0.00    +0.000 C 
BRANCH  21  22
ATOM     22  C   UNL     1       1.987   5.726  19.393  0.00  0.00    +0.000 A 
ATOM     23  C   UNL     1       2.011   5.023  18.178  0.00  0.00    +0.000 A 
ATOM     24  C   UNL     1       1.603   3.688  18.116  0.00  0.00    +0.000 A 
ATOM     25  C   UNL     1       1.171   3.038  19.269  0.00  0.00    +0.000 A 
ATOM     26  C   UNL     1       1.150   3.720  20.483  0.00  0.00    +0.000 A 
ATOM     27  C   UNL     1       1.558   5.056  20.547  0.00  0.00    +0.000 A 
ENDBRANCH  21  22
ENDBRANCH  20  21
ENDBRANCH  17  20
ENDBRANCH   1  16
BRANCH   1  28
ATOM     28  C   UNL     1      -1.428   9.894  19.306  0.00  0.00    +0.000 C 
BRANCH  28  29
ATOM     29  C   UNL     1      -2.239  10.277  18.088  0.00  0.00    +0.000 A 
ATOM     30  C   UNL     1      -3.325  11.159  18.203  0.00  0.00    +0.000 A 
ATOM     31  C   UNL     1      -4.055  11.537  17.074  0.00  0.00    +0.000 A 
ATOM     32  C   UNL     1      -3.703  11.050  15.817  0.00  0.00    +0.000 A 
ATOM     33  C   UNL     1      -2.611  10.196  15.687  0.00  0.00    +0.000 A 
ATOM     34  C   UNL     1      -1.880   9.814  16.814  0.00  0.00    +0.000 A 
ENDBRANCH  28  29
ENDBRANCH   1  28
TORSDOF 10
ENDMDL
MODEL 3
REMARK VINA RESULT:      -8.2      0.719      1.223
REMARK  Name = 
REMARK  11 active torsions:
REMARK  status: ('A' for Active; 'I' for Inactive)
REMARK    1  A    between atoms: C_1  and  C_2
REMARK    2  A    between atoms: C_2  and  C_3
REMARK    3  A    between atoms: C_2  and  N_11
REMARK    4  A    between atoms: C_4  and  C_5
REMARK    5  A    between atoms: C_12  and  C_14
REMARK    6  A    between atoms: C_14  and  C_15
REMARK    7  A    between atoms: C_14  and  N_22
REMARK    8  A    between atoms: C_15  and  C_16
REMARK    9  A    between atoms: C_23  and  O_25
REMARK   10  A    between atoms: O_25  and  C_26
REMARK   11  A    between atoms: C_26  and  C_27
REMARK                            x       y       z     vdW  Elec       q    Type
REMARK                         _______ _______ _______ _____ _____    ______ ____
ROOT
ATOM      1  C   UNL     1       2.720   6.978  18.518  0.00  0.00    +0.000 C 
ENDROOT
BRANCH   1   3
ATOM      2  N   UNL     1       5.090   6.235  18.574  0.00  0.00    +0.000 N 
ATOM      3  C   UNL     1       4.113   6.879  17.847  0.00  0.00    +0.000 C 
ATOM      4  O   UNL     1       4.302   7.241  16.686  0.00  0.00    +0.000 OA
ATOM      5  H   UNL     1       4.919   6.052  19.554  0.00  0.00    +0.000 HD
BRANCH   2   7
ATOM      6  C   UNL     1       7.305   5.302  19.046  0.00  0.00    +0.000 C 
ATOM      7  C   UNL     1       6.428   6.054  18.046  0.00  0.00    +0.000 C 
BRANCH   7   8
ATOM      8  C   UNL     1       6.299   5.413  16.692  0.00  0.00    +0.000 C 
ATOM      9  C   UNL     1       7.228   5.387  15.717  0.00  0.00    +0.000 C 
BRANCH   9  10
ATOM     10  C   UNL     1       6.989   4.840  14.373  0.00  0.00    +0.000 A 
ATOM     11  C   UNL     1       6.031   3.847  14.183  0.00  0.00    +0.000 A 
ATOM     12  C   UNL     1       5.855   3.320  12.906  0.00  0.00    +0.000 A 
ATOM     13  C   UNL     1       6.636   3.794  11.861  0.00  0.00    +0.000 A 
ATOM     14  C   UNL     1       7.564   4.781  12.137  0.00  0.00    +0.000 A 
ATOM     15  N   UNL     1       7.754   5.313  13.364  0.00  0.00    +0.000 NA
ENDBRANCH   9  10
ENDBRANCH   7   8
ENDBRANCH   2   7
ENDBRANCH   1   3
BRANCH   1  16
ATOM     16  N   UNL     1       2.077   8.272  18.271  0.00  0.00    +0.000 N 
ATOM     17  C   UNL     1       1.356   8.941  19.215  0.00  0.00    +0.000 C 
ATOM     18  O   UNL     1       1.272   8.623  20.386  0.00  0.00    +0.000 OA
ATOM     19  H   UNL     1       1.977   8.606  17.321  0.00  0.00    +0.000 HD
BRANCH  17  20
ATOM     20  O   UNL     1       0.743   9.996  18.630  0.00  0.00    +0.000 OA
BRANCH  20  21
ATOM     21  C   UNL     1      -0.422  10.499  19.303  0.00  0.00    +0.000 C 
BRANCH  21  22
ATOM     22  C   UNL     1      -1.618  10.583  18.384  0.00  0.00    +0.000 A 
ATOM     23  C   UNL     1      -2.688  11.442  18.683  0.00  0.00    +0.000 A 
ATOM     24  C   UNL     1      -3.770  11.568  17.807  0.00  0.00    +0.000 A 
ATOM     25  C   UNL     1      -3.794  10.839  16.621  0.00  0.00    +0.000 A 
ATOM     26  C   UNL     1      -2.735   9.989  16.307  0.00  0.00    +0.000 A 
ATOM     27  C   UNL     1      -1.651   9.863  17.181  0.00  0.00    +0.000 A 
ENDBRANCH  21  22
ENDBRANCH  20  21
ENDBRANCH  17  20
ENDBRANCH   1  16
BRANCH   1  28
ATOM     28  C   UNL     1       1.859   5.795  18.015  0.00  0.00    +0.000 C 
BRANCH  28  29
ATOM     29  C   UNL     1       2.381   4.416  18.350  0.00  0.00    +0.000 A 
ATOM     30  C   UNL     1       2.511   4.008  19.686  0.00  0.00    +0.000 A 
ATOM     31  C   UNL     1       2.964   2.724  19.996  0.00  0.00    +0.000 A 
ATOM     32  C   UNL     1       3.280   1.828  18.976  0.00  0.00    +0.000 A 
ATOM     33  C   UNL     1       3.128   2.212  17.647  0.00  0.00    +0.000 A 
ATOM     34  C   UNL     1       2.678   3.496  17.334  0.00  0.00    +0.000 A 
ENDBRANCH  28  29
ENDBRANCH   1  28
TORSDOF 10
ENDMDL
MODEL 4
REMARK VINA RESULT:      -8.2      2.979      8.569
REMARK  Name = 
REMARK  11 active torsions:
REMARK  status: ('A' for Active; 'I' for Inactive)
REMARK    1  A    between atoms: C_1  and  C_2
REMARK    2  A    between atoms: C_2  and  C_3
REMARK    3  A    between atoms: C_2  and  N_11
REMARK    4  A    between atoms: C_4  and  C_5
REMARK    5  A    between atoms: C_12  and  C_14
REMARK    6  A    between atoms: C_14  and  C_15
REMARK    7  A    between atoms: C_14  and  N_22
REMARK    8  A    between atoms: C_15  and  C_16
REMARK    9  A    between atoms: C_23  and  O_25
REMARK   10  A    between atoms: O_25  and  C_26
REMARK   11  A    between atoms: C_26  and  C_27
REMARK                            x       y       z     vdW  Elec       q    Type
REMARK                         _______ _______ _______ _____ _____    ______ ____
ROOT
ATOM      1  C   UNL     1       2.224   6.692  20.062  0.00  0.00    +0.000 C 
ENDROOT
BRANCH   1   3
ATOM      2  N   UNL     1       1.281   8.919  19.494  0.00  0.00    +0.000 N 
ATOM      3  C   UNL     1       1.497   7.991  20.489  0.00  0.00    +0.000 C 
ATOM      4  O   UNL     1       1.029   8.133  21.618  0.00  0.00    +0.000 OA
ATOM      5  H   UNL     1       1.772   8.807  18.616  0.00  0.00    +0.000 HD
BRANCH   2   7
ATOM      6  C   UNL     1       1.586  11.300  19.983  0.00  0.00    +0.000 C 
ATOM      7  C   UNL     1       0.588  10.164  19.760  0.00  0.00    +0.000 C 
BRANCH   7   8
ATOM      8  C   UNL     1      -0.398  10.383  18.646  0.00  0.00    +0.000 C 
ATOM      9  C   UNL     1      -1.681  10.772  18.765  0.00  0.00    +0.000 C 
BRANCH   9  10
ATOM     10  C   UNL     1      -2.621  10.853  17.637  0.00  0.00    +0.000 A 
ATOM     11  C   UNL     1      -2.296  10.271  16.413  0.00  0.00    +0.000 A 
ATOM     12  C   UNL     1      -3.188  10.399  15.352  0.00  0.00    +0.000 A 
ATOM     13  C   UNL     1      -4.371  11.100  15.538  0.00  0.00    +0.000 A 
ATOM     14  C   UNL     1      -4.616  11.647  16.784  0.00  0.00    +0.000 A 
ATOM     15  N   UNL     1      -3.770  11.536  17.832  0.00  0.00    +0.000 NA
ENDBRANCH   9  10
ENDBRANCH   7   8
ENDBRANCH   2   7
ENDBRANCH   1   3
BRANCH   1  16
ATOM     16  N   UNL     1       1.377   5.506  20.215  0.00  0.00    +0.000 N 
ATOM     17  C   UNL     1       1.702   4.453  21.016  0.00  0.00    +0.000 C 
ATOM     18  O   UNL     1       2.643   4.425  21.787  0.00  0.00    +0.000 OA
ATOM     19  H   UNL     1       0.620   5.346  19.562  0.00  0.00    +0.000 HD
BRANCH  17  20
ATOM     20  O   UNL     1       0.821   3.449  20.798  0.00  0.00    +0.000 OA
BRANCH  20  21
ATOM     21  C   UNL     1       1.366   2.244  20.240  0.00  0.00    +0.000 C 
BRANCH  21  22
ATOM     22  C   UNL     1       2.201   2.514  19.009  0.00  0.00    +0.000 A 
ATOM     23  C   UNL     1       1.669   3.243  17.933  0.00  0.00    +0.000 A 
ATOM     24  C   UNL     1       2.454   3.546  16.818  0.00  0.00    +0.000 A 
ATOM     25  C   UNL     1       3.781   3.128  16.766  0.00  0.00    +0.000 A 
ATOM     26  C   UNL     1       4.325   2.412  17.830  0.00  0.00    +0.000 A 
ATOM     27  C   UNL     1       3.541   2.108  18.947  0.00  0.00    +0.000 A 
ENDBRANCH  21  22
ENDBRANCH  20  21
ENDBRANCH  17  20
ENDBRANCH   1  16
BRANCH   1  28
ATOM     28  C   UNL     1       2.715   6.873  18.606  0.00  0.00    +0.000 C 
BRANCH  28  29
ATOM     29  C   UNL     1       4.131   6.418  18.330  0.00  0.00    +0.000 A 
ATOM     30  C   UNL     1       4.840   5.676  19.286  0.00  0.00    +0.000 A 
ATOM     31  C   UNL     1       6.137   5.230  19.020  0.00  0.00    +0.000 A 
ATOM     32  C   UNL     1       6.734   5.507  17.792  0.00  0.00    +0.000 A 
ATOM     33  C   UNL     1       6.030   6.219  16.825  0.00  0.00    +0.000 A 
ATOM     34  C   UNL     1       4.734   6.669  17.089  0.00  0.00    +0.000 A 
ENDBRANCH  28  29
ENDBRANCH   1  28
TORSDOF 10
ENDMDL
MODEL 5
REMARK VINA RESULT:      -8.1      3.964     10.868
REMARK  Name = 
REMARK  11 active torsions:
REMARK  status: ('A' for Active; 'I' for Inactive)
REMARK    1  A    between atoms: C_1  and  C_2
REMARK    2  A    between atoms: C_2  and  C_3
REMARK    3  A    between atoms: C_2  and  N_11
REMARK    4  A    between atoms: C_4  and  C_5
REMARK    5  A    between atoms: C_12  and  C_14
REMARK    6  A    between atoms: C_14  and  C_15
REMARK    7  A    between atoms: C_14  and  N_22
REMARK    8  A    between atoms: C_15  and  C_16
REMARK    9  A    between atoms: C_23  and  O_25
REMARK   10  A    between atoms: O_25  and  C_26
REMARK   11  A    between atoms: C_26  and  C_27
REMARK                            x       y       z     vdW  Elec       q    Type
REMARK                         _______ _______ _______ _____ _____    ______ ____
ROOT
ATOM      1  C   UNL     1       0.404  10.385  18.549  0.00  0.00    +0.000 C 
ENDROOT
BRANCH   1   3
ATOM      2  N   UNL     1       0.174  12.564  19.719  0.00  0.00    +0.000 N 
ATOM      3  C   UNL     1       0.984  11.767  18.940  0.00  0.00    +0.000 C 
ATOM      4  O   UNL     1       2.144  12.084  18.678  0.00  0.00    +0.000 OA
ATOM      5  H   UNL     1      -0.801  12.309  19.819  0.00  0.00    +0.000 HD
BRANCH   2   7
ATOM      6  C   UNL     1       0.263  14.943  19.143  0.00  0.00    +0.000 C 
ATOM      7  C   UNL     1       0.611  13.870  20.174  0.00  0.00    +0.000 C 
BRANCH   7   8
ATOM      8  C   UNL     1       0.040  14.087  21.548  0.00  0.00    +0.000 C 
ATOM      9  C   UNL     1      -1.247  14.325  21.861  0.00  0.00    +0.000 C 
BRANCH   9  10
ATOM     10  C   UNL     1      -1.714  14.643  23.219  0.00  0.00    +0.000 A 
ATOM     11  C   UNL     1      -0.922  15.411  24.069  0.00  0.00    +0.000 A 
ATOM     12  C   UNL     1      -1.373  15.663  25.362  0.00  0.00    +0.000 A 
ATOM     13  C   UNL     1      -2.593  15.142  25.770  0.00  0.00    +0.000 A 
ATOM     14  C   UNL     1      -3.317  14.389  24.863  0.00  0.00    +0.000 A 
ATOM     15  N   UNL     1      -2.905  14.133  23.602  0.00  0.00    +0.000 NA
ENDBRANCH   9  10
ENDBRANCH   7   8
ENDBRANCH   2   7
ENDBRANCH   1   3
BRANCH   1  16
ATOM     16  N   UNL     1       1.206   9.278  19.079  0.00  0.00    +0.000 N 
ATOM     17  C   UNL     1       2.089   8.567  18.323  0.00  0.00    +0.000 C 
ATOM     18  O   UNL     1       2.413   8.839  17.182  0.00  0.00    +0.000 OA
ATOM     19  H   UNL     1       0.969   8.876  19.976  0.00  0.00    +0.000 HD
BRANCH  17  20
ATOM     20  O   UNL     1       2.525   7.506  19.043  0.00  0.00    +0.000 OA
BRANCH  20  21
ATOM     21  C   UNL     1       2.827   6.319  18.294  0.00  0.00    +0.000 C 
BRANCH  21  22
ATOM     22  C   UNL     1       2.116   5.104  18.843  0.00  0.00    +0.000 A 
ATOM     23  C   UNL     1       1.776   4.035  17.998  0.00  0.00    +0.000 A 
ATOM     24  C   UNL     1       1.172   2.884  18.510  0.00  0.00    +0.000 A 
ATOM     25  C   UNL     1       0.903   2.785  19.872  0.00  0.00    +0.000 A 
ATOM     26  C   UNL     1       1.244   3.834  20.724  0.00  0.00    +0.000 A 
ATOM     27  C   UNL     1       1.849   4.987  20.214  0.00  0.00    +0.000 A 
ENDBRANCH  21  22
ENDBRANCH  20  21
ENDBRANCH  17  20
ENDBRANCH   1  16
BRANCH   1  28
ATOM     28  C   UNL     1      -1.064  10.325  19.033  0.00  0.00    +0.000 C 
BRANCH  28  29
ATOM     29  C   UNL     1      -2.115  10.543  17.968  0.00  0.00    +0.000 A 
ATOM     30  C   UNL     1      -2.037   9.868  16.741  0.00  0.00    +0.000 A 
ATOM     31  C   UNL     1      -3.024  10.046  15.769  0.00  0.00    +0.000 A 
ATOM     32  C   UNL     1      -4.106  10.889  16.016  0.00  0.00    +0.000 A 
ATOM     33  C   UNL     1      -4.208  11.543  17.240  0.00  0.00    +0.000 A 
ATOM     34  C   UNL     1      -3.221  11.368  18.213  0.00  0.00    +0.000 A 
ENDBRANCH  28  29
ENDBRANCH   1  28
TORSDOF 10
ENDMDL
MODEL 6
REMARK VINA RESULT:      -8.0      4.081     11.523
REMARK  Name = 
REMARK  11 active torsions:
REMARK  status: ('A' for Active; 'I' for Inactive)
REMARK    1  A    between atoms: C_1  and  C_2
REMARK    2  A    between atoms: C_2  and  C_3
REMARK    3  A    between atoms: C_2  and  N_11
REMARK    4  A    between atoms: C_4  and  C_5
REMARK    5  A    between atoms: C_12  and  C_14
REMARK    6  A    between atoms: C_14  and  C_15
REMARK    7  A    between atoms: C_14  and  N_22
REMARK    8  A    between atoms: C_15  and  C_16
REMARK    9  A    between atoms: C_23  and  O_25
REMARK   10  A    between atoms: O_25  and  C_26
REMARK   11  A    between atoms: C_26  and  C_27
REMARK                            x       y       z     vdW  Elec       q    Type
REMARK                         _______ _______ _______ _____ _____    ______ ____
ROOT
ATOM      1  C   UNL     1      -0.113  10.451  19.424  0.00  0.00    +0.000 C 
ENDROOT
BRANCH   1   3
ATOM      2  N   UNL     1      -1.307  11.886  21.062  0.00  0.00    +0.000 N 
ATOM      3  C   UNL     1      -0.119  11.267  20.740  0.00  0.00    +0.000 C 
ATOM      4  O   UNL     1       0.838  11.261  21.514  0.00  0.00    +0.000 OA
ATOM      5  H   UNL     1      -2.025  11.951  20.352  0.00  0.00    +0.000 HD
BRANCH   2   7
ATOM      6  C   UNL     1      -0.745  14.008  22.150  0.00  0.00    +0.000 C 
ATOM      7  C   UNL     1      -1.450  12.658  22.282  0.00  0.00    +0.000 C 
BRANCH   7   8
ATOM      8  C   UNL     1      -2.916  12.726  22.607  0.00  0.00    +0.000 C 
ATOM      9  C   UNL     1      -3.608  13.812  23.001  0.00  0.00    +0.000 C 
BRANCH   9  10
ATOM     10  C   UNL     1      -5.019  13.778  23.414  0.00  0.00    +0.000 A 
ATOM     11  C   UNL     1      -5.713  14.967  23.630  0.00  0.00    +0.000 A 
ATOM     12  C   UNL     1      -7.036  14.904  24.059  0.00  0.00    +0.000 A 
ATOM     13  C   UNL     1      -7.627  13.664  24.261  0.00  0.00    +0.000 A 
ATOM     14  C   UNL     1      -6.867  12.533  24.024  0.00  0.00    +0.000 A 
ATOM     15  N   UNL     1      -5.583  12.565  23.605  0.00  0.00    +0.000 NA
ENDBRANCH   9  10
ENDBRANCH   7   8
ENDBRANCH   2   7
ENDBRANCH   1   3
BRANCH   1  16
ATOM     16  N   UNL     1       0.926   9.417  19.418  0.00  0.00    +0.000 N 
ATOM     17  C   UNL     1       1.764   9.206  18.364  0.00  0.00    +0.000 C 
ATOM     18  O   UNL     1       1.843   9.916  17.379  0.00  0.00    +0.000 OA
ATOM     19  H   UNL     1       0.911   8.691  20.121  0.00  0.00    +0.000 HD
BRANCH  17  20
ATOM     20  O   UNL     1       2.473   8.075  18.589  0.00  0.00    +0.000 OA
BRANCH  20  21
ATOM     21  C   UNL     1       2.220   7.412  19.838  0.00  0.00    +0.000 C 
BRANCH  21  22
ATOM     22  C   UNL     1       2.035   5.923  19.664  0.00  0.00    +0.000 A 
ATOM     23  C   UNL     1       1.395   5.164  20.657  0.00  0.00    +0.000 A 
ATOM     24  C   UNL     1       1.168   3.797  20.476  0.00  0.00    +0.000 A 
ATOM     25  C   UNL     1       1.574   3.173  19.300  0.00  0.00    +0.000 A 
ATOM     26  C   UNL     1       2.202   3.916  18.302  0.00  0.00    +0.000 A 
ATOM     27  C   UNL     1       2.430   5.284  18.480  0.00  0.00    +0.000 A 
ENDBRANCH  21  22
ENDBRANCH  20  21
ENDBRANCH  17  20
ENDBRANCH   1  16
BRANCH   1  28
ATOM     28  C   UNL     1      -1.527   9.857  19.220  0.00  0.00    +0.000 C 
BRANCH  28  29
ATOM     29  C   UNL     1      -2.251  10.301  17.969  0.00  0.00    +0.000 A 
ATOM     30  C   UNL     1      -1.812   9.881  16.704  0.00  0.00    +0.000 A 
ATOM     31  C   UNL     1      -2.499  10.266  15.550  0.00  0.00    +0.000 A 
ATOM     32  C   UNL     1      -3.637  11.064  15.647  0.00  0.00    +0.000 A 
ATOM     33  C   UNL     1      -4.097  11.465  16.898  0.00  0.00    +0.000 A 
ATOM     34  C   UNL     1      -3.412  11.083  18.053  0.00  0.00    +0.000 A 
ENDBRANCH  28  29
ENDBRANCH   1  28
TORSDOF 10
ENDMDL
MODEL 7
REMARK VINA RESULT:      -8.0      2.717      4.090
REMARK  Name = 
REMARK  11 active torsions:
REMARK  status: ('A' for Active; 'I' for Inactive)
REMARK    1  A    between atoms: C_1  and  C_2
REMARK    2  A    between atoms: C_2  and  C_3
REMARK    3  A    between atoms: C_2  and  N_11
REMARK    4  A    between atoms: C_4  and  C_5
REMARK    5  A    between atoms: C_12  and  C_14
REMARK    6  A    between atoms: C_14  and  C_15
REMARK    7  A    between atoms: C_14  and  N_22
REMARK    8  A    between atoms: C_15  and  C_16
REMARK    9  A    between atoms: C_23  and  O_25
REMARK   10  A    between atoms: O_25  and  C_26
REMARK   11  A    between atoms: C_26  and  C_27
REMARK                            x       y       z     vdW  Elec       q    Type
REMARK                         _______ _______ _______ _____ _____    ______ ____
ROOT
ATOM      1  C   UNL     1       3.389   6.578  18.241  0.00  0.00    +0.000 C 
ENDROOT
BRANCH   1   3
ATOM      2  N   UNL     1       5.843   6.191  18.292  0.00  0.00    +0.000 N 
ATOM      3  C   UNL     1       4.768   6.604  17.536  0.00  0.00    +0.000 C 
ATOM      4  O   UNL     1       4.880   6.859  16.337  0.00  0.00    +0.000 OA
ATOM      5  H   UNL     1       5.720   6.094  19.292  0.00  0.00    +0.000 HD
BRANCH   2   7
ATOM      6  C   UNL     1       7.136   5.883  16.234  0.00  0.00    +0.000 C 
ATOM      7  C   UNL     1       7.183   6.145  17.739  0.00  0.00    +0.000 C 
BRANCH   7   8
ATOM      8  C   UNL     1       7.887   7.408  18.151  0.00  0.00    +0.000 C 
ATOM      9  C   UNL     1       7.581   8.665  17.777  0.00  0.00    +0.000 C 
BRANCH   9  10
ATOM     10  C   UNL     1       8.387   9.843  18.129  0.00  0.00    +0.000 A 
ATOM     11  C   UNL     1       9.334   9.764  19.148  0.00  0.00    +0.000 A 
ATOM     12  C   UNL     1      10.054  10.906  19.485  0.00  0.00    +0.000 A 
ATOM     13  C   UNL     1       9.811  12.090  18.803  0.00  0.00    +0.000 A 
ATOM     14  C   UNL     1       8.853  12.082  17.805  0.00  0.00    +0.000 A 
ATOM     15  N   UNL     1       8.142  10.988  17.455  0.00  0.00    +0.000 NA
ENDBRANCH   9  10
ENDBRANCH   7   8
ENDBRANCH   2   7
ENDBRANCH   1   3
BRANCH   1  16
ATOM     16  N   UNL     1       2.559   7.729  17.877  0.00  0.00    +0.000 N 
ATOM     17  C   UNL     1       1.801   8.418  18.777  0.00  0.00    +0.000 C 
ATOM     18  O   UNL     1       1.823   8.253  19.982  0.00  0.00    +0.000 OA
ATOM     19  H   UNL     1       2.363   7.915  16.902  0.00  0.00    +0.000 HD
BRANCH  17  20
ATOM     20  O   UNL     1       1.015   9.294  18.107  0.00  0.00    +0.000 OA
BRANCH  20  21
ATOM     21  C   UNL     1       0.179  10.134  18.916  0.00  0.00    +0.000 C 
BRANCH  21  22
ATOM     22  C   UNL     1      -1.142  10.435  18.247  0.00  0.00    +0.000 A 
ATOM     23  C   UNL     1      -1.532   9.737  17.094  0.00  0.00    +0.000 A 
ATOM     24  C   UNL     1      -2.778   9.969  16.505  0.00  0.00    +0.000 A 
ATOM     25  C   UNL     1      -3.650  10.900  17.063  0.00  0.00    +0.000 A 
ATOM     26  C   UNL     1      -3.279  11.595  18.213  0.00  0.00    +0.000 A 
ATOM     27  C   UNL     1      -2.033  11.363  18.805  0.00  0.00    +0.000 A 
ENDBRANCH  21  22
ENDBRANCH  20  21
ENDBRANCH  17  20
ENDBRANCH   1  16
BRANCH   1  28
ATOM     28  C   UNL     1       2.703   5.234  17.901  0.00  0.00    +0.000 C 
BRANCH  28  29
ATOM     29  C   UNL     1       2.441   4.316  19.075  0.00  0.00    +0.000 A 
ATOM     30  C   UNL     1       1.129   4.058  19.499  0.00  0.00    +0.000 A 
ATOM     31  C   UNL     1       0.885   3.187  20.564  0.00  0.00    +0.000 A 
ATOM     32  C   UNL     1       1.947   2.553  21.207  0.00  0.00    +0.000 A 
ATOM     33  C   UNL     1       3.251   2.780  20.777  0.00  0.00    +0.000 A 
ATOM     34  C   UNL     1       3.498   3.653  19.714  0.00  0.00    +0.000 A 
ENDBRANCH  28  29
ENDBRANCH   1  28
TORSDOF 10
ENDMDL
MODEL 8
REMARK VINA RESULT:      -7.9      1.704      8.874
REMARK  Name = 
REMARK  11 active torsions:
REMARK  status: ('A' for Active; 'I' for Inactive)
REMARK    1  A    between atoms: C_1  and  C_2
REMARK    2  A    between atoms: C_2  and  C_3
REMARK    3  A    between atoms: C_2  and  N_11
REMARK    4  A    between atoms: C_4  and  C_5
REMARK    5  A    between atoms: C_12  and  C_14
REMARK    6  A    between atoms: C_14  and  C_15
REMARK    7  A    between atoms: C_14  and  N_22
REMARK    8  A    between atoms: C_15  and  C_16
REMARK    9  A    between atoms: C_23  and  O_25
REMARK   10  A    between atoms: O_25  and  C_26
REMARK   11  A    between atoms: C_26  and  C_27
REMARK                            x       y       z     vdW  Elec       q    Type
REMARK                         _______ _______ _______ _____ _____    ______ ____
ROOT
ATOM      1  C   UNL     1       2.591   6.997  18.240  0.00  0.00    +0.000 C 
ENDROOT
BRANCH   1   3
ATOM      2  N   UNL     1       1.553   9.043  19.191  0.00  0.00    +0.000 N 
ATOM      3  C   UNL     1       2.138   8.469  18.084  0.00  0.00    +0.000 C 
ATOM      4  O   UNL     1       2.397   9.126  17.075  0.00  0.00    +0.000 OA
ATOM      5  H   UNL     1       1.267   8.440  19.951  0.00  0.00    +0.000 HD
BRANCH   2   7
ATOM      6  C   UNL     1       2.200  11.336  18.621  0.00  0.00    +0.000 C 
ATOM      7  C   UNL     1       1.109  10.424  19.181  0.00  0.00    +0.000 C 
BRANCH   7   8
ATOM      8  C   UNL     1      -0.207  10.472  18.454  0.00  0.00    +0.000 C 
ATOM      9  C   UNL     1      -1.118  11.462  18.496  0.00  0.00    +0.000 C 
BRANCH   9  10
ATOM     10  C   UNL     1      -2.437  11.390  17.849  0.00  0.00    +0.000 A 
ATOM     11  C   UNL     1      -3.582  11.754  18.554  0.00  0.00    +0.000 A 
ATOM     12  C   UNL     1      -4.821  11.637  17.929  0.00  0.00    +0.000 A 
ATOM     13  C   UNL     1      -4.883  11.161  16.626  0.00  0.00    +0.000 A 
ATOM     14  C   UNL     1      -3.698  10.821  15.999  0.00  0.00    +0.000 A 
ATOM     15  N   UNL     1      -2.483  10.928  16.580  0.00  0.00    +0.000 NA
ENDBRANCH   9  10
ENDBRANCH   7   8
ENDBRANCH   2   7
ENDBRANCH   1   3
BRANCH   1  16
ATOM     16  N   UNL     1       3.930   6.768  17.689  0.00  0.00    +0.000 N 
ATOM     17  C   UNL     1       4.323   5.580  17.150  0.00  0.00    +0.000 C 
ATOM     18  O   UNL     1       3.592   4.630  16.939  0.00  0.00    +0.000 OA
ATOM     19  H   UNL     1       4.670   7.429  17.887  0.00  0.00    +0.000 HD
BRANCH  17  20
ATOM     20  O   UNL     1       5.655   5.629  16.906  0.00  0.00    +0.000 OA
BRANCH  20  21
ATOM     21  C   UNL     1       6.266   4.396  16.500  0.00  0.00    +0.000 C 
BRANCH  21  22
ATOM     22  C   UNL     1       6.532   4.356  15.013  0.00  0.00    +0.000 A 
ATOM     23  C   UNL     1       5.756   3.543  14.172  0.00  0.00    +0.000 A 
ATOM     24  C   UNL     1       5.958   3.546  12.789  0.00  0.00    +0.000 A 
ATOM     25  C   UNL     1       6.936   4.364  12.230  0.00  0.00    +0.000 A 
ATOM     26  C   UNL     1       7.708   5.183  13.052  0.00  0.00    +0.000 A 
ATOM     27  C   UNL     1       7.506   5.182  14.436  0.00  0.00    +0.000 A 
ENDBRANCH  21  22
ENDBRANCH  20  21
ENDBRANCH  17  20
ENDBRANCH   1  16
BRANCH   1  28
ATOM     28  C   UNL     1       2.507   6.625  19.739  0.00  0.00    +0.000 C 
BRANCH  28  29
ATOM     29  C   UNL     1       2.096   5.200  20.039  0.00  0.00    +0.000 A 
ATOM     30  C   UNL     1       2.392   4.620  21.282  0.00  0.00    +0.000 A 
ATOM     31  C   UNL     1       1.986   3.315  21.571  0.00  0.00    +0.000 A 
ATOM     32  C   UNL     1       1.270   2.580  20.628  0.00  0.00    +0.000 A 
ATOM     33  C   UNL     1       0.946   3.155  19.402  0.00  0.00    +0.000 A 
ATOM     34  C   UNL     1       1.353   4.459  19.110  0.00  0.00    +0.000 A 
ENDBRANCH  28  29
ENDBRANCH   1  28
TORSDOF 10
ENDMDL
MODEL 9
REMARK VINA RESULT:      -7.9      4.129     10.982
REMARK  Name = 
REMARK  11 active torsions:
REMARK  status: ('A' for Active; 'I' for Inactive)
REMARK    1  A    between atoms: C_1  and  C_2
REMARK    2  A    between atoms: C_2  and  C_3
REMARK    3  A    between atoms: C_2  and  N_11
REMARK    4  A    between atoms: C_4  and  C_5
REMARK    5  A    between atoms: C_12  and  C_14
REMARK    6  A    between atoms: C_14  and  C_15
REMARK    7  A    between atoms: C_14  and  N_22
REMARK    8  A    between atoms: C_15  and  C_16
REMARK    9  A    between atoms: C_23  and  O_25
REMARK   10  A    between atoms: O_25  and  C_26
REMARK   11  A    between atoms: C_26  and  C_27
REMARK                            x       y       z     vdW  Elec       q    Type
REMARK                         _______ _______ _______ _____ _____    ______ ____
ROOT
ATOM      1  C   UNL     1       0.326  10.355  18.524  0.00  0.00    +0.000 C 
ENDROOT
BRANCH   1   3
ATOM      2  N   UNL     1      -0.071  12.562  19.594  0.00  0.00    +0.000 N 
ATOM      3  C   UNL     1       0.850  11.738  18.984  0.00  0.00    +0.000 C 
ATOM      4  O   UNL     1       2.043  12.035  18.923  0.00  0.00    +0.000 OA
ATOM      5  H   UNL     1      -1.052  12.322  19.526  0.00  0.00    +0.000 HD
BRANCH   2   7
ATOM      6  C   UNL     1       0.005  14.949  19.050  0.00  0.00    +0.000 C 
ATOM      7  C   UNL     1       0.301  13.872  20.093  0.00  0.00    +0.000 C 
BRANCH   7   8
ATOM      8  C   UNL     1      -0.374  14.060  21.423  0.00  0.00    +0.000 C 
ATOM      9  C   UNL     1      -0.380  15.175  22.177  0.00  0.00    +0.000 C 
BRANCH   9  10
ATOM     10  C   UNL     1      -0.966  15.250  23.524  0.00  0.00    +0.000 A 
ATOM     11  C   UNL     1      -2.268  14.805  23.746  0.00  0.00    +0.000 A 
ATOM     12  C   UNL     1      -2.809  14.925  25.023  0.00  0.00    +0.000 A 
ATOM     13  C   UNL     1      -2.044  15.484  26.037  0.00  0.00    +0.000 A 
ATOM     14  C   UNL     1      -0.761  15.901  25.731  0.00  0.00    +0.000 A 
ATOM     15  N   UNL     1      -0.209  15.793  24.502  0.00  0.00    +0.000 NA
ENDBRANCH   9  10
ENDBRANCH   7   8
ENDBRANCH   2   7
ENDBRANCH   1   3
BRANCH   1  16
ATOM     16  N   UNL     1       1.154   9.255  19.024  0.00  0.00    +0.000 N 
ATOM     17  C   UNL     1       2.111   8.639  18.274  0.00  0.00    +0.000 C 
ATOM     18  O   UNL     1       2.481   9.005  17.173  0.00  0.00    +0.000 OA
ATOM     19  H   UNL     1       0.891   8.781  19.878  0.00  0.00    +0.000 HD
BRANCH  17  20
ATOM     20  O   UNL     1       2.563   7.554  18.946  0.00  0.00    +0.000 OA
BRANCH  20  21
ATOM     21  C   UNL     1       2.573   6.320  18.213  0.00  0.00    +0.000 C 
BRANCH  21  22
ATOM     22  C   UNL     1       2.167   5.145  19.072  0.00  0.00    +0.000 A 
ATOM     23  C   UNL     1       2.397   5.161  20.457  0.00  0.00    +0.000 A 
ATOM     24  C   UNL     1       1.971   4.104  21.265  0.00  0.00    +0.000 A 
ATOM     25  C   UNL     1       1.307   3.019  20.699  0.00  0.00    +0.000 A 
ATOM     26  C   UNL     1       1.063   2.993  19.327  0.00  0.00    +0.000 A 
ATOM     27  C   UNL     1       1.488   4.051  18.517  0.00  0.00    +0.000 A 
ENDBRANCH  21  22
ENDBRANCH  20  21
ENDBRANCH  17  20
ENDBRANCH   1  16
BRANCH   1  28
ATOM     28  C   UNL     1      -1.148  10.226  18.975  0.00  0.00    +0.000 C 
BRANCH  28  29
ATOM     29  C   UNL     1      -2.187  10.535  17.919  0.00  0.00    +0.000 A 
ATOM     30  C   UNL     1      -2.107   9.948  16.648  0.00  0.00    +0.000 A 
ATOM     31  C   UNL     1      -3.082  10.209  15.682  0.00  0.00    +0.000 A 
ATOM     32  C   UNL     1      -4.154  11.049  15.980  0.00  0.00    +0.000 A 
ATOM     33  C   UNL     1      -4.258  11.616  17.247  0.00  0.00    +0.000 A 
ATOM     34  C   UNL     1      -3.283  11.358  18.213  0.00  0.00    +0.000 A 
ENDBRANCH  28  29
ENDBRANCH   1  28
TORSDOF 10
ENDMDL
