MODEL 1
REMARK VINA RESULT:      -9.3      0.000      0.000
REMARK  Name = 
REMARK  5 active torsions:
REMARK  status: ('A' for Active; 'I' for Inactive)
REMARK    1  A    between atoms: C_1  and  C_2
REMARK    2  A    between atoms: C_7  and  C_8
REMARK    3  A    between atoms: N_13  and  C_14
REMARK    4  A    between atoms: C_14  and  C_15
REMARK    5  A    between atoms: C_17  and  C_18
REMARK                            x       y       z     vdW  Elec       q    Type
REMARK                         _______ _______ _______ _____ _____    ______ ____
ROOT
ATOM      1  C   UNL     1       2.815   5.752  19.836  0.00  0.00    +0.000 A 
ATOM      2  C   UNL     1       2.175   4.643  20.390  0.00  0.00    +0.000 A 
ATOM      3  C   UNL     1       2.853   3.438  20.478  0.00  0.00    +0.000 A 
ATOM      4  N   UNL     1       4.085   3.230  19.977  0.00  0.00    +0.000 NA
ATOM      5  C   UNL     1       4.680   4.255  19.345  0.00  0.00    +0.000 A 
ATOM      6  N   UNL     1       5.843   3.928  18.708  0.00  0.00    +0.000 N 
ATOM      7  C   UNL     1       4.095   5.517  19.300  0.00  0.00    +0.000 A 
ATOM      8  H   UNL     1       6.191   3.015  18.966  0.00  0.00    +0.000 HD
ENDROOT
BRANCH   1  15
ATOM      9  C   UNL     1       2.966   7.620  17.366  0.00  0.00    +0.000 C 
ATOM     10  C   UNL     1       2.259   7.972  18.651  0.00  0.00    +0.000 A 
ATOM     11  C   UNL     1       1.616   9.229  18.689  0.00  0.00    +0.000 A 
ATOM     12  C   UNL     1       0.881   9.637  19.798  0.00  0.00    +0.000 A 
ATOM     13  C   UNL     1       0.796   8.805  20.901  0.00  0.00    +0.000 A 
ATOM     14  C   UNL     1       1.458   7.573  20.895  0.00  0.00    +0.000 A 
ATOM     15  C   UNL     1       2.199   7.111  19.778  0.00  0.00    +0.000 A 
ENDBRANCH   1  15
BRANCH   6  16
ATOM     16  C   UNL     1       6.720   4.850  18.015  0.00  0.00    +0.000 C 
BRANCH  16  17
ATOM     17  C   UNL     1       6.762   4.753  16.520  0.00  0.00    +0.000 A 
ATOM     18  C   UNL     1       6.032   3.860  15.704  0.00  0.00    +0.000 A 
ATOM     19  C   UNL     1       6.371   4.171  14.407  0.00  0.00    +0.000 A 
ATOM     20  N   UNL     1       7.280   5.190  14.518  0.00  0.00    +0.000 N 
ATOM     21  N   UNL     1       7.526   5.572  15.784  0.00  0.00    +0.000 NA
ATOM     22  H   UNL     1       7.773   5.664  13.772  0.00  0.00    +0.000 HD
BRANCH  19  23
ATOM     23  C   UNL     1       5.933   3.585  13.138  0.00  0.00    +0.000 A 
ATOM     24  C   UNL     1       4.638   3.793  12.646  0.00  0.00    +0.000 A 
ATOM     25  C   UNL     1       4.235   3.205  11.444  0.00  0.00    +0.000 A 
ATOM     26  C   UNL     1       5.120   2.406  10.723  0.00  0.00    +0.000 A 
ATOM     27  C   UNL     1       6.408   2.193  11.202  0.00  0.00    +0.000 A 
ATOM     28  C   UNL     1       6.813   2.779  12.404  0.00  0.00    +0.000 A 
ENDBRANCH  19  23
ENDBRANCH  16  17
ENDBRANCH   6  16
TORSDOF 4
ENDMDL
MODEL 2
REMARK VINA RESULT:      -9.2      0.989      1.477
REMARK  Name = 
REMARK  5 active torsions:
REMARK  status: ('A' for Active; 'I' for Inactive)
REMARK    1  A    between atoms: C_1  and  C_2
REMARK    2  A    between atoms: C_7  and  C_8
REMARK    3  A    between atoms: N_13  and  C_14
REMARK    4  A    between atoms: C_14  and  C_15
REMARK    5  A    between atoms: C_17  and  C_18
REMARK                            x       y       z     vdW  Elec       q    Type
REMARK                         _______ _______ _______ _____ _____    ______ ____
ROOT
ATOM      1  C   UNL     1       2.343   6.070  19.977  0.00  0.00    +0.000 A 
ATOM      2  C   UNL     1       1.503   4.977  20.192  0.00  0.00    +0.000 A 
ATOM      3  C   UNL     1       2.047   3.708  20.289  0.00  0.00    +0.000 A 
ATOM      4  N   UNL     1       3.351   3.431  20.101  0.00  0.00    +0.000 NA
ATOM      5  C   UNL     1       4.163   4.454  19.789  0.00  0.00    +0.000 A 
ATOM      6  N   UNL     1       5.430   4.083  19.436  0.00  0.00    +0.000 N 
ATOM      7  C   UNL     1       3.701   5.767  19.764  0.00  0.00    +0.000 A 
ATOM      8  H   UNL     1       5.632   3.116  19.650  0.00  0.00    +0.000 HD
ENDROOT
BRANCH   1  15
ATOM      9  C   UNL     1       2.510   7.903  17.482  0.00  0.00    +0.000 C 
ATOM     10  C   UNL     1       1.929   8.329  18.807  0.00  0.00    +0.000 A 
ATOM     11  C   UNL     1       1.416   9.643  18.874  0.00  0.00    +0.000 A 
ATOM     12  C   UNL     1       0.802  10.126  20.025  0.00  0.00    +0.000 A 
ATOM     13  C   UNL     1       0.711   9.312  21.141  0.00  0.00    +0.000 A 
ATOM     14  C   UNL     1       1.247   8.020  21.104  0.00  0.00    +0.000 A 
ATOM     15  C   UNL     1       1.861   7.483  19.945  0.00  0.00    +0.000 A 
ENDBRANCH   1  15
BRANCH   6  16
ATOM     16  C   UNL     1       6.523   4.982  19.124  0.00  0.00    +0.000 C 
BRANCH  16  17
ATOM     17  C   UNL     1       6.830   5.199  17.673  0.00  0.00    +0.000 A 
ATOM     18  C   UNL     1       6.467   4.366  16.592  0.00  0.00    +0.000 A 
ATOM     19  C   UNL     1       6.933   4.991  15.459  0.00  0.00    +0.000 A 
ATOM     20  N   UNL     1       7.557   6.122  15.917  0.00  0.00    +0.000 N 
ATOM     21  N   UNL     1       7.499   6.281  17.252  0.00  0.00    +0.000 NA
ATOM     22  H   UNL     1       8.045   6.824  15.374  0.00  0.00    +0.000 HD
BRANCH  19  23
ATOM     23  C   UNL     1       6.854   4.601  14.050  0.00  0.00    +0.000 A 
ATOM     24  C   UNL     1       7.717   5.149  13.091  0.00  0.00    +0.000 A 
ATOM     25  C   UNL     1       7.607   4.779  11.748  0.00  0.00    +0.000 A 
ATOM     26  C   UNL     1       6.638   3.861  11.350  0.00  0.00    +0.000 A 
ATOM     27  C   UNL     1       5.776   3.311  12.293  0.00  0.00    +0.000 A 
ATOM     28  C   UNL     1       5.884   3.679  13.637  0.00  0.00    +0.000 A 
ENDBRANCH  19  23
ENDBRANCH  16  17
ENDBRANCH   6  16
TORSDOF 4
ENDMDL
MODEL 3
REMARK VINA RESULT:      -9.1      1.053      2.041
REMARK  Name = 
REMARK  5 active torsions:
REMARK  status: ('A' for Active; 'I' for Inactive)
REMARK    1  A    between atoms: C_1  and  C_2
REMARK    2  A    between atoms: C_7  and  C_8
REMARK    3  A    between atoms: N_13  and  C_14
REMARK    4  A    between atoms: C_14  and  C_15
REMARK    5  A    between atoms: C_17  and  C_18
REMARK                            x       y       z     vdW  Elec       q    Type
REMARK                         _______ _______ _______ _____ _____    ______ ____
ROOT
ATOM      1  C   UNL     1       2.436   6.216  19.540  0.00  0.00    +0.000 A 
ATOM      2  C   UNL     1       1.551   5.179  19.839  0.00  0.00    +0.000 A 
ATOM      3  C   UNL     1       2.050   3.928  20.159  0.00  0.00    +0.000 A 
ATOM      4  N   UNL     1       3.357   3.605  20.118  0.00  0.00    +0.000 NA
ATOM      5  C   UNL     1       4.220   4.559  19.732  0.00  0.00    +0.000 A 
ATOM      6  N   UNL     1       5.499   4.120  19.539  0.00  0.00    +0.000 N 
ATOM      7  C   UNL     1       3.798   5.862  19.483  0.00  0.00    +0.000 A 
ATOM      8  H   UNL     1       5.657   3.191  19.904  0.00  0.00    +0.000 HD
ENDROOT
BRANCH   1  15
ATOM      9  C   UNL     1       1.085   8.048  21.644  0.00  0.00    +0.000 C 
ATOM     10  C   UNL     1       1.382   8.465  20.226  0.00  0.00    +0.000 A 
ATOM     11  C   UNL     1       1.032   9.787  19.874  0.00  0.00    +0.000 A 
ATOM     12  C   UNL     1       1.312  10.303  18.613  0.00  0.00    +0.000 A 
ATOM     13  C   UNL     1       1.927   9.497  17.670  0.00  0.00    +0.000 A 
ATOM     14  C   UNL     1       2.247   8.174  17.989  0.00  0.00    +0.000 A 
ATOM     15  C   UNL     1       1.998   7.617  19.269  0.00  0.00    +0.000 A 
ENDBRANCH   1  15
BRANCH   6  16
ATOM     16  C   UNL     1       6.638   4.947  19.193  0.00  0.00    +0.000 C 
BRANCH  16  17
ATOM     17  C   UNL     1       6.881   5.191  17.734  0.00  0.00    +0.000 A 
ATOM     18  C   UNL     1       6.546   4.336  16.661  0.00  0.00    +0.000 A 
ATOM     19  C   UNL     1       6.928   4.998  15.517  0.00  0.00    +0.000 A 
ATOM     20  N   UNL     1       7.480   6.171  15.960  0.00  0.00    +0.000 N 
ATOM     21  N   UNL     1       7.453   6.321  17.297  0.00  0.00    +0.000 NA
ATOM     22  H   UNL     1       7.897   6.908  15.406  0.00  0.00    +0.000 HD
BRANCH  19  23
ATOM     23  C   UNL     1       6.832   4.608  14.109  0.00  0.00    +0.000 A 
ATOM     24  C   UNL     1       7.689   5.148  13.141  0.00  0.00    +0.000 A 
ATOM     25  C   UNL     1       7.564   4.778  11.799  0.00  0.00    +0.000 A 
ATOM     26  C   UNL     1       6.584   3.867  11.412  0.00  0.00    +0.000 A 
ATOM     27  C   UNL     1       5.727   3.324  12.364  0.00  0.00    +0.000 A 
ATOM     28  C   UNL     1       5.851   3.692  13.706  0.00  0.00    +0.000 A 
ENDBRANCH  19  23
ENDBRANCH  16  17
ENDBRANCH   6  16
TORSDOF 4
ENDMDL
MODEL 4
REMARK VINA RESULT:      -9.0      0.596      1.720
REMARK  Name = 
REMARK  5 active torsions:
REMARK  status: ('A' for Active; 'I' for Inactive)
REMARK    1  A    between atoms: C_1  and  C_2
REMARK    2  A    between atoms: C_7  and  C_8
REMARK    3  A    between atoms: N_13  and  C_14
REMARK    4  A    between atoms: C_14  and  C_15
REMARK    5  A    between atoms: C_17  and  C_18
REMARK                            x       y       z     vdW  Elec       q    Type
REMARK                         _______ _______ _______ _____ _____    ______ ____
ROOT
ATOM      1  C   UNL     1       3.226   5.839  19.292  0.00  0.00    +0.000 A 
ATOM      2  C   UNL     1       2.614   4.803  19.997  0.00  0.00    +0.000 A 
ATOM      3  C   UNL     1       3.329   3.649  20.270  0.00  0.00    +0.000 A 
ATOM      4  N   UNL     1       4.576   3.411  19.820  0.00  0.00    +0.000 NA
ATOM      5  C   UNL     1       5.147   4.352  19.049  0.00  0.00    +0.000 A 
ATOM      6  N   UNL     1       6.330   3.974  18.481  0.00  0.00    +0.000 N 
ATOM      7  C   UNL     1       4.522   5.572  18.811  0.00  0.00    +0.000 A 
ATOM      8  H   UNL     1       6.704   3.123  18.875  0.00  0.00    +0.000 HD
ENDROOT
BRANCH   1  15
ATOM      9  C   UNL     1       1.410   7.312  21.328  0.00  0.00    +0.000 C 
ATOM     10  C   UNL     1       1.737   7.837  19.952  0.00  0.00    +0.000 A 
ATOM     11  C   UNL     1       1.184   9.090  19.611  0.00  0.00    +0.000 A 
ATOM     12  C   UNL     1       1.466   9.702  18.393  0.00  0.00    +0.000 A 
ATOM     13  C   UNL     1       2.286   9.059  17.482  0.00  0.00    +0.000 A 
ATOM     14  C   UNL     1       2.811   7.800  17.788  0.00  0.00    +0.000 A 
ATOM     15  C   UNL     1       2.567   7.153  19.026  0.00  0.00    +0.000 A 
ENDBRANCH   1  15
BRANCH   6  16
ATOM     16  C   UNL     1       7.187   4.814  17.668  0.00  0.00    +0.000 C 
BRANCH  16  17
ATOM     17  C   UNL     1       7.019   4.719  16.182  0.00  0.00    +0.000 A 
ATOM     18  C   UNL     1       6.264   3.760  15.470  0.00  0.00    +0.000 A 
ATOM     19  C   UNL     1       6.378   4.099  14.142  0.00  0.00    +0.000 A 
ATOM     20  N   UNL     1       7.196   5.199  14.131  0.00  0.00    +0.000 N 
ATOM     21  N   UNL     1       7.588   5.605  15.353  0.00  0.00    +0.000 NA
ATOM     22  H   UNL     1       7.528   5.716  13.327  0.00  0.00    +0.000 HD
BRANCH  19  23
ATOM     23  C   UNL     1       5.815   3.474  12.943  0.00  0.00    +0.000 A 
ATOM     24  C   UNL     1       6.492   2.451  12.266  0.00  0.00    +0.000 A 
ATOM     25  C   UNL     1       5.947   1.884  11.111  0.00  0.00    +0.000 A 
ATOM     26  C   UNL     1       4.722   2.334  10.622  0.00  0.00    +0.000 A 
ATOM     27  C   UNL     1       4.041   3.350  11.284  0.00  0.00    +0.000 A 
ATOM     28  C   UNL     1       4.585   3.917  12.440  0.00  0.00    +0.000 A 
ENDBRANCH  19  23
ENDBRANCH  16  17
ENDBRANCH   6  16
TORSDOF 4
ENDMDL
MODEL 5
REMARK VINA RESULT:      -9.0      3.668      5.872
REMARK  Name = 
REMARK  5 active torsions:
REMARK  status: ('A' for Active; 'I' for Inactive)
REMARK    1  A    between atoms: C_1  and  C_2
REMARK    2  A    between atoms: C_7  and  C_8
REMARK    3  A    between atoms: N_13  and  C_14
REMARK    4  A    between atoms: C_14  and  C_15
REMARK    5  A    between atoms: C_17  and  C_18
REMARK                            x       y       z     vdW  Elec       q    Type
REMARK                         _______ _______ _______ _____ _____    ______ ____
ROOT
ATOM      1  C   UNL     1       3.062   5.464  18.565  0.00  0.00    +0.000 A 
ATOM      2  C   UNL     1       2.370   4.600  17.715  0.00  0.00    +0.000 A 
ATOM      3  C   UNL     1       3.049   3.565  17.095  0.00  0.00    +0.000 A 
ATOM      4  N   UNL     1       4.380   3.377  17.186  0.00  0.00    +0.000 NA
ATOM      5  C   UNL     1       5.083   4.259  17.915  0.00  0.00    +0.000 A 
ATOM      6  N   UNL     1       6.438   4.117  17.820  0.00  0.00    +0.000 N 
ATOM      7  C   UNL     1       4.454   5.269  18.638  0.00  0.00    +0.000 A 
ATOM      8  H   UNL     1       6.715   3.252  17.377  0.00  0.00    +0.000 HD
ENDROOT
BRANCH   1  15
ATOM      9  C   UNL     1       2.717   8.368  17.534  0.00  0.00    +0.000 C 
ATOM     10  C   UNL     1       2.234   7.885  18.879  0.00  0.00    +0.000 A 
ATOM     11  C   UNL     1       1.567   8.834  19.684  0.00  0.00    +0.000 A 
ATOM     12  C   UNL     1       1.025   8.488  20.918  0.00  0.00    +0.000 A 
ATOM     13  C   UNL     1       1.162   7.191  21.382  0.00  0.00    +0.000 A 
ATOM     14  C   UNL     1       1.852   6.248  20.614  0.00  0.00    +0.000 A 
ATOM     15  C   UNL     1       2.400   6.554  19.343  0.00  0.00    +0.000 A 
ENDBRANCH   1  15
BRANCH   6  16
ATOM     16  C   UNL     1       7.426   4.885  18.553  0.00  0.00    +0.000 C 
BRANCH  16  17
ATOM     17  C   UNL     1       7.613   6.315  18.145  0.00  0.00    +0.000 A 
ATOM     18  C   UNL     1       8.202   7.347  18.908  0.00  0.00    +0.000 A 
ATOM     19  C   UNL     1       8.184   8.465  18.107  0.00  0.00    +0.000 A 
ATOM     20  N   UNL     1       7.578   8.056  16.948  0.00  0.00    +0.000 N 
ATOM     21  N   UNL     1       7.233   6.755  16.937  0.00  0.00    +0.000 NA
ATOM     22  H   UNL     1       7.365   8.613  16.130  0.00  0.00    +0.000 HD
BRANCH  19  23
ATOM     23  C   UNL     1       8.656   9.829  18.357  0.00  0.00    +0.000 A 
ATOM     24  C   UNL     1       8.297  10.893  17.519  0.00  0.00    +0.000 A 
ATOM     25  C   UNL     1       8.778  12.181  17.764  0.00  0.00    +0.000 A 
ATOM     26  C   UNL     1       9.622  12.420  18.847  0.00  0.00    +0.000 A 
ATOM     27  C   UNL     1       9.986  11.372  19.686  0.00  0.00    +0.000 A 
ATOM     28  C   UNL     1       9.506  10.083  19.442  0.00  0.00    +0.000 A 
ENDBRANCH  19  23
ENDBRANCH  16  17
ENDBRANCH   6  16
TORSDOF 4
ENDMDL
MODEL 6
REMARK VINA RESULT:      -9.0      3.858      6.213
REMARK  Name = 
REMARK  5 active torsions:
REMARK  status: ('A' for Active; 'I' for Inactive)
REMARK    1  A    between atoms: C_1  and  C_2
REMARK    2  A    between atoms: C_7  and  C_8
REMARK    3  A    between atoms: N_13  and  C_14
REMARK    4  A    between atoms: C_14  and  C_15
REMARK    5  A    between atoms: C_17  and  C_18
REMARK                            x       y       z     vdW  Elec       q    Type
REMARK                         _______ _______ _______ _____ _____    ______ ____
ROOT
ATOM      1  C   UNL     1       3.279   5.389  18.431  0.00  0.00    +0.000 A 
ATOM      2  C   UNL     1       2.705   4.503  17.519  0.00  0.00    +0.000 A 
ATOM      3  C   UNL     1       3.496   3.545  16.909  0.00  0.00    +0.000 A 
ATOM      4  N   UNL     1       4.831   3.456  17.070  0.00  0.00    +0.000 NA
ATOM      5  C   UNL     1       5.421   4.366  17.863  0.00  0.00    +0.000 A 
ATOM      6  N   UNL     1       6.786   4.332  17.840  0.00  0.00    +0.000 N 
ATOM      7  C   UNL     1       4.676   5.299  18.577  0.00  0.00    +0.000 A 
ATOM      8  H   UNL     1       7.154   3.507  17.388  0.00  0.00    +0.000 HD
ENDROOT
BRANCH   1  15
ATOM      9  C   UNL     1       1.930   4.816  21.163  0.00  0.00    +0.000 C 
ATOM     10  C   UNL     1       1.875   6.147  20.455  0.00  0.00    +0.000 A 
ATOM     11  C   UNL     1       1.177   7.181  21.117  0.00  0.00    +0.000 A 
ATOM     12  C   UNL     1       1.111   8.467  20.589  0.00  0.00    +0.000 A 
ATOM     13  C   UNL     1       1.721   8.737  19.376  0.00  0.00    +0.000 A 
ATOM     14  C   UNL     1       2.384   7.715  18.690  0.00  0.00    +0.000 A 
ATOM     15  C   UNL     1       2.493   6.398  19.202  0.00  0.00    +0.000 A 
ENDBRANCH   1  15
BRANCH   6  16
ATOM     16  C   UNL     1       7.669   5.149  18.649  0.00  0.00    +0.000 C 
BRANCH  16  17
ATOM     17  C   UNL     1       7.809   6.589  18.259  0.00  0.00    +0.000 A 
ATOM     18  C   UNL     1       8.434   7.615  19.002  0.00  0.00    +0.000 A 
ATOM     19  C   UNL     1       8.347   8.749  18.227  0.00  0.00    +0.000 A 
ATOM     20  N   UNL     1       7.668   8.353  17.104  0.00  0.00    +0.000 N 
ATOM     21  N   UNL     1       7.342   7.048  17.090  0.00  0.00    +0.000 NA
ATOM     22  H   UNL     1       7.392   8.923  16.314  0.00  0.00    +0.000 HD
BRANCH  19  23
ATOM     23  C   UNL     1       8.816  10.114  18.473  0.00  0.00    +0.000 A 
ATOM     24  C   UNL     1       8.502  11.164  17.600  0.00  0.00    +0.000 A 
ATOM     25  C   UNL     1       8.980  12.454  17.842  0.00  0.00    +0.000 A 
ATOM     26  C   UNL     1       9.776  12.708  18.958  0.00  0.00    +0.000 A 
ATOM     27  C   UNL     1      10.095  11.674  19.831  0.00  0.00    +0.000 A 
ATOM     28  C   UNL     1       9.617  10.383  19.590  0.00  0.00    +0.000 A 
ENDBRANCH  19  23
ENDBRANCH  16  17
ENDBRANCH   6  16
TORSDOF 4
ENDMDL
MODEL 7
REMARK VINA RESULT:      -8.9      3.965      6.229
REMARK  Name = 
REMARK  5 active torsions:
REMARK  status: ('A' for Active; 'I' for Inactive)
REMARK    1  A    between atoms: C_1  and  C_2
REMARK    2  A    between atoms: C_7  and  C_8
REMARK    3  A    between atoms: N_13  and  C_14
REMARK    4  A    between atoms: C_14  and  C_15
REMARK    5  A    between atoms: C_17  and  C_18
REMARK                            x       y       z     vdW  Elec       q    Type
REMARK                         _______ _______ _______ _____ _____    ______ ____
ROOT
ATOM      1  C   UNL     1       2.783   6.220  19.416  0.00  0.00    +0.000 A 
ATOM      2  C   UNL     1       2.432   4.922  19.791  0.00  0.00    +0.000 A 
ATOM      3  C   UNL     1       3.264   3.867  19.454  0.00  0.00    +0.000 A 
ATOM      4  N   UNL     1       4.371   3.993  18.697  0.00  0.00    +0.000 NA
ATOM      5  C   UNL     1       4.672   5.218  18.237  0.00  0.00    +0.000 A 
ATOM      6  N   UNL     1       5.697   5.246  17.334  0.00  0.00    +0.000 N 
ATOM      7  C   UNL     1       3.932   6.336  18.610  0.00  0.00    +0.000 A 
ATOM      8  H   UNL     1       6.209   4.377  17.292  0.00  0.00    +0.000 HD
ENDROOT
BRANCH   1  15
ATOM      9  C   UNL     1       2.244   8.623  17.532  0.00  0.00    +0.000 C 
ATOM     10  C   UNL     1       1.742   8.531  18.950  0.00  0.00    +0.000 A 
ATOM     11  C   UNL     1       0.961   9.614  19.410  0.00  0.00    +0.000 A 
ATOM     12  C   UNL     1       0.393   9.613  20.680  0.00  0.00    +0.000 A 
ATOM     13  C   UNL     1       0.616   8.540  21.525  0.00  0.00    +0.000 A 
ATOM     14  C   UNL     1       1.418   7.476  21.100  0.00  0.00    +0.000 A 
ATOM     15  C   UNL     1       1.997   7.428  19.807  0.00  0.00    +0.000 A 
ENDBRANCH   1  15
BRANCH   6  16
ATOM     16  C   UNL     1       6.270   6.436  16.737  0.00  0.00    +0.000 C 
BRANCH  16  17
ATOM     17  C   UNL     1       7.245   7.212  17.570  0.00  0.00    +0.000 A 
ATOM     18  C   UNL     1       7.566   8.582  17.450  0.00  0.00    +0.000 A 
ATOM     19  C   UNL     1       8.474   8.846  18.449  0.00  0.00    +0.000 A 
ATOM     20  N   UNL     1       8.660   7.643  19.079  0.00  0.00    +0.000 N 
ATOM     21  N   UNL     1       7.919   6.638  18.577  0.00  0.00    +0.000 NA
ATOM     22  H   UNL     1       9.281   7.438  19.852  0.00  0.00    +0.000 HD
BRANCH  19  23
ATOM     23  C   UNL     1       9.159  10.087  18.815  0.00  0.00    +0.000 A 
ATOM     24  C   UNL     1       9.693  10.942  17.842  0.00  0.00    +0.000 A 
ATOM     25  C   UNL     1      10.363  12.110  18.215  0.00  0.00    +0.000 A 
ATOM     26  C   UNL     1      10.506  12.435  19.562  0.00  0.00    +0.000 A 
ATOM     27  C   UNL     1       9.981  11.594  20.538  0.00  0.00    +0.000 A 
ATOM     28  C   UNL     1       9.311  10.426  20.166  0.00  0.00    +0.000 A 
ENDBRANCH  19  23
ENDBRANCH  16  17
ENDBRANCH   6  16
TORSDOF 4
ENDMDL
MODEL 8
REMARK VINA RESULT:      -8.8      5.517      8.079
REMARK  Name = 
REMARK  5 active torsions:
REMARK  status: ('A' for Active; 'I' for Inactive)
REMARK    1  A    between atoms: C_1  and  C_2
REMARK    2  A    between atoms: C_7  and  C_8
REMARK    3  A    between atoms: N_13  and  C_14
REMARK    4  A    between atoms: C_14  and  C_15
REMARK    5  A    between atoms: C_17  and  C_18
REMARK                            x       y       z     vdW  Elec       q    Type
REMARK                         _______ _______ _______ _____ _____    ______ ____
ROOT
ATOM      1  C   UNL     1       5.095   4.755  16.500  0.00  0.00    +0.000 A 
ATOM      2  C   UNL     1       5.513   4.297  15.250  0.00  0.00    +0.000 A 
ATOM      3  C   UNL     1       6.704   4.760  14.717  0.00  0.00    +0.000 A 
ATOM      4  N   UNL     1       7.468   5.708  15.293  0.00  0.00    +0.000 NA
ATOM      5  C   UNL     1       7.033   6.240  16.447  0.00  0.00    +0.000 A 
ATOM      6  N   UNL     1       7.755   7.315  16.881  0.00  0.00    +0.000 N 
ATOM      7  C   UNL     1       5.892   5.759  17.083  0.00  0.00    +0.000 A 
ATOM      8  H   UNL     1       8.625   7.434  16.383  0.00  0.00    +0.000 HD
ENDROOT
BRANCH   1  15
ATOM      9  C   UNL     1       2.969   6.587  17.818  0.00  0.00    +0.000 C 
ATOM     10  C   UNL     1       2.891   5.081  17.796  0.00  0.00    +0.000 A 
ATOM     11  C   UNL     1       1.755   4.502  18.402  0.00  0.00    +0.000 A 
ATOM     12  C   UNL     1       1.544   3.127  18.389  0.00  0.00    +0.000 A 
ATOM     13  C   UNL     1       2.482   2.301  17.792  0.00  0.00    +0.000 A 
ATOM     14  C   UNL     1       3.632   2.854  17.221  0.00  0.00    +0.000 A 
ATOM     15  C   UNL     1       3.873   4.251  17.193  0.00  0.00    +0.000 A 
ENDBRANCH   1  15
BRANCH   6  16
ATOM     16  C   UNL     1       7.548   8.030  18.125  0.00  0.00    +0.000 C 
BRANCH  16  17
ATOM     17  C   UNL     1       8.414   9.229  18.370  0.00  0.00    +0.000 A 
ATOM     18  C   UNL     1       8.579  10.348  17.525  0.00  0.00    +0.000 A 
ATOM     19  C   UNL     1       9.434  11.198  18.186  0.00  0.00    +0.000 A 
ATOM     20  N   UNL     1       9.746  10.545  19.349  0.00  0.00    +0.000 N 
ATOM     21  N   UNL     1       9.133   9.357  19.495  0.00  0.00    +0.000 NA
ATOM     22  H   UNL     1      10.373  10.852  20.083  0.00  0.00    +0.000 HD
BRANCH  19  23
ATOM     23  C   UNL     1       9.967  12.507  17.802  0.00  0.00    +0.000 A 
ATOM     24  C   UNL     1      11.180  12.629  17.112  0.00  0.00    +0.000 A 
ATOM     25  C   UNL     1      11.681  13.890  16.777  0.00  0.00    +0.000 A 
ATOM     26  C   UNL     1      10.975  15.039  17.127  0.00  0.00    +0.000 A 
ATOM     27  C   UNL     1       9.770  14.931  17.812  0.00  0.00    +0.000 A 
ATOM     28  C   UNL     1       9.268  13.671  18.148  0.00  0.00    +0.000 A 
ENDBRANCH  19  23
ENDBRANCH  16  17
ENDBRANCH   6  16
TORSDOF 4
ENDMDL
MODEL 9
REMARK VINA RESULT:      -8.7      4.731      7.537
REMARK  Name = 
REMARK  5 active torsions:
REMARK  status: ('A' for Active; 'I' for Inactive)
REMARK    1  A    between atoms: C_1  and  C_2
REMARK    2  A    between atoms: C_7  and  C_8
REMARK    3  A    between atoms: N_13  and  C_14
REMARK    4  A    between atoms: C_14  and  C_15
REMARK    5  A    between atoms: C_17  and  C_18
REMARK                            x       y       z     vdW  Elec       q    Type
REMARK                         _______ _______ _______ _____ _____    ______ ____
ROOT
ATOM      1  C   UNL     1       4.388   3.857  18.041  0.00  0.00    +0.000 A 
ATOM      2  C   UNL     1       4.305   3.281  16.772  0.00  0.00    +0.000 A 
ATOM      3  C   UNL     1       5.356   3.434  15.884  0.00  0.00    +0.000 A 
ATOM      4  N   UNL     1       6.444   4.189  16.127  0.00  0.00    +0.000 NA
ATOM      5  C   UNL     1       6.498   4.839  17.302  0.00  0.00    +0.000 A 
ATOM      6  N   UNL     1       7.533   5.723  17.411  0.00  0.00    +0.000 N 
ATOM      7  C   UNL     1       5.521   4.658  18.277  0.00  0.00    +0.000 A 
ATOM      8  H   UNL     1       8.221   5.619  16.678  0.00  0.00    +0.000 HD
ENDROOT
BRANCH   1  15
ATOM      9  C   UNL     1       1.491   4.941  17.823  0.00  0.00    +0.000 C 
ATOM     10  C   UNL     1       2.017   4.164  19.003  0.00  0.00    +0.000 A 
ATOM     11  C   UNL     1       1.100   3.911  20.047  0.00  0.00    +0.000 A 
ATOM     12  C   UNL     1       1.453   3.152  21.158  0.00  0.00    +0.000 A 
ATOM     13  C   UNL     1       2.741   2.653  21.259  0.00  0.00    +0.000 A 
ATOM     14  C   UNL     1       3.672   2.925  20.253  0.00  0.00    +0.000 A 
ATOM     15  C   UNL     1       3.346   3.675  19.095  0.00  0.00    +0.000 A 
ENDBRANCH   1  15
BRANCH   6  16
ATOM     16  C   UNL     1       7.867   6.499  18.589  0.00  0.00    +0.000 C 
BRANCH  16  17
ATOM     17  C   UNL     1       8.137   7.959  18.386  0.00  0.00    +0.000 A 
ATOM     18  C   UNL     1       8.996   8.780  19.150  0.00  0.00    +0.000 A 
ATOM     19  C   UNL     1       8.947  10.024  18.566  0.00  0.00    +0.000 A 
ATOM     20  N   UNL     1       8.064   9.889  17.528  0.00  0.00    +0.000 N 
ATOM     21  N   UNL     1       7.568   8.646  17.386  0.00  0.00    +0.000 NA
ATOM     22  H   UNL     1       7.752  10.603  16.882  0.00  0.00    +0.000 HD
BRANCH  19  23
ATOM     23  C   UNL     1       9.624  11.274  18.919  0.00  0.00    +0.000 A 
ATOM     24  C   UNL     1      10.146  12.125  17.936  0.00  0.00    +0.000 A 
ATOM     25  C   UNL     1      10.809  13.301  18.296  0.00  0.00    +0.000 A 
ATOM     26  C   UNL     1      10.958  13.637  19.640  0.00  0.00    +0.000 A 
ATOM     27  C   UNL     1      10.445  12.800  20.625  0.00  0.00    +0.000 A 
ATOM     28  C   UNL     1       9.782  11.624  20.266  0.00  0.00    +0.000 A 
ENDBRANCH  19  23
ENDBRANCH  16  17
ENDBRANCH   6  16
TORSDOF 4
ENDMDL
