MODEL 1
REMARK VINA RESULT:      -8.1      0.000      0.000
REMARK  Name = 
REMARK  5 active torsions:
REMARK  status: ('A' for Active; 'I' for Inactive)
REMARK    1  A    between atoms: C_2  and  C_3
REMARK    2  A    between atoms: C_3  and  N_4
REMARK    3  A    between atoms: C_11  and  N_12
REMARK    4  A    between atoms: C_13  and  C_15
REMARK    5  A    between atoms: N_22  and  C_23
REMARK                            x       y       z     vdW  Elec       q    Type
REMARK                         _______ _______ _______ _____ _____    ______ ____
ROOT
ATOM      1  N   UNL     1       3.756   4.520  17.637  0.00  0.00    +0.000 NA
ATOM      2  C   UNL     1       4.461   4.089  18.855  0.00  0.00    +0.000 C 
ATOM      3  C   UNL     1       4.588   2.570  19.021  0.00  0.00    +0.000 C 
ATOM      4  C   UNL     1       3.420   1.718  18.544  0.00  0.00    +0.000 C 
ATOM      5  C   UNL     1       2.376   2.405  17.673  0.00  0.00    +0.000 C 
ATOM      6  C   UNL     1       2.404   3.939  17.660  0.00  0.00    +0.000 C 
ATOM      7  C   UNL     1       1.580   4.564  18.791  0.00  0.00    +0.000 C 
ATOM      8  C   UNL     1       2.309   4.847  20.113  0.00  0.00    +0.000 C 
ATOM      9  C   UNL     1       3.840   4.811  20.055  0.00  0.00    +0.000 C 
ENDROOT
BRANCH   8  10
ATOM     10  N   UNL     1       1.871   6.171  20.586  0.00  0.00    +0.000 N 
ATOM     11  C   UNL     1       2.022   7.337  19.872  0.00  0.00    +0.000 C 
ATOM     12  O   UNL     1       2.598   7.411  18.798  0.00  0.00    +0.000 OA
ATOM     13  H   UNL     1       1.130   6.163  21.275  0.00  0.00    +0.000 HD
BRANCH  11  14
ATOM     14  C   UNL     1       1.359   8.533  20.475  0.00  0.00    +0.000 A 
ATOM     15  C   UNL     1       1.116   8.610  21.853  0.00  0.00    +0.000 A 
ATOM     16  C   UNL     1       0.441   9.719  22.385  0.00  0.00    +0.000 A 
ATOM     17  C   UNL     1       0.030  10.749  21.545  0.00  0.00    +0.000 A 
ATOM     18  C   UNL     1       0.293  10.689  20.179  0.00  0.00    +0.000 A 
ATOM     19  C   UNL     1       0.961   9.583  19.643  0.00  0.00    +0.000 A 
ENDBRANCH  11  14
ENDBRANCH   8  10
BRANCH   1  20
ATOM     20  C   UNL     1       4.475   4.163  16.383  0.00  0.00    +0.000 C 
BRANCH  20  22
ATOM     21  O   UNL     1       6.844   3.950  15.937  0.00  0.00    +0.000 OA
ATOM     22  C   UNL     1       5.934   4.641  16.382  0.00  0.00    +0.000 C 
ATOM     23  N   UNL     1       6.103   5.921  16.880  0.00  0.00    +0.000 N 
ATOM     24  H   UNL     1       5.283   6.327  17.300  0.00  0.00    +0.000 HD
BRANCH  23  25
ATOM     25  C   UNL     1       7.385   6.496  17.103  0.00  0.00    +0.000 C 
ATOM     26  C   UNL     1       7.501   7.925  17.555  0.00  0.00    +0.000 C 
ATOM     27  C   UNL     1       7.868   6.816  18.494  0.00  0.00    +0.000 C 
ENDBRANCH  23  25
ENDBRANCH  20  22
ENDBRANCH   1  20
TORSDOF 5
ENDMDL
MODEL 2
REMARK VINA RESULT:      -7.9      2.078      2.902
REMARK  Name = 
REMARK  5 active torsions:
REMARK  status: ('A' for Active; 'I' for Inactive)
REMARK    1  A    between atoms: C_2  and  C_3
REMARK    2  A    between atoms: C_3  and  N_4
REMARK    3  A    between atoms: C_11  and  N_12
REMARK    4  A    between atoms: C_13  and  C_15
REMARK    5  A    between atoms: N_22  and  C_23
REMARK                            x       y       z     vdW  Elec       q    Type
REMARK                         _______ _______ _______ _____ _____    ______ ____
ROOT
ATOM      1  N   UNL     1       4.493   4.444  17.458  0.00  0.00    +0.000 NA
ATOM      2  C   UNL     1       4.814   4.381  18.893  0.00  0.00    +0.000 C 
ATOM      3  C   UNL     1       4.706   2.985  19.517  0.00  0.00    +0.000 C 
ATOM      4  C   UNL     1       3.596   2.078  19.003  0.00  0.00    +0.000 C 
ATOM      5  C   UNL     1       2.894   2.506  17.720  0.00  0.00    +0.000 C 
ATOM      6  C   UNL     1       3.116   3.958  17.275  0.00  0.00    +0.000 C 
ATOM      7  C   UNL     1       2.121   4.937  17.908  0.00  0.00    +0.000 C 
ATOM      8  C   UNL     1       2.529   5.584  19.240  0.00  0.00    +0.000 C 
ATOM      9  C   UNL     1       4.009   5.466  19.617  0.00  0.00    +0.000 C 
ENDROOT
BRANCH   8  10
ATOM     10  N   UNL     1       2.156   7.007  19.174  0.00  0.00    +0.000 N 
ATOM     11  C   UNL     1       1.503   7.684  20.178  0.00  0.00    +0.000 C 
ATOM     12  O   UNL     1       1.100   7.160  21.206  0.00  0.00    +0.000 OA
ATOM     13  H   UNL     1       2.708   7.572  18.542  0.00  0.00    +0.000 HD
BRANCH  11  14
ATOM     14  C   UNL     1       1.373   9.156  19.962  0.00  0.00    +0.000 A 
ATOM     15  C   UNL     1       1.006  10.013  21.008  0.00  0.00    +0.000 A 
ATOM     16  C   UNL     1       0.836  11.385  20.765  0.00  0.00    +0.000 A 
ATOM     17  C   UNL     1       1.052  11.894  19.488  0.00  0.00    +0.000 A 
ATOM     18  C   UNL     1       1.444  11.050  18.452  0.00  0.00    +0.000 A 
ATOM     19  C   UNL     1       1.608   9.682  18.689  0.00  0.00    +0.000 A 
ENDBRANCH  11  14
ENDBRANCH   8  10
BRANCH   1  20
ATOM     20  C   UNL     1       5.450   3.685  16.607  0.00  0.00    +0.000 C 
BRANCH  20  22
ATOM     21  O   UNL     1       5.392   5.490  14.997  0.00  0.00    +0.000 OA
ATOM     22  C   UNL     1       5.622   4.305  15.214  0.00  0.00    +0.000 C 
ATOM     23  N   UNL     1       6.097   3.420  14.262  0.00  0.00    +0.000 N 
ATOM     24  H   UNL     1       6.146   2.459  14.559  0.00  0.00    +0.000 HD
BRANCH  23  25
ATOM     25  C   UNL     1       6.188   3.751  12.882  0.00  0.00    +0.000 C 
ATOM     26  C   UNL     1       6.451   2.676  11.864  0.00  0.00    +0.000 C 
ATOM     27  C   UNL     1       5.112   3.346  11.907  0.00  0.00    +0.000 C 
ENDBRANCH  23  25
ENDBRANCH  20  22
ENDBRANCH   1  20
TORSDOF 5
ENDMDL
MODEL 3
REMARK VINA RESULT:      -7.9      1.893      2.881
REMARK  Name = 
REMARK  5 active torsions:
REMARK  status: ('A' for Active; 'I' for Inactive)
REMARK    1  A    between atoms: C_2  and  C_3
REMARK    2  A    between atoms: C_3  and  N_4
REMARK    3  A    between atoms: C_11  and  N_12
REMARK    4  A    between atoms: C_13  and  C_15
REMARK    5  A    between atoms: N_22  and  C_23
REMARK                            x       y       z     vdW  Elec       q    Type
REMARK                         _______ _______ _______ _____ _____    ______ ____
ROOT
ATOM      1  N   UNL     1       4.411   4.306  17.683  0.00  0.00    +0.000 NA
ATOM      2  C   UNL     1       4.586   3.958  19.103  0.00  0.00    +0.000 C 
ATOM      3  C   UNL     1       4.441   2.466  19.423  0.00  0.00    +0.000 C 
ATOM      4  C   UNL     1       3.406   1.682  18.627  0.00  0.00    +0.000 C 
ATOM      5  C   UNL     1       2.831   2.358  17.389  0.00  0.00    +0.000 C 
ATOM      6  C   UNL     1       3.069   3.869  17.266  0.00  0.00    +0.000 C 
ATOM      7  C   UNL     1       1.997   4.704  17.974  0.00  0.00    +0.000 C 
ATOM      8  C   UNL     1       2.255   5.072  19.443  0.00  0.00    +0.000 C 
ATOM      9  C   UNL     1       3.692   4.879  19.940  0.00  0.00    +0.000 C 
ENDROOT
BRANCH   8  10
ATOM     10  N   UNL     1       1.864   6.481  19.622  0.00  0.00    +0.000 N 
ATOM     11  C   UNL     1       2.352   7.522  18.868  0.00  0.00    +0.000 C 
ATOM     12  O   UNL     1       3.216   7.400  18.011  0.00  0.00    +0.000 OA
ATOM     13  H   UNL     1       0.962   6.630  20.056  0.00  0.00    +0.000 HD
BRANCH  11  14
ATOM     14  C   UNL     1       1.695   8.840  19.116  0.00  0.00    +0.000 A 
ATOM     15  C   UNL     1       1.726   9.858  18.153  0.00  0.00    +0.000 A 
ATOM     16  C   UNL     1       1.148  11.107  18.434  0.00  0.00    +0.000 A 
ATOM     17  C   UNL     1       0.528  11.324  19.660  0.00  0.00    +0.000 A 
ATOM     18  C   UNL     1       0.471  10.305  20.609  0.00  0.00    +0.000 A 
ATOM     19  C   UNL     1       1.051   9.062  20.336  0.00  0.00    +0.000 A 
ENDBRANCH  11  14
ENDBRANCH   8  10
BRANCH   1  20
ATOM     20  C   UNL     1       5.464   3.730  16.802  0.00  0.00    +0.000 C 
BRANCH  20  22
ATOM     21  O   UNL     1       5.345   5.630  15.310  0.00  0.00    +0.000 OA
ATOM     22  C   UNL     1       5.538   4.426  15.436  0.00  0.00    +0.000 C 
ATOM     23  N   UNL     1       5.883   3.582  14.396  0.00  0.00    +0.000 N 
ATOM     24  H   UNL     1       5.914   2.604  14.631  0.00  0.00    +0.000 HD
BRANCH  23  25
ATOM     25  C   UNL     1       5.864   3.993  13.034  0.00  0.00    +0.000 C 
ATOM     26  C   UNL     1       6.749   3.309  12.028  0.00  0.00    +0.000 C 
ATOM     27  C   UNL     1       5.264   3.120  11.961  0.00  0.00    +0.000 C 
ENDBRANCH  23  25
ENDBRANCH  20  22
ENDBRANCH   1  20
TORSDOF 5
ENDMDL
MODEL 4
REMARK VINA RESULT:      -7.8      0.797      1.358
REMARK  Name = 
REMARK  5 active torsions:
REMARK  status: ('A' for Active; 'I' for Inactive)
REMARK    1  A    between atoms: C_2  and  C_3
REMARK    2  A    between atoms: C_3  and  N_4
REMARK    3  A    between atoms: C_11  and  N_12
REMARK    4  A    between atoms: C_13  and  C_15
REMARK    5  A    between atoms: N_22  and  C_23
REMARK                            x       y       z     vdW  Elec       q    Type
REMARK                         _______ _______ _______ _____ _____    ______ ____
ROOT
ATOM      1  N   UNL     1       4.231   4.448  17.532  0.00  0.00    +0.000 NA
ATOM      2  C   UNL     1       4.595   4.145  18.925  0.00  0.00    +0.000 C 
ATOM      3  C   UNL     1       4.521   2.660  19.302  0.00  0.00    +0.000 C 
ATOM      4  C   UNL     1       3.407   1.837  18.669  0.00  0.00    +0.000 C 
ATOM      5  C   UNL     1       2.664   2.467  17.498  0.00  0.00    +0.000 C 
ATOM      6  C   UNL     1       2.855   3.977  17.304  0.00  0.00    +0.000 C 
ATOM      7  C   UNL     1       1.867   4.816  18.123  0.00  0.00    +0.000 C 
ATOM      8  C   UNL     1       2.306   5.231  19.535  0.00  0.00    +0.000 C 
ATOM      9  C   UNL     1       3.798   5.075  19.847  0.00  0.00    +0.000 C 
ENDROOT
BRANCH   8  10
ATOM     10  N   UNL     1       1.914   6.638  19.725  0.00  0.00    +0.000 N 
ATOM     11  C   UNL     1       2.258   7.660  18.872  0.00  0.00    +0.000 C 
ATOM     12  O   UNL     1       2.986   7.523  17.900  0.00  0.00    +0.000 OA
ATOM     13  H   UNL     1       1.084   6.786  20.285  0.00  0.00    +0.000 HD
BRANCH  11  14
ATOM     14  C   UNL     1       1.615   8.974  19.173  0.00  0.00    +0.000 A 
ATOM     15  C   UNL     1       1.712  10.050  18.281  0.00  0.00    +0.000 A 
ATOM     16  C   UNL     1       1.145  11.291  18.614  0.00  0.00    +0.000 A 
ATOM     17  C   UNL     1       0.472  11.444  19.822  0.00  0.00    +0.000 A 
ATOM     18  C   UNL     1       0.350  10.369  20.699  0.00  0.00    +0.000 A 
ATOM     19  C   UNL     1       0.918   9.133  20.374  0.00  0.00    +0.000 A 
ENDBRANCH  11  14
ENDBRANCH   8  10
BRANCH   1  20
ATOM     20  C   UNL     1       5.172   3.862  16.537  0.00  0.00    +0.000 C 
BRANCH  20  22
ATOM     21  O   UNL     1       7.375   4.333  15.656  0.00  0.00    +0.000 OA
ATOM     22  C   UNL     1       6.448   4.698  16.370  0.00  0.00    +0.000 C 
ATOM     23  N   UNL     1       6.423   5.901  17.054  0.00  0.00    +0.000 N 
ATOM     24  H   UNL     1       5.640   6.022  17.676  0.00  0.00    +0.000 HD
BRANCH  23  25
ATOM     25  C   UNL     1       7.556   6.755  17.150  0.00  0.00    +0.000 C 
ATOM     26  C   UNL     1       7.391   8.179  17.604  0.00  0.00    +0.000 C 
ATOM     27  C   UNL     1       8.094   7.195  18.488  0.00  0.00    +0.000 C 
ENDBRANCH  23  25
ENDBRANCH  20  22
ENDBRANCH   1  20
TORSDOF 5
ENDMDL
MODEL 5
REMARK VINA RESULT:      -7.7      3.155      8.451
REMARK  Name = 
REMARK  5 active torsions:
REMARK  status: ('A' for Active; 'I' for Inactive)
REMARK    1  A    between atoms: C_2  and  C_3
REMARK    2  A    between atoms: C_3  and  N_4
REMARK    3  A    between atoms: C_11  and  N_12
REMARK    4  A    between atoms: C_13  and  C_15
REMARK    5  A    between atoms: N_22  and  C_23
REMARK                            x       y       z     vdW  Elec       q    Type
REMARK                         _______ _______ _______ _____ _____    ______ ____
ROOT
ATOM      1  N   UNL     1       5.559   5.520  18.029  0.00  0.00    +0.000 NA
ATOM      2  C   UNL     1       6.886   4.903  18.189  0.00  0.00    +0.000 C 
ATOM      3  C   UNL     1       7.945   5.809  18.828  0.00  0.00    +0.000 C 
ATOM      4  C   UNL     1       7.894   7.291  18.479  0.00  0.00    +0.000 C 
ATOM      5  C   UNL     1       6.634   7.793  17.787  0.00  0.00    +0.000 C 
ATOM      6  C   UNL     1       5.711   6.721  17.192  0.00  0.00    +0.000 C 
ATOM      7  C   UNL     1       6.096   6.324  15.762  0.00  0.00    +0.000 C 
ATOM      8  C   UNL     1       7.081   5.157  15.603  0.00  0.00    +0.000 C 
ATOM      9  C   UNL     1       7.299   4.289  16.847  0.00  0.00    +0.000 C 
ENDROOT
BRANCH   8  10
ATOM     10  N   UNL     1       6.593   4.312  14.501  0.00  0.00    +0.000 N 
ATOM     11  C   UNL     1       6.973   4.456  13.186  0.00  0.00    +0.000 C 
ATOM     12  O   UNL     1       7.706   5.346  12.781  0.00  0.00    +0.000 OA
ATOM     13  H   UNL     1       6.262   3.394  14.770  0.00  0.00    +0.000 HD
BRANCH  11  14
ATOM     14  C   UNL     1       6.479   3.387  12.268  0.00  0.00    +0.000 A 
ATOM     15  C   UNL     1       5.115   3.257  11.975  0.00  0.00    +0.000 A 
ATOM     16  C   UNL     1       4.671   2.209  11.153  0.00  0.00    +0.000 A 
ATOM     17  C   UNL     1       5.589   1.313  10.615  0.00  0.00    +0.000 A 
ATOM     18  C   UNL     1       6.949   1.455  10.882  0.00  0.00    +0.000 A 
ATOM     19  C   UNL     1       7.395   2.494  11.706  0.00  0.00    +0.000 A 
ENDBRANCH  11  14
ENDBRANCH   8  10
BRANCH   1  20
ATOM     20  C   UNL     1       4.901   5.845  19.324  0.00  0.00    +0.000 C 
BRANCH  20  22
ATOM     21  O   UNL     1       2.632   6.679  19.420  0.00  0.00    +0.000 OA
ATOM     22  C   UNL     1       3.373   5.716  19.259  0.00  0.00    +0.000 C 
ATOM     23  N   UNL     1       2.932   4.439  18.958  0.00  0.00    +0.000 N 
ATOM     24  H   UNL     1       3.648   3.731  18.950  0.00  0.00    +0.000 HD
BRANCH  23  25
ATOM     25  C   UNL     1       1.559   4.072  18.992  0.00  0.00    +0.000 C 
ATOM     26  C   UNL     1       1.154   2.644  18.750  0.00  0.00    +0.000 C 
ATOM     27  C   UNL     1       1.000   3.237  20.117  0.00  0.00    +0.000 C 
ENDBRANCH  23  25
ENDBRANCH  20  22
ENDBRANCH   1  20
TORSDOF 5
ENDMDL
MODEL 6
REMARK VINA RESULT:      -7.7      1.892      6.990
REMARK  Name = 
REMARK  5 active torsions:
REMARK  status: ('A' for Active; 'I' for Inactive)
REMARK    1  A    between atoms: C_2  and  C_3
REMARK    2  A    between atoms: C_3  and  N_4
REMARK    3  A    between atoms: C_11  and  N_12
REMARK    4  A    between atoms: C_13  and  C_15
REMARK    5  A    between atoms: N_22  and  C_23
REMARK                            x       y       z     vdW  Elec       q    Type
REMARK                         _______ _______ _______ _____ _____    ______ ____
ROOT
ATOM      1  N   UNL     1       2.561   4.958  19.597  0.00  0.00    +0.000 NA
ATOM      2  C   UNL     1       1.470   4.222  18.937  0.00  0.00    +0.000 C 
ATOM      3  C   UNL     1       0.703   3.256  19.846  0.00  0.00    +0.000 C 
ATOM      4  C   UNL     1       1.504   2.521  20.914  0.00  0.00    +0.000 C 
ATOM      5  C   UNL     1       2.913   3.030  21.190  0.00  0.00    +0.000 C 
ATOM      6  C   UNL     1       3.513   3.976  20.141  0.00  0.00    +0.000 C 
ATOM      7  C   UNL     1       4.219   3.236  19.000  0.00  0.00    +0.000 C 
ATOM      8  C   UNL     1       3.371   2.874  17.771  0.00  0.00    +0.000 C 
ATOM      9  C   UNL     1       2.020   3.589  17.655  0.00  0.00    +0.000 C 
ENDROOT
BRANCH   8  10
ATOM     10  N   UNL     1       4.179   3.163  16.574  0.00  0.00    +0.000 N 
ATOM     11  C   UNL     1       4.715   4.396  16.280  0.00  0.00    +0.000 C 
ATOM     12  O   UNL     1       4.520   5.402  16.946  0.00  0.00    +0.000 OA
ATOM     13  H   UNL     1       4.644   2.365  16.161  0.00  0.00    +0.000 HD
BRANCH  11  14
ATOM     14  C   UNL     1       5.633   4.417  15.102  0.00  0.00    +0.000 A 
ATOM     15  C   UNL     1       6.804   5.186  15.110  0.00  0.00    +0.000 A 
ATOM     16  C   UNL     1       7.621   5.232  13.969  0.00  0.00    +0.000 A 
ATOM     17  C   UNL     1       7.274   4.498  12.839  0.00  0.00    +0.000 A 
ATOM     18  C   UNL     1       6.125   3.710  12.837  0.00  0.00    +0.000 A 
ATOM     19  C   UNL     1       5.306   3.667  13.969  0.00  0.00    +0.000 A 
ENDBRANCH  11  14
ENDBRANCH   8  10
BRANCH   1  20
ATOM     20  C   UNL     1       2.085   5.891  20.655  0.00  0.00    +0.000 C 
BRANCH  20  22
ATOM     21  O   UNL     1       2.352   7.692  19.062  0.00  0.00    +0.000 OA
ATOM     22  C   UNL     1       1.891   7.323  20.136  0.00  0.00    +0.000 C 
ATOM     23  N   UNL     1       1.119   8.118  20.964  0.00  0.00    +0.000 N 
ATOM     24  H   UNL     1       0.892   7.712  21.857  0.00  0.00    +0.000 HD
BRANCH  23  25
ATOM     25  C   UNL     1       0.939   9.511  20.743  0.00  0.00    +0.000 C 
ATOM     26  C   UNL     1      -0.251  10.004  19.967  0.00  0.00    +0.000 C 
ATOM     27  C   UNL     1      -0.157  10.280  21.437  0.00  0.00    +0.000 C 
ENDBRANCH  23  25
ENDBRANCH  20  22
ENDBRANCH   1  20
TORSDOF 5
ENDMDL
MODEL 7
REMARK VINA RESULT:      -7.5      1.096      1.233
REMARK  Name = 
REMARK  5 active torsions:
REMARK  status: ('A' for Active; 'I' for Inactive)
REMARK    1  A    between atoms: C_2  and  C_3
REMARK    2  A    between atoms: C_3  and  N_4
REMARK    3  A    between atoms: C_11  and  N_12
REMARK    4  A    between atoms: C_13  and  C_15
REMARK    5  A    between atoms: N_22  and  C_23
REMARK                            x       y       z     vdW  Elec       q    Type
REMARK                         _______ _______ _______ _____ _____    ______ ____
ROOT
ATOM      1  N   UNL     1       4.402   4.770  17.479  0.00  0.00    +0.000 NA
ATOM      2  C   UNL     1       4.677   4.622  18.918  0.00  0.00    +0.000 C 
ATOM      3  C   UNL     1       4.649   3.178  19.433  0.00  0.00    +0.000 C 
ATOM      4  C   UNL     1       3.626   2.237  18.809  0.00  0.00    +0.000 C 
ATOM      5  C   UNL     1       2.940   2.711  17.535  0.00  0.00    +0.000 C 
ATOM      6  C   UNL     1       3.070   4.205  17.206  0.00  0.00    +0.000 C 
ATOM      7  C   UNL     1       1.986   5.061  17.869  0.00  0.00    +0.000 C 
ATOM      8  C   UNL     1       2.299   5.632  19.260  0.00  0.00    +0.000 C 
ATOM      9  C   UNL     1       3.771   5.589  19.687  0.00  0.00    +0.000 C 
ENDROOT
BRANCH   8  10
ATOM     10  N   UNL     1       1.826   7.026  19.284  0.00  0.00    +0.000 N 
ATOM     11  C   UNL     1       1.411   7.684  20.419  0.00  0.00    +0.000 C 
ATOM     12  O   UNL     1       1.325   7.161  21.519  0.00  0.00    +0.000 OA
ATOM     13  H   UNL     1       2.156   7.610  18.526  0.00  0.00    +0.000 HD
BRANCH  11  14
ATOM     14  C   UNL     1       1.130   9.140  20.234  0.00  0.00    +0.000 A 
ATOM     15  C   UNL     1       0.705   9.938  21.304  0.00  0.00    +0.000 A 
ATOM     16  C   UNL     1       0.395  11.290  21.092  0.00  0.00    +0.000 A 
ATOM     17  C   UNL     1       0.528  11.840  19.820  0.00  0.00    +0.000 A 
ATOM     18  C   UNL     1       0.976  11.057  18.759  0.00  0.00    +0.000 A 
ATOM     19  C   UNL     1       1.281   9.707  18.966  0.00  0.00    +0.000 A 
ENDBRANCH  11  14
ENDBRANCH   8  10
BRANCH   1  20
ATOM     20  C   UNL     1       5.440   4.147  16.614  0.00  0.00    +0.000 C 
BRANCH  20  22
ATOM     21  O   UNL     1       7.834   4.382  16.355  0.00  0.00    +0.000 OA
ATOM     22  C   UNL     1       6.768   4.916  16.638  0.00  0.00    +0.000 C 
ATOM     23  N   UNL     1       6.633   6.256  16.959  0.00  0.00    +0.000 N 
ATOM     24  H   UNL     1       5.713   6.531  17.263  0.00  0.00    +0.000 HD
BRANCH  23  25
ATOM     25  C   UNL     1       7.748   7.110  17.178  0.00  0.00    +0.000 C 
ATOM     26  C   UNL     1       7.540   8.495  17.726  0.00  0.00    +0.000 C 
ATOM     27  C   UNL     1       8.208   7.455  18.572  0.00  0.00    +0.000 C 
ENDBRANCH  23  25
ENDBRANCH  20  22
ENDBRANCH   1  20
TORSDOF 5
ENDMDL
MODEL 8
REMARK VINA RESULT:      -7.4      1.482      2.110
REMARK  Name = 
REMARK  5 active torsions:
REMARK  status: ('A' for Active; 'I' for Inactive)
REMARK    1  A    between atoms: C_2  and  C_3
REMARK    2  A    between atoms: C_3  and  N_4
REMARK    3  A    between atoms: C_11  and  N_12
REMARK    4  A    between atoms: C_13  and  C_15
REMARK    5  A    between atoms: N_22  and  C_23
REMARK                            x       y       z     vdW  Elec       q    Type
REMARK                         _______ _______ _______ _____ _____    ______ ____
ROOT
ATOM      1  N   UNL     1       4.267   4.487  18.649  0.00  0.00    +0.000 NA
ATOM      2  C   UNL     1       4.054   3.680  19.862  0.00  0.00    +0.000 C 
ATOM      3  C   UNL     1       3.802   2.189  19.607  0.00  0.00    +0.000 C 
ATOM      4  C   UNL     1       3.000   1.822  18.365  0.00  0.00    +0.000 C 
ATOM      5  C   UNL     1       2.785   2.921  17.333  0.00  0.00    +0.000 C 
ATOM      6  C   UNL     1       3.075   4.355  17.796  0.00  0.00    +0.000 C 
ATOM      7  C   UNL     1       1.870   5.025  18.464  0.00  0.00    +0.000 C 
ATOM      8  C   UNL     1       1.737   4.865  19.986  0.00  0.00    +0.000 C 
ATOM      9  C   UNL     1       2.987   4.368  20.720  0.00  0.00    +0.000 C 
ENDROOT
BRANCH   8  10
ATOM     10  N   UNL     1       1.338   6.172  20.536  0.00  0.00    +0.000 N 
ATOM     11  C   UNL     1       1.825   7.380  20.092  0.00  0.00    +0.000 C 
ATOM     12  O   UNL     1       2.693   7.496  19.240  0.00  0.00    +0.000 OA
ATOM     13  H   UNL     1       0.433   6.196  20.988  0.00  0.00    +0.000 HD
BRANCH  11  14
ATOM     14  C   UNL     1       1.159   8.580  20.682  0.00  0.00    +0.000 A 
ATOM     15  C   UNL     1       0.843   8.637  22.046  0.00  0.00    +0.000 A 
ATOM     16  C   UNL     1       0.168   9.753  22.564  0.00  0.00    +0.000 A 
ATOM     17  C   UNL     1      -0.170  10.810  21.724  0.00  0.00    +0.000 A 
ATOM     18  C   UNL     1       0.166  10.769  20.373  0.00  0.00    +0.000 A 
ATOM     19  C   UNL     1       0.834   9.656  19.852  0.00  0.00    +0.000 A 
ENDBRANCH  11  14
ENDBRANCH   8  10
BRANCH   1  20
ATOM     20  C   UNL     1       5.505   4.119  17.908  0.00  0.00    +0.000 C 
BRANCH  20  22
ATOM     21  O   UNL     1       5.654   6.078  16.495  0.00  0.00    +0.000 OA
ATOM     22  C   UNL     1       5.629   4.854  16.566  0.00  0.00    +0.000 C 
ATOM     23  N   UNL     1       5.756   4.011  15.476  0.00  0.00    +0.000 N 
ATOM     24  H   UNL     1       5.619   3.033  15.674  0.00  0.00    +0.000 HD
BRANCH  23  25
ATOM     25  C   UNL     1       5.738   4.481  14.134  0.00  0.00    +0.000 C 
ATOM     26  C   UNL     1       7.029   4.699  13.394  0.00  0.00    +0.000 C 
ATOM     27  C   UNL     1       6.117   3.583  12.984  0.00  0.00    +0.000 C 
ENDBRANCH  23  25
ENDBRANCH  20  22
ENDBRANCH   1  20
TORSDOF 5
ENDMDL
MODEL 9
REMARK VINA RESULT:      -7.4      3.615      8.760
REMARK  Name = 
REMARK  5 active torsions:
REMARK  status: ('A' for Active; 'I' for Inactive)
REMARK    1  A    between atoms: C_2  and  C_3
REMARK    2  A    between atoms: C_3  and  N_4
REMARK    3  A    between atoms: C_11  and  N_12
REMARK    4  A    between atoms: C_13  and  C_15
REMARK    5  A    between atoms: N_22  and  C_23
REMARK                            x       y       z     vdW  Elec       q    Type
REMARK                         _______ _______ _______ _____ _____    ______ ____
ROOT
ATOM      1  N   UNL     1      -0.605  10.436  19.248  0.00  0.00    +0.000 NA
ATOM      2  C   UNL     1      -0.329  10.456  20.694  0.00  0.00    +0.000 C 
ATOM      3  C   UNL     1       0.428  11.694  21.188  0.00  0.00    +0.000 C 
ATOM      4  C   UNL     1       1.485  12.279  20.260  0.00  0.00    +0.000 C 
ATOM      5  C   UNL     1       1.487  11.786  18.819  0.00  0.00    +0.000 C 
ATOM      6  C   UNL     1       0.681  10.511  18.535  0.00  0.00    +0.000 C 
ATOM      7  C   UNL     1       1.488   9.228  18.764  0.00  0.00    +0.000 C 
ATOM      8  C   UNL     1       1.431   8.608  20.168  0.00  0.00    +0.000 C 
ATOM      9  C   UNL     1       0.314   9.120  21.083  0.00  0.00    +0.000 C 
ENDROOT
BRANCH   8  10
ATOM     10  N   UNL     1       1.296   7.151  20.004  0.00  0.00    +0.000 N 
ATOM     11  C   UNL     1       2.306   6.323  19.570  0.00  0.00    +0.000 C 
ATOM     12  O   UNL     1       3.405   6.717  19.209  0.00  0.00    +0.000 OA
ATOM     13  H   UNL     1       0.572   6.716  20.561  0.00  0.00    +0.000 HD
BRANCH  11  14
ATOM     14  C   UNL     1       1.995   4.864  19.637  0.00  0.00    +0.000 A 
ATOM     15  C   UNL     1       1.629   4.255  20.844  0.00  0.00    +0.000 A 
ATOM     16  C   UNL     1       1.395   2.871  20.890  0.00  0.00    +0.000 A 
ATOM     17  C   UNL     1       1.509   2.111  19.731  0.00  0.00    +0.000 A 
ATOM     18  C   UNL     1       1.846   2.717  18.523  0.00  0.00    +0.000 A 
ATOM     19  C   UNL     1       2.086   4.094  18.474  0.00  0.00    +0.000 A 
ENDBRANCH  11  14
ENDBRANCH   8  10
BRANCH   1  20
ATOM     20  C   UNL     1      -1.528  11.519  18.810  0.00  0.00    +0.000 C 
BRANCH  20  22
ATOM     21  O   UNL     1      -2.917   9.796  17.833  0.00  0.00    +0.000 OA
ATOM     22  C   UNL     1      -2.799  10.977  18.142  0.00  0.00    +0.000 C 
ATOM     23  N   UNL     1      -3.791  11.927  17.973  0.00  0.00    +0.000 N 
ATOM     24  H   UNL     1      -3.517  12.873  18.182  0.00  0.00    +0.000 HD
BRANCH  23  25
ATOM     25  C   UNL     1      -4.986  11.669  17.246  0.00  0.00    +0.000 C 
ATOM     26  C   UNL     1      -6.228  11.226  17.970  0.00  0.00    +0.000 C 
ATOM     27  C   UNL     1      -6.177  12.588  17.347  0.00  0.00    +0.000 C 
ENDBRANCH  23  25
ENDBRANCH  20  22
ENDBRANCH   1  20
TORSDOF 5
ENDMDL
