MODEL 1
REMARK VINA RESULT:      -7.3      0.000      0.000
REMARK  Name = 
REMARK  9 active torsions:
REMARK  status: ('A' for Active; 'I' for Inactive)
REMARK    1  A    between atoms: C_1  and  O_2
REMARK    2  A    between atoms: O_2  and  C_3
REMARK    3  A    between atoms: C_7  and  C_8
REMARK    4  A    between atoms: N_10  and  C_11
REMARK    5  A    between atoms: C_11  and  C_12
REMARK    6  A    between atoms: C_12  and  C_14
REMARK    7  A    between atoms: C_16  and  C_17
REMARK    8  A    between atoms: C_19  and  C_20
REMARK    9  A    between atoms: C_29  and  C_30
REMARK                            x       y       z     vdW  Elec       q    Type
REMARK                         _______ _______ _______ _____ _____    ______ ____
ROOT
ATOM      1  C   UNL     1      -0.309  12.313  19.635  0.00  0.00    +0.000 C 
ATOM      2  C   UNL     1       1.202  11.902  19.701  0.00  0.00    +0.000 C 
ATOM      3  C   UNL     1       2.218  12.934  20.125  0.00  0.00    +0.000 C 
ATOM      4  S   UNL     1       2.167  14.333  19.048  0.00  0.00    +0.000 S 
ATOM      5  O   UNL     1       2.817  15.441  19.717  0.00  0.00    +0.000 OA
ATOM      6  O   UNL     1       2.625  13.887  17.744  0.00  0.00    +0.000 OA
ATOM      7  C   UNL     1       0.421  14.675  18.920  0.00  0.00    +0.000 C 
ATOM      8  C   UNL     1      -0.422  13.434  18.571  0.00  0.00    +0.000 C 
ENDROOT
BRANCH   1  11
ATOM      9  C   UNL     1      -1.033  12.478  22.132  0.00  0.00    +0.000 C 
ATOM     10  O   UNL     1      -0.113  11.800  22.576  0.00  0.00    +0.000 OA
ATOM     11  N   UNL     1      -1.166  12.719  20.792  0.00  0.00    +0.000 N 
ATOM     12  H   UNL     1      -1.884  13.399  20.554  0.00  0.00    +0.000 HD
BRANCH   9  17
ATOM     13  C   UNL     1      -2.892  14.624  24.699  0.00  0.00    +0.000 A 
ATOM     14  C   UNL     1      -3.933  13.765  25.056  0.00  0.00    +0.000 A 
ATOM     15  C   UNL     1      -4.078  12.540  24.407  0.00  0.00    +0.000 A 
ATOM     16  C   UNL     1      -3.167  12.149  23.419  0.00  0.00    +0.000 A 
ATOM     17  C   UNL     1      -2.101  12.992  23.056  0.00  0.00    +0.000 A 
ATOM     18  C   UNL     1      -1.988  14.263  23.671  0.00  0.00    +0.000 A 
ATOM     19  C   UNL     1      -0.907  15.251  23.308  0.00  0.00    +0.000 C 
BRANCH  13  21
ATOM     20  C   UNL     1      -3.744  16.809  25.141  0.00  0.00    +0.000 C 
ATOM     21  O   UNL     1      -2.695  15.855  25.273  0.00  0.00    +0.000 OA
ENDBRANCH  13  21
ENDBRANCH   9  17
ENDBRANCH   1  11
BRANCH   1  22
ATOM     22  C   UNL     1      -1.012  10.954  19.293  0.00  0.00    +0.000 C 
ATOM     23  O   UNL     1      -0.653   9.885  19.781  0.00  0.00    +0.000 OA
BRANCH  22  24
ATOM     24  C   UNL     1      -2.178  10.979  18.298  0.00  0.00    +0.000 A 
ATOM     25  C   UNL     1      -3.416  11.569  18.623  0.00  0.00    +0.000 A 
ATOM     26  C   UNL     1      -4.490  11.625  17.737  0.00  0.00    +0.000 A 
ATOM     27  C   UNL     1      -5.786  12.246  18.172  0.00  0.00    +0.000 C 
ATOM     28  C   UNL     1      -4.316  11.109  16.459  0.00  0.00    +0.000 A 
ATOM     29  C   UNL     1      -3.093  10.524  16.088  0.00  0.00    +0.000 A 
ATOM     30  C   UNL     1      -2.903  10.042  14.680  0.00  0.00    +0.000 C 
ATOM     31  C   UNL     1      -2.035  10.437  17.018  0.00  0.00    +0.000 A 
ENDBRANCH  22  24
ENDBRANCH   1  22
TORSDOF 5
ENDMDL
MODEL 2
REMARK VINA RESULT:      -7.2      7.908     11.638
REMARK  Name = 
REMARK  9 active torsions:
REMARK  status: ('A' for Active; 'I' for Inactive)
REMARK    1  A    between atoms: C_1  and  O_2
REMARK    2  A    between atoms: O_2  and  C_3
REMARK    3  A    between atoms: C_7  and  C_8
REMARK    4  A    between atoms: N_10  and  C_11
REMARK    5  A    between atoms: C_11  and  C_12
REMARK    6  A    between atoms: C_12  and  C_14
REMARK    7  A    between atoms: C_16  and  C_17
REMARK    8  A    between atoms: C_19  and  C_20
REMARK    9  A    between atoms: C_29  and  C_30
REMARK                            x       y       z     vdW  Elec       q    Type
REMARK                         _______ _______ _______ _____ _____    ______ ____
ROOT
ATOM      1  C   UNL     1       2.906   5.680  18.149  0.00  0.00    +0.000 C 
ATOM      2  C   UNL     1       3.195   5.385  19.661  0.00  0.00    +0.000 C 
ATOM      3  C   UNL     1       3.235   3.950  20.126  0.00  0.00    +0.000 C 
ATOM      4  S   UNL     1       1.702   3.144  19.783  0.00  0.00    +0.000 S 
ATOM      5  O   UNL     1       1.922   1.713  19.840  0.00  0.00    +0.000 OA
ATOM      6  O   UNL     1       0.693   3.768  20.621  0.00  0.00    +0.000 OA
ATOM      7  C   UNL     1       1.372   3.615  18.095  0.00  0.00    +0.000 C 
ATOM      8  C   UNL     1       1.489   5.131  17.849  0.00  0.00    +0.000 C 
ENDROOT
BRANCH   1  11
ATOM      9  C   UNL     1       4.664   4.272  16.840  0.00  0.00    +0.000 C 
ATOM     10  O   UNL     1       4.890   3.478  17.746  0.00  0.00    +0.000 OA
ATOM     11  N   UNL     1       3.777   5.302  16.993  0.00  0.00    +0.000 N 
ATOM     12  H   UNL     1       3.572   5.813  16.138  0.00  0.00    +0.000 HD
BRANCH   9  17
ATOM     13  C   UNL     1       7.211   4.983  14.073  0.00  0.00    +0.000 A 
ATOM     14  C   UNL     1       6.648   4.277  13.008  0.00  0.00    +0.000 A 
ATOM     15  C   UNL     1       5.502   3.510  13.211  0.00  0.00    +0.000 A 
ATOM     16  C   UNL     1       4.892   3.466  14.470  0.00  0.00    +0.000 A 
ATOM     17  C   UNL     1       5.434   4.183  15.552  0.00  0.00    +0.000 A 
ATOM     18  C   UNL     1       6.632   4.914  15.363  0.00  0.00    +0.000 A 
ATOM     19  C   UNL     1       7.310   5.671  16.478  0.00  0.00    +0.000 C 
BRANCH  13  21
ATOM     20  C   UNL     1       8.806   6.038  12.645  0.00  0.00    +0.000 C 
ATOM     21  O   UNL     1       8.350   5.742  13.961  0.00  0.00    +0.000 OA
ENDBRANCH  13  21
ENDBRANCH   9  17
ENDBRANCH   1  11
BRANCH   1  22
ATOM     22  C   UNL     1       3.082   7.236  18.072  0.00  0.00    +0.000 C 
ATOM     23  O   UNL     1       4.039   7.765  17.512  0.00  0.00    +0.000 OA
BRANCH  22  24
ATOM     24  C   UNL     1       2.016   8.114  18.739  0.00  0.00    +0.000 A 
ATOM     25  C   UNL     1       1.886   8.183  20.141  0.00  0.00    +0.000 A 
ATOM     26  C   UNL     1       0.941   8.983  20.780  0.00  0.00    +0.000 A 
ATOM     27  C   UNL     1       0.848   8.978  22.279  0.00  0.00    +0.000 C 
ATOM     28  C   UNL     1       0.116   9.779  19.996  0.00  0.00    +0.000 A 
ATOM     29  C   UNL     1       0.221   9.752  18.596  0.00  0.00    +0.000 A 
ATOM     30  C   UNL     1      -0.628  10.675  17.773  0.00  0.00    +0.000 C 
ATOM     31  C   UNL     1       1.154   8.899  17.969  0.00  0.00    +0.000 A 
ENDBRANCH  22  24
ENDBRANCH   1  22
TORSDOF 5
ENDMDL
MODEL 3
REMARK VINA RESULT:      -7.2      0.071      1.572
REMARK  Name = 
REMARK  9 active torsions:
REMARK  status: ('A' for Active; 'I' for Inactive)
REMARK    1  A    between atoms: C_1  and  O_2
REMARK    2  A    between atoms: O_2  and  C_3
REMARK    3  A    between atoms: C_7  and  C_8
REMARK    4  A    between atoms: N_10  and  C_11
REMARK    5  A    between atoms: C_11  and  C_12
REMARK    6  A    between atoms: C_12  and  C_14
REMARK    7  A    between atoms: C_16  and  C_17
REMARK    8  A    between atoms: C_19  and  C_20
REMARK    9  A    between atoms: C_29  and  C_30
REMARK                            x       y       z     vdW  Elec       q    Type
REMARK                         _______ _______ _______ _____ _____    ______ ____
ROOT
ATOM      1  C   UNL     1      -0.295  12.369  19.628  0.00  0.00    +0.000 C 
ATOM      2  C   UNL     1       1.209  11.933  19.691  0.00  0.00    +0.000 C 
ATOM      3  C   UNL     1       2.240  12.941  20.134  0.00  0.00    +0.000 C 
ATOM      4  S   UNL     1       2.215  14.358  19.080  0.00  0.00    +0.000 S 
ATOM      5  O   UNL     1       2.881  15.445  19.769  0.00  0.00    +0.000 OA
ATOM      6  O   UNL     1       2.670  13.927  17.770  0.00  0.00    +0.000 OA
ATOM      7  C   UNL     1       0.475  14.730  18.954  0.00  0.00    +0.000 C 
ATOM      8  C   UNL     1      -0.386  13.509  18.582  0.00  0.00    +0.000 C 
ENDROOT
BRANCH   1  11
ATOM      9  C   UNL     1      -1.027  12.498  22.124  0.00  0.00    +0.000 C 
ATOM     10  O   UNL     1      -0.125  11.791  22.558  0.00  0.00    +0.000 OA
ATOM     11  N   UNL     1      -1.148  12.770  20.789  0.00  0.00    +0.000 N 
ATOM     12  H   UNL     1      -1.849  13.471  20.563  0.00  0.00    +0.000 HD
BRANCH   9  17
ATOM     13  C   UNL     1      -2.865  14.653  24.700  0.00  0.00    +0.000 A 
ATOM     14  C   UNL     1      -3.906  13.798  25.065  0.00  0.00    +0.000 A 
ATOM     15  C   UNL     1      -4.057  12.572  24.419  0.00  0.00    +0.000 A 
ATOM     16  C   UNL     1      -3.154  12.177  23.426  0.00  0.00    +0.000 A 
ATOM     17  C   UNL     1      -2.088  13.017  23.054  0.00  0.00    +0.000 A 
ATOM     18  C   UNL     1      -1.968  14.288  23.666  0.00  0.00    +0.000 A 
ATOM     19  C   UNL     1      -0.887  15.273  23.295  0.00  0.00    +0.000 C 
BRANCH  13  21
ATOM     20  C   UNL     1      -3.726  16.826  25.183  0.00  0.00    +0.000 C 
ATOM     21  O   UNL     1      -2.661  15.885  25.270  0.00  0.00    +0.000 OA
ENDBRANCH  13  21
ENDBRANCH   9  17
ENDBRANCH   1  11
BRANCH   1  22
ATOM     22  C   UNL     1      -1.018  11.027  19.262  0.00  0.00    +0.000 C 
ATOM     23  O   UNL     1      -0.676   9.944  19.730  0.00  0.00    +0.000 OA
BRANCH  22  24
ATOM     24  C   UNL     1      -2.185  11.088  18.268  0.00  0.00    +0.000 A 
ATOM     25  C   UNL     1      -2.067  10.584  16.958  0.00  0.00    +0.000 A 
ATOM     26  C   UNL     1      -3.112  10.606  16.036  0.00  0.00    +0.000 A 
ATOM     27  C   UNL     1      -2.896  10.075  14.648  0.00  0.00    +0.000 C 
ATOM     28  C   UNL     1      -4.338  11.114  16.444  0.00  0.00    +0.000 A 
ATOM     29  C   UNL     1      -4.503  11.614  17.747  0.00  0.00    +0.000 A 
ATOM     30  C   UNL     1      -5.856  12.089  18.190  0.00  0.00    +0.000 C 
ATOM     31  C   UNL     1      -3.418  11.624  18.649  0.00  0.00    +0.000 A 
ENDBRANCH  22  24
ENDBRANCH   1  22
TORSDOF 5
ENDMDL
MODEL 4
REMARK VINA RESULT:      -7.1      7.891     11.654
REMARK  Name = 
REMARK  9 active torsions:
REMARK  status: ('A' for Active; 'I' for Inactive)
REMARK    1  A    between atoms: C_1  and  O_2
REMARK    2  A    between atoms: O_2  and  C_3
REMARK    3  A    between atoms: C_7  and  C_8
REMARK    4  A    between atoms: N_10  and  C_11
REMARK    5  A    between atoms: C_11  and  C_12
REMARK    6  A    between atoms: C_12  and  C_14
REMARK    7  A    between atoms: C_16  and  C_17
REMARK    8  A    between atoms: C_19  and  C_20
REMARK    9  A    between atoms: C_29  and  C_30
REMARK                            x       y       z     vdW  Elec       q    Type
REMARK                         _______ _______ _______ _____ _____    ______ ____
ROOT
ATOM      1  C   UNL     1       2.933   5.730  18.152  0.00  0.00    +0.000 C 
ATOM      2  C   UNL     1       3.213   5.431  19.665  0.00  0.00    +0.000 C 
ATOM      3  C   UNL     1       3.235   3.996  20.130  0.00  0.00    +0.000 C 
ATOM      4  S   UNL     1       1.693   3.208  19.781  0.00  0.00    +0.000 S 
ATOM      5  O   UNL     1       1.896   1.774  19.838  0.00  0.00    +0.000 OA
ATOM      6  O   UNL     1       0.688   3.844  20.615  0.00  0.00    +0.000 OA
ATOM      7  C   UNL     1       1.375   3.684  18.092  0.00  0.00    +0.000 C 
ATOM      8  C   UNL     1       1.510   5.198  17.847  0.00  0.00    +0.000 C 
ENDROOT
BRANCH   1  11
ATOM      9  C   UNL     1       4.670   4.295  16.845  0.00  0.00    +0.000 C 
ATOM     10  O   UNL     1       4.874   3.491  17.746  0.00  0.00    +0.000 OA
ATOM     11  N   UNL     1       3.803   5.342  16.999  0.00  0.00    +0.000 N 
ATOM     12  H   UNL     1       3.614   5.863  16.147  0.00  0.00    +0.000 HD
BRANCH   9  17
ATOM     13  C   UNL     1       7.223   4.998  14.081  0.00  0.00    +0.000 A 
ATOM     14  C   UNL     1       6.671   4.277  13.021  0.00  0.00    +0.000 A 
ATOM     15  C   UNL     1       5.530   3.503  13.227  0.00  0.00    +0.000 A 
ATOM     16  C   UNL     1       4.914   3.467  14.484  0.00  0.00    +0.000 A 
ATOM     17  C   UNL     1       5.446   4.199  15.561  0.00  0.00    +0.000 A 
ATOM     18  C   UNL     1       6.639   4.937  15.369  0.00  0.00    +0.000 A 
ATOM     19  C   UNL     1       7.306   5.712  16.479  0.00  0.00    +0.000 C 
BRANCH  13  21
ATOM     20  C   UNL     1       8.865   5.981  12.654  0.00  0.00    +0.000 C 
ATOM     21  O   UNL     1       8.357   5.765  13.966  0.00  0.00    +0.000 OA
ENDBRANCH  13  21
ENDBRANCH   9  17
ENDBRANCH   1  11
BRANCH   1  22
ATOM     22  C   UNL     1       3.127   7.284  18.076  0.00  0.00    +0.000 C 
ATOM     23  O   UNL     1       4.088   7.802  17.512  0.00  0.00    +0.000 OA
BRANCH  22  24
ATOM     24  C   UNL     1       2.076   8.173  18.750  0.00  0.00    +0.000 A 
ATOM     25  C   UNL     1       1.160   8.937  17.999  0.00  0.00    +0.000 A 
ATOM     26  C   UNL     1       0.181   9.741  18.580  0.00  0.00    +0.000 A 
ATOM     27  C   UNL     1      -0.738  10.547  17.707  0.00  0.00    +0.000 C 
ATOM     28  C   UNL     1       0.080   9.757  19.964  0.00  0.00    +0.000 A 
ATOM     29  C   UNL     1       0.963   9.000  20.752  0.00  0.00    +0.000 A 
ATOM     30  C   UNL     1       0.787   8.973  22.242  0.00  0.00    +0.000 C 
ATOM     31  C   UNL     1       1.977   8.229  20.143  0.00  0.00    +0.000 A 
ENDBRANCH  22  24
ENDBRANCH   1  22
TORSDOF 5
ENDMDL
MODEL 5
REMARK VINA RESULT:      -6.8      1.107      2.240
REMARK  Name = 
REMARK  9 active torsions:
REMARK  status: ('A' for Active; 'I' for Inactive)
REMARK    1  A    between atoms: C_1  and  O_2
REMARK    2  A    between atoms: O_2  and  C_3
REMARK    3  A    between atoms: C_7  and  C_8
REMARK    4  A    between atoms: N_10  and  C_11
REMARK    5  A    between atoms: C_11  and  C_12
REMARK    6  A    between atoms: C_12  and  C_14
REMARK    7  A    between atoms: C_16  and  C_17
REMARK    8  A    between atoms: C_19  and  C_20
REMARK    9  A    between atoms: C_29  and  C_30
REMARK                            x       y       z     vdW  Elec       q    Type
REMARK                         _______ _______ _______ _____ _____    ______ ____
ROOT
ATOM      1  C   UNL     1      -0.319  12.720  19.918  0.00  0.00    +0.000 C 
ATOM      2  C   UNL     1       1.148  12.171  19.937  0.00  0.00    +0.000 C 
ATOM      3  C   UNL     1       2.280  13.130  20.211  0.00  0.00    +0.000 C 
ATOM      4  S   UNL     1       2.291  14.432  19.018  0.00  0.00    +0.000 S 
ATOM      5  O   UNL     1       3.082  15.524  19.548  0.00  0.00    +0.000 OA
ATOM      6  O   UNL     1       2.622  13.836  17.736  0.00  0.00    +0.000 OA
ATOM      7  C   UNL     1       0.579  14.931  18.957  0.00  0.00    +0.000 C 
ATOM      8  C   UNL     1      -0.395  13.754  18.767  0.00  0.00    +0.000 C 
ENDROOT
BRANCH   1  11
ATOM      9  C   UNL     1      -0.982  13.031  22.418  0.00  0.00    +0.000 C 
ATOM     10  O   UNL     1      -0.240  12.160  22.856  0.00  0.00    +0.000 OA
ATOM     11  N   UNL     1      -1.059  13.304  21.080  0.00  0.00    +0.000 N 
ATOM     12  H   UNL     1      -1.605  14.130  20.848  0.00  0.00    +0.000 HD
BRANCH   9  17
ATOM     13  C   UNL     1      -4.155  14.473  24.002  0.00  0.00    +0.000 A 
ATOM     14  C   UNL     1      -3.611  15.437  24.853  0.00  0.00    +0.000 A 
ATOM     15  C   UNL     1      -2.227  15.556  24.974  0.00  0.00    +0.000 A 
ATOM     16  C   UNL     1      -1.376  14.736  24.224  0.00  0.00    +0.000 A 
ATOM     17  C   UNL     1      -1.904  13.769  23.348  0.00  0.00    +0.000 A 
ATOM     18  C   UNL     1      -3.309  13.606  23.270  0.00  0.00    +0.000 A 
ATOM     19  C   UNL     1      -3.961  12.563  22.396  0.00  0.00    +0.000 C 
BRANCH  13  21
ATOM     20  C   UNL     1      -6.329  15.437  23.800  0.00  0.00    +0.000 C 
ATOM     21  O   UNL     1      -5.504  14.277  23.845  0.00  0.00    +0.000 OA
ENDBRANCH  13  21
ENDBRANCH   9  17
ENDBRANCH   1  11
BRANCH   1  22
ATOM     22  C   UNL     1      -1.166  11.413  19.739  0.00  0.00    +0.000 C 
ATOM     23  O   UNL     1      -0.948  10.392  20.387  0.00  0.00    +0.000 OA
BRANCH  22  24
ATOM     24  C   UNL     1      -2.292  11.423  18.698  0.00  0.00    +0.000 A 
ATOM     25  C   UNL     1      -2.110  10.890  17.406  0.00  0.00    +0.000 A 
ATOM     26  C   UNL     1      -3.117  10.867  16.443  0.00  0.00    +0.000 A 
ATOM     27  C   UNL     1      -2.834  10.307  15.079  0.00  0.00    +0.000 C 
ATOM     28  C   UNL     1      -4.369  11.358  16.789  0.00  0.00    +0.000 A 
ATOM     29  C   UNL     1      -4.598  11.886  18.071  0.00  0.00    +0.000 A 
ATOM     30  C   UNL     1      -5.977  12.341  18.447  0.00  0.00    +0.000 C 
ATOM     31  C   UNL     1      -3.550  11.941  19.015  0.00  0.00    +0.000 A 
ENDBRANCH  22  24
ENDBRANCH   1  22
TORSDOF 5
ENDMDL
MODEL 6
REMARK VINA RESULT:      -6.8      3.048      5.592
REMARK  Name = 
REMARK  9 active torsions:
REMARK  status: ('A' for Active; 'I' for Inactive)
REMARK    1  A    between atoms: C_1  and  O_2
REMARK    2  A    between atoms: O_2  and  C_3
REMARK    3  A    between atoms: C_7  and  C_8
REMARK    4  A    between atoms: N_10  and  C_11
REMARK    5  A    between atoms: C_11  and  C_12
REMARK    6  A    between atoms: C_12  and  C_14
REMARK    7  A    between atoms: C_16  and  C_17
REMARK    8  A    between atoms: C_19  and  C_20
REMARK    9  A    between atoms: C_29  and  C_30
REMARK                            x       y       z     vdW  Elec       q    Type
REMARK                         _______ _______ _______ _____ _____    ______ ____
ROOT
ATOM      1  C   UNL     1      -0.863  11.732  20.193  0.00  0.00    +0.000 C 
ATOM      2  C   UNL     1      -1.107  11.356  21.695  0.00  0.00    +0.000 C 
ATOM      3  C   UNL     1      -0.017  10.638  22.450  0.00  0.00    +0.000 C 
ATOM      4  S   UNL     1       0.390   9.115  21.653  0.00  0.00    +0.000 S 
ATOM      5  O   UNL     1       1.686   8.684  22.136  0.00  0.00    +0.000 OA
ATOM      6  O   UNL     1      -0.767   8.246  21.773  0.00  0.00    +0.000 OA
ATOM      7  C   UNL     1       0.536   9.588  19.940  0.00  0.00    +0.000 C 
ATOM      8  C   UNL     1      -0.666  10.402  19.425  0.00  0.00    +0.000 C 
ENDROOT
BRANCH   1  11
ATOM      9  C   UNL     1       1.068  13.475  20.341  0.00  0.00    +0.000 C 
ATOM     10  O   UNL     1       1.121  13.502  21.565  0.00  0.00    +0.000 OA
ATOM     11  N   UNL     1       0.163  12.692  19.678  0.00  0.00    +0.000 N 
ATOM     12  H   UNL     1       0.298  12.649  18.671  0.00  0.00    +0.000 HD
BRANCH   9  17
ATOM     13  C   UNL     1       2.316  16.484  18.330  0.00  0.00    +0.000 A 
ATOM     14  C   UNL     1       3.441  15.938  17.709  0.00  0.00    +0.000 A 
ATOM     15  C   UNL     1       3.837  14.635  18.008  0.00  0.00    +0.000 A 
ATOM     16  C   UNL     1       3.096  13.857  18.905  0.00  0.00    +0.000 A 
ATOM     17  C   UNL     1       1.950  14.382  19.530  0.00  0.00    +0.000 A 
ATOM     18  C   UNL     1       1.581  15.725  19.273  0.00  0.00    +0.000 A 
ATOM     19  C   UNL     1       0.397  16.386  19.935  0.00  0.00    +0.000 C 
BRANCH  13  21
ATOM     20  C   UNL     1       1.467  18.091  16.783  0.00  0.00    +0.000 C 
ATOM     21  O   UNL     1       1.875  17.764  18.107  0.00  0.00    +0.000 OA
ENDBRANCH  13  21
ENDBRANCH   9  17
ENDBRANCH   1  11
BRANCH   1  22
ATOM     22  C   UNL     1      -2.149  12.557  19.841  0.00  0.00    +0.000 C 
ATOM     23  O   UNL     1      -2.428  13.615  20.399  0.00  0.00    +0.000 OA
BRANCH  22  24
ATOM     24  C   UNL     1      -3.090  11.997  18.767  0.00  0.00    +0.000 A 
ATOM     25  C   UNL     1      -2.607  11.548  17.522  0.00  0.00    +0.000 A 
ATOM     26  C   UNL     1      -3.431  11.016  16.532  0.00  0.00    +0.000 A 
ATOM     27  C   UNL     1      -2.841  10.587  15.219  0.00  0.00    +0.000 C 
ATOM     28  C   UNL     1      -4.787  10.888  16.804  0.00  0.00    +0.000 A 
ATOM     29  C   UNL     1      -5.308  11.310  18.038  0.00  0.00    +0.000 A 
ATOM     30  C   UNL     1      -6.762  11.093  18.339  0.00  0.00    +0.000 C 
ATOM     31  C   UNL     1      -4.462  11.888  19.008  0.00  0.00    +0.000 A 
ENDBRANCH  22  24
ENDBRANCH   1  22
TORSDOF 5
ENDMDL
MODEL 7
REMARK VINA RESULT:      -6.7      3.029      5.359
REMARK  Name = 
REMARK  9 active torsions:
REMARK  status: ('A' for Active; 'I' for Inactive)
REMARK    1  A    between atoms: C_1  and  O_2
REMARK    2  A    between atoms: O_2  and  C_3
REMARK    3  A    between atoms: C_7  and  C_8
REMARK    4  A    between atoms: N_10  and  C_11
REMARK    5  A    between atoms: C_11  and  C_12
REMARK    6  A    between atoms: C_12  and  C_14
REMARK    7  A    between atoms: C_16  and  C_17
REMARK    8  A    between atoms: C_19  and  C_20
REMARK    9  A    between atoms: C_29  and  C_30
REMARK                            x       y       z     vdW  Elec       q    Type
REMARK                         _______ _______ _______ _____ _____    ______ ____
ROOT
ATOM      1  C   UNL     1      -0.904  11.743  20.213  0.00  0.00    +0.000 C 
ATOM      2  C   UNL     1      -1.165  11.380  21.715  0.00  0.00    +0.000 C 
ATOM      3  C   UNL     1      -0.080  10.679  22.493  0.00  0.00    +0.000 C 
ATOM      4  S   UNL     1       0.351   9.152  21.718  0.00  0.00    +0.000 S 
ATOM      5  O   UNL     1       1.644   8.738  22.224  0.00  0.00    +0.000 OA
ATOM      6  O   UNL     1      -0.800   8.274  21.831  0.00  0.00    +0.000 OA
ATOM      7  C   UNL     1       0.517   9.609  20.002  0.00  0.00    +0.000 C 
ATOM      8  C   UNL     1      -0.684  10.406  19.462  0.00  0.00    +0.000 C 
ENDROOT
BRANCH   1  11
ATOM      9  C   UNL     1       1.030  13.482  20.369  0.00  0.00    +0.000 C 
ATOM     10  O   UNL     1       1.088  13.498  21.593  0.00  0.00    +0.000 OA
ATOM     11  N   UNL     1       0.121  12.707  19.703  0.00  0.00    +0.000 N 
ATOM     12  H   UNL     1       0.252  12.673  18.695  0.00  0.00    +0.000 HD
BRANCH   9  17
ATOM     13  C   UNL     1       2.273  16.507  18.378  0.00  0.00    +0.000 A 
ATOM     14  C   UNL     1       3.395  15.966  17.750  0.00  0.00    +0.000 A 
ATOM     15  C   UNL     1       3.792  14.661  18.037  0.00  0.00    +0.000 A 
ATOM     16  C   UNL     1       3.053  13.876  18.930  0.00  0.00    +0.000 A 
ATOM     17  C   UNL     1       1.909  14.396  19.562  0.00  0.00    +0.000 A 
ATOM     18  C   UNL     1       1.540  15.741  19.318  0.00  0.00    +0.000 A 
ATOM     19  C   UNL     1       0.358  16.397  19.989  0.00  0.00    +0.000 C 
BRANCH  13  21
ATOM     20  C   UNL     1       1.366  18.110  16.861  0.00  0.00    +0.000 C 
ATOM     21  O   UNL     1       1.831  17.789  18.168  0.00  0.00    +0.000 OA
ENDBRANCH  13  21
ENDBRANCH   9  17
ENDBRANCH   1  11
BRANCH   1  22
ATOM     22  C   UNL     1      -2.192  12.553  19.834  0.00  0.00    +0.000 C 
ATOM     23  O   UNL     1      -2.486  13.616  20.376  0.00  0.00    +0.000 OA
BRANCH  22  24
ATOM     24  C   UNL     1      -3.114  11.973  18.756  0.00  0.00    +0.000 A 
ATOM     25  C   UNL     1      -4.510  11.904  18.934  0.00  0.00    +0.000 A 
ATOM     26  C   UNL     1      -5.378  11.400  17.967  0.00  0.00    +0.000 A 
ATOM     27  C   UNL     1      -6.852  11.334  18.247  0.00  0.00    +0.000 C 
ATOM     28  C   UNL     1      -4.842  10.982  16.756  0.00  0.00    +0.000 A 
ATOM     29  C   UNL     1      -3.457  11.046  16.531  0.00  0.00    +0.000 A 
ATOM     30  C   UNL     1      -2.908  10.660  15.189  0.00  0.00    +0.000 C 
ATOM     31  C   UNL     1      -2.592  11.517  17.542  0.00  0.00    +0.000 A 
ENDBRANCH  22  24
ENDBRANCH   1  22
TORSDOF 5
ENDMDL
MODEL 8
REMARK VINA RESULT:      -6.7      7.356     10.102
REMARK  Name = 
REMARK  9 active torsions:
REMARK  status: ('A' for Active; 'I' for Inactive)
REMARK    1  A    between atoms: C_1  and  O_2
REMARK    2  A    between atoms: O_2  and  C_3
REMARK    3  A    between atoms: C_7  and  C_8
REMARK    4  A    between atoms: N_10  and  C_11
REMARK    5  A    between atoms: C_11  and  C_12
REMARK    6  A    between atoms: C_12  and  C_14
REMARK    7  A    between atoms: C_16  and  C_17
REMARK    8  A    between atoms: C_19  and  C_20
REMARK    9  A    between atoms: C_29  and  C_30
REMARK                            x       y       z     vdW  Elec       q    Type
REMARK                         _______ _______ _______ _____ _____    ______ ____
ROOT
ATOM      1  C   UNL     1       3.803   4.388  19.259  0.00  0.00    +0.000 C 
ATOM      2  C   UNL     1       3.728   3.393  18.050  0.00  0.00    +0.000 C 
ATOM      3  C   UNL     1       2.373   2.970  17.540  0.00  0.00    +0.000 C 
ATOM      4  S   UNL     1       1.437   2.204  18.828  0.00  0.00    +0.000 S 
ATOM      5  O   UNL     1       0.042   2.209  18.437  0.00  0.00    +0.000 OA
ATOM      6  O   UNL     1       2.105   0.957  19.159  0.00  0.00    +0.000 OA
ATOM      7  C   UNL     1       1.660   3.320  20.201  0.00  0.00    +0.000 C 
ATOM      8  C   UNL     1       3.134   3.680  20.464  0.00  0.00    +0.000 C 
ENDROOT
BRANCH   1  11
ATOM      9  C   UNL     1       2.318   6.416  18.572  0.00  0.00    +0.000 C 
ATOM     10  O   UNL     1       1.638   5.805  17.756  0.00  0.00    +0.000 OA
ATOM     11  N   UNL     1       3.328   5.807  19.265  0.00  0.00    +0.000 N 
ATOM     12  H   UNL     1       3.733   6.373  20.006  0.00  0.00    +0.000 HD
BRANCH   9  17
ATOM     13  C   UNL     1       1.121   9.761  19.997  0.00  0.00    +0.000 A 
ATOM     14  C   UNL     1       1.414  10.619  18.936  0.00  0.00    +0.000 A 
ATOM     15  C   UNL     1       2.071  10.131  17.807  0.00  0.00    +0.000 A 
ATOM     16  C   UNL     1       2.412   8.777  17.716  0.00  0.00    +0.000 A 
ATOM     17  C   UNL     1       2.112   7.892  18.767  0.00  0.00    +0.000 A 
ATOM     18  C   UNL     1       1.500   8.398  19.939  0.00  0.00    +0.000 A 
ATOM     19  C   UNL     1       1.187   7.531  21.134  0.00  0.00    +0.000 C 
BRANCH  13  21
ATOM     20  C   UNL     1      -0.544  11.129  21.023  0.00  0.00    +0.000 C 
ATOM     21  O   UNL     1       0.499  10.167  21.151  0.00  0.00    +0.000 OA
ENDBRANCH  13  21
ENDBRANCH   9  17
ENDBRANCH   1  11
BRANCH   1  22
ATOM     22  C   UNL     1       5.343   4.659  19.375  0.00  0.00    +0.000 C 
ATOM     23  O   UNL     1       5.997   4.333  20.363  0.00  0.00    +0.000 OA
BRANCH  22  24
ATOM     24  C   UNL     1       6.037   5.372  18.209  0.00  0.00    +0.000 A 
ATOM     25  C   UNL     1       6.717   6.594  18.388  0.00  0.00    +0.000 A 
ATOM     26  C   UNL     1       7.373   7.259  17.354  0.00  0.00    +0.000 A 
ATOM     27  C   UNL     1       8.050   8.573  17.622  0.00  0.00    +0.000 C 
ATOM     28  C   UNL     1       7.390   6.668  16.098  0.00  0.00    +0.000 A 
ATOM     29  C   UNL     1       6.736   5.444  15.878  0.00  0.00    +0.000 A 
ATOM     30  C   UNL     1       6.830   4.787  14.533  0.00  0.00    +0.000 C 
ATOM     31  C   UNL     1       6.038   4.811  16.930  0.00  0.00    +0.000 A 
ENDBRANCH  22  24
ENDBRANCH   1  22
TORSDOF 5
ENDMDL
MODEL 9
REMARK VINA RESULT:      -6.6      7.347     10.351
REMARK  Name = 
REMARK  9 active torsions:
REMARK  status: ('A' for Active; 'I' for Inactive)
REMARK    1  A    between atoms: C_1  and  O_2
REMARK    2  A    between atoms: O_2  and  C_3
REMARK    3  A    between atoms: C_7  and  C_8
REMARK    4  A    between atoms: N_10  and  C_11
REMARK    5  A    between atoms: C_11  and  C_12
REMARK    6  A    between atoms: C_12  and  C_14
REMARK    7  A    between atoms: C_16  and  C_17
REMARK    8  A    between atoms: C_19  and  C_20
REMARK    9  A    between atoms: C_29  and  C_30
REMARK                            x       y       z     vdW  Elec       q    Type
REMARK                         _______ _______ _______ _____ _____    ______ ____
ROOT
ATOM      1  C   UNL     1       4.089   4.741  17.819  0.00  0.00    +0.000 C 
ATOM      2  C   UNL     1       3.422   3.695  16.863  0.00  0.00    +0.000 C 
ATOM      3  C   UNL     1       2.169   2.989  17.318  0.00  0.00    +0.000 C 
ATOM      4  S   UNL     1       2.463   2.116  18.825  0.00  0.00    +0.000 S 
ATOM      5  O   UNL     1       1.181   1.827  19.437  0.00  0.00    +0.000 OA
ATOM      6  O   UNL     1       3.394   1.043  18.524  0.00  0.00    +0.000 OA
ATOM      7  C   UNL     1       3.325   3.318  19.821  0.00  0.00    +0.000 C 
ATOM      8  C   UNL     1       4.515   3.974  19.096  0.00  0.00    +0.000 C 
ENDROOT
BRANCH   1  11
ATOM      9  C   UNL     1       2.213   6.515  18.164  0.00  0.00    +0.000 C 
ATOM     10  O   UNL     1       1.329   5.876  17.605  0.00  0.00    +0.000 OA
ATOM     11  N   UNL     1       3.490   6.037  18.266  0.00  0.00    +0.000 N 
ATOM     12  H   UNL     1       4.102   6.590  18.862  0.00  0.00    +0.000 HD
BRANCH   9  17
ATOM     13  C   UNL     1       1.026   9.387  20.400  0.00  0.00    +0.000 A 
ATOM     14  C   UNL     1       1.056  10.452  19.499  0.00  0.00    +0.000 A 
ATOM     15  C   UNL     1       1.538  10.256  18.206  0.00  0.00    +0.000 A 
ATOM     16  C   UNL     1       1.965   8.989  17.793  0.00  0.00    +0.000 A 
ATOM     17  C   UNL     1       1.928   7.898  18.680  0.00  0.00    +0.000 A 
ATOM     18  C   UNL     1       1.496   8.109  20.012  0.00  0.00    +0.000 A 
ATOM     19  C   UNL     1       1.470   7.008  21.045  0.00  0.00    +0.000 C 
BRANCH  13  21
ATOM     20  C   UNL     1      -0.319  10.562  21.983  0.00  0.00    +0.000 C 
ATOM     21  O   UNL     1       0.588   9.503  21.696  0.00  0.00    +0.000 OA
ENDBRANCH  13  21
ENDBRANCH   9  17
ENDBRANCH   1  11
BRANCH   1  22
ATOM     22  C   UNL     1       5.248   5.316  16.932  0.00  0.00    +0.000 C 
ATOM     23  O   UNL     1       5.247   5.226  15.707  0.00  0.00    +0.000 OA
BRANCH  22  24
ATOM     24  C   UNL     1       6.424   5.998  17.641  0.00  0.00    +0.000 A 
ATOM     25  C   UNL     1       6.806   7.320  17.337  0.00  0.00    +0.000 A 
ATOM     26  C   UNL     1       7.857   7.975  17.975  0.00  0.00    +0.000 A 
ATOM     27  C   UNL     1       8.219   9.376  17.572  0.00  0.00    +0.000 C 
ATOM     28  C   UNL     1       8.534   7.304  18.985  0.00  0.00    +0.000 A 
ATOM     29  C   UNL     1       8.178   5.989  19.329  0.00  0.00    +0.000 A 
ATOM     30  C   UNL     1       8.873   5.312  20.473  0.00  0.00    +0.000 C 
ATOM     31  C   UNL     1       7.140   5.329  18.638  0.00  0.00    +0.000 A 
ENDBRANCH  22  24
ENDBRANCH   1  22
TORSDOF 5
ENDMDL
