MODEL 1
REMARK VINA RESULT:      -6.9      0.000      0.000
REMARK  Name = 
REMARK  10 active torsions:
REMARK  status: ('A' for Active; 'I' for Inactive)
REMARK    1  A    between atoms: C_1  and  C_2
REMARK    2  A    between atoms: C_2  and  C_3
REMARK    3  A    between atoms: C_3  and  C_4
REMARK    4  A    between atoms: C_4  and  C_5
REMARK    5  A    between atoms: C_5  and  C_6
REMARK    6  A    between atoms: C_6  and  O_7
REMARK    7  A    between atoms: O_7  and  C_8
REMARK    8  A    between atoms: C_12  and  C_13
REMARK    9  A    between atoms: N_14  and  N_15
REMARK   10  A    between atoms: N_18  and  O_19
REMARK                            x       y       z     vdW  Elec       q    Type
REMARK                         _______ _______ _______ _____ _____    ______ ____
ROOT
ATOM      1  C   UNL     1       3.429   5.432  19.535  0.00  0.00    +0.000 A 
ATOM      2  C   UNL     1       2.389   6.362  19.472  0.00  0.00    +0.000 A 
ATOM      3  C   UNL     1       2.415   7.388  18.521  0.00  0.00    +0.000 A 
ATOM      4  C   UNL     1       3.479   7.487  17.621  0.00  0.00    +0.000 A 
ATOM      5  C   UNL     1       4.517   6.550  17.683  0.00  0.00    +0.000 A 
ATOM      6  C   UNL     1       4.486   5.531  18.638  0.00  0.00    +0.000 A 
ENDROOT
BRANCH   5   7
ATOM      7  C   UNL     1       5.639   6.589  16.712  0.00  0.00    +0.000 C 
ATOM      8  N   UNL     1       6.258   5.500  16.375  0.00  0.00    +0.000 NA
BRANCH   8   9
ATOM      9  N   UNL     1       7.251   5.723  15.412  0.00  0.00    +0.000 NA
ATOM     10  C   UNL     1       7.022   5.097  14.298  0.00  0.00    +0.000 C 
ATOM     11  N   UNL     1       5.965   4.230  14.131  0.00  0.00    +0.000 N 
ATOM     12  N   UNL     1       7.851   5.154  13.207  0.00  0.00    +0.000 N 
ATOM     13  H   UNL     1       5.309   4.348  14.912  0.00  0.00    +0.000 HD
ATOM     14  H   UNL     1       5.551   4.080  13.244  0.00  0.00    +0.000 HD
ATOM     15  H   UNL     1       7.534   4.907  12.280  0.00  0.00    +0.000 HD
BRANCH  12  16
ATOM     16  O   UNL     1       8.932   6.047  13.267  0.00  0.00    +0.000 OA
ATOM     17  H   UNL     1       9.369   5.960  12.393  0.00  0.00    +0.000 HD
ENDBRANCH  12  16
ENDBRANCH   8   9
ENDBRANCH   5   7
BRANCH   1  18
ATOM     18  O   UNL     1       3.281   4.429  20.454  0.00  0.00    +0.000 OA
BRANCH  18  19
ATOM     19  C   UNL     1       2.085   4.490  21.235  0.00  0.00    +0.000 C 
BRANCH  19  20
ATOM     20  C   UNL     1       1.313   3.193  21.020  0.00  0.00    +0.000 C 
BRANCH  20  21
ATOM     21  C   UNL     1       0.676   3.167  19.635  0.00  0.00    +0.000 C 
BRANCH  21  22
ATOM     22  C   UNL     1       1.203   2.000  18.805  0.00  0.00    +0.000 C 
BRANCH  22  24
ATOM     23  C   UNL     1       3.586   1.867  18.026  0.00  0.00    +0.000 C 
ATOM     24  C   UNL     1       2.219   2.476  17.769  0.00  0.00    +0.000 C 
ENDBRANCH  22  24
ENDBRANCH  21  22
ENDBRANCH  20  21
ENDBRANCH  19  20
ENDBRANCH  18  19
ENDBRANCH   1  18
TORSDOF 9
ENDMDL
MODEL 2
REMARK VINA RESULT:      -6.6      3.910      7.258
REMARK  Name = 
REMARK  10 active torsions:
REMARK  status: ('A' for Active; 'I' for Inactive)
REMARK    1  A    between atoms: C_1  and  C_2
REMARK    2  A    between atoms: C_2  and  C_3
REMARK    3  A    between atoms: C_3  and  C_4
REMARK    4  A    between atoms: C_4  and  C_5
REMARK    5  A    between atoms: C_5  and  C_6
REMARK    6  A    between atoms: C_6  and  O_7
REMARK    7  A    between atoms: O_7  and  C_8
REMARK    8  A    between atoms: C_12  and  C_13
REMARK    9  A    between atoms: N_14  and  N_15
REMARK   10  A    between atoms: N_18  and  O_19
REMARK                            x       y       z     vdW  Elec       q    Type
REMARK                         _______ _______ _______ _____ _____    ______ ____
ROOT
ATOM      1  C   UNL     1       5.801   4.963  15.798  0.00  0.00    +0.000 A 
ATOM      2  C   UNL     1       6.941   5.732  16.037  0.00  0.00    +0.000 A 
ATOM      3  C   UNL     1       7.259   6.140  17.337  0.00  0.00    +0.000 A 
ATOM      4  C   UNL     1       6.441   5.774  18.410  0.00  0.00    +0.000 A 
ATOM      5  C   UNL     1       5.302   4.997  18.168  0.00  0.00    +0.000 A 
ATOM      6  C   UNL     1       4.989   4.597  16.866  0.00  0.00    +0.000 A 
ENDROOT
BRANCH   5   7
ATOM      7  C   UNL     1       4.437   4.543  19.285  0.00  0.00    +0.000 C 
ATOM      8  N   UNL     1       3.740   3.455  19.179  0.00  0.00    +0.000 NA
BRANCH   8   9
ATOM      9  N   UNL     1       3.026   3.159  20.348  0.00  0.00    +0.000 NA
ATOM     10  C   UNL     1       1.746   3.075  20.150  0.00  0.00    +0.000 C 
ATOM     11  N   UNL     1       1.158   3.353  18.936  0.00  0.00    +0.000 N 
ATOM     12  N   UNL     1       0.838   2.799  21.140  0.00  0.00    +0.000 N 
ATOM     13  H   UNL     1       1.887   3.399  18.215  0.00  0.00    +0.000 HD
ATOM     14  H   UNL     1       0.309   2.924  18.659  0.00  0.00    +0.000 HD
ATOM     15  H   UNL     1      -0.093   2.464  20.934  0.00  0.00    +0.000 HD
BRANCH  12  16
ATOM     16  O   UNL     1       1.347   2.460  22.403  0.00  0.00    +0.000 OA
ATOM     17  H   UNL     1       1.909   1.673  22.235  0.00  0.00    +0.000 HD
ENDBRANCH  12  16
ENDBRANCH   8   9
ENDBRANCH   5   7
BRANCH   1  18
ATOM     18  O   UNL     1       5.610   4.559  14.505  0.00  0.00    +0.000 OA
BRANCH  18  19
ATOM     19  C   UNL     1       6.806   4.296  13.766  0.00  0.00    +0.000 C 
BRANCH  19  20
ATOM     20  C   UNL     1       6.412   3.663  12.436  0.00  0.00    +0.000 C 
BRANCH  20  21
ATOM     21  C   UNL     1       4.898   3.687  12.254  0.00  0.00    +0.000 C 
BRANCH  21  22
ATOM     22  C   UNL     1       4.464   2.773  11.112  0.00  0.00    +0.000 C 
BRANCH  22  24
ATOM     23  C   UNL     1       3.044   4.172   9.584  0.00  0.00    +0.000 C 
ATOM     24  C   UNL     1       3.042   3.097  10.657  0.00  0.00    +0.000 C 
ENDBRANCH  22  24
ENDBRANCH  21  22
ENDBRANCH  20  21
ENDBRANCH  19  20
ENDBRANCH  18  19
ENDBRANCH   1  18
TORSDOF 9
ENDMDL
MODEL 3
REMARK VINA RESULT:      -6.5      4.413      8.105
REMARK  Name = 
REMARK  10 active torsions:
REMARK  status: ('A' for Active; 'I' for Inactive)
REMARK    1  A    between atoms: C_1  and  C_2
REMARK    2  A    between atoms: C_2  and  C_3
REMARK    3  A    between atoms: C_3  and  C_4
REMARK    4  A    between atoms: C_4  and  C_5
REMARK    5  A    between atoms: C_5  and  C_6
REMARK    6  A    between atoms: C_6  and  O_7
REMARK    7  A    between atoms: O_7  and  C_8
REMARK    8  A    between atoms: C_12  and  C_13
REMARK    9  A    between atoms: N_14  and  N_15
REMARK   10  A    between atoms: N_18  and  O_19
REMARK                            x       y       z     vdW  Elec       q    Type
REMARK                         _______ _______ _______ _____ _____    ______ ____
ROOT
ATOM      1  C   UNL     1       6.863   5.929  16.689  0.00  0.00    +0.000 A 
ATOM      2  C   UNL     1       6.696   5.252  15.479  0.00  0.00    +0.000 A 
ATOM      3  C   UNL     1       5.780   4.199  15.379  0.00  0.00    +0.000 A 
ATOM      4  C   UNL     1       5.019   3.820  16.488  0.00  0.00    +0.000 A 
ATOM      5  C   UNL     1       5.185   4.504  17.698  0.00  0.00    +0.000 A 
ATOM      6  C   UNL     1       6.104   5.552  17.792  0.00  0.00    +0.000 A 
ENDROOT
BRANCH   5   7
ATOM      7  C   UNL     1       4.359   4.167  18.884  0.00  0.00    +0.000 C 
ATOM      8  N   UNL     1       3.709   3.046  18.938  0.00  0.00    +0.000 NA
BRANCH   8   9
ATOM      9  N   UNL     1       3.028   2.878  20.152  0.00  0.00    +0.000 NA
ATOM     10  C   UNL     1       1.738   2.928  20.017  0.00  0.00    +0.000 C 
ATOM     11  N   UNL     1       1.122   3.219  18.820  0.00  0.00    +0.000 N 
ATOM     12  N   UNL     1       0.857   2.794  21.059  0.00  0.00    +0.000 N 
ATOM     13  H   UNL     1       1.814   3.155  18.064  0.00  0.00    +0.000 HD
ATOM     14  H   UNL     1       0.219   2.874  18.603  0.00  0.00    +0.000 HD
ATOM     15  H   UNL     1      -0.114   2.555  20.913  0.00  0.00    +0.000 HD
BRANCH  12  16
ATOM     16  O   UNL     1       1.390   2.453  22.312  0.00  0.00    +0.000 OA
ATOM     17  H   UNL     1       2.090   3.123  22.469  0.00  0.00    +0.000 HD
ENDBRANCH  12  16
ENDBRANCH   8   9
ENDBRANCH   5   7
BRANCH   1  18
ATOM     18  O   UNL     1       7.733   6.985  16.670  0.00  0.00    +0.000 OA
BRANCH  18  19
ATOM     19  C   UNL     1       7.972   7.601  17.938  0.00  0.00    +0.000 C 
BRANCH  19  20
ATOM     20  C   UNL     1       8.017   9.111  17.730  0.00  0.00    +0.000 C 
BRANCH  20  21
ATOM     21  C   UNL     1       8.914   9.772  18.772  0.00  0.00    +0.000 C 
BRANCH  21  22
ATOM     22  C   UNL     1       9.681  10.948  18.176  0.00  0.00    +0.000 C 
BRANCH  22  24
ATOM     23  C   UNL     1       9.802  11.396  20.643  0.00  0.00    +0.000 C 
ATOM     24  C   UNL     1      10.298  11.816  19.271  0.00  0.00    +0.000 C 
ENDBRANCH  22  24
ENDBRANCH  21  22
ENDBRANCH  20  21
ENDBRANCH  19  20
ENDBRANCH  18  19
ENDBRANCH   1  18
TORSDOF 9
ENDMDL
MODEL 4
REMARK VINA RESULT:      -6.3      1.072      1.305
REMARK  Name = 
REMARK  10 active torsions:
REMARK  status: ('A' for Active; 'I' for Inactive)
REMARK    1  A    between atoms: C_1  and  C_2
REMARK    2  A    between atoms: C_2  and  C_3
REMARK    3  A    between atoms: C_3  and  C_4
REMARK    4  A    between atoms: C_4  and  C_5
REMARK    5  A    between atoms: C_5  and  C_6
REMARK    6  A    between atoms: C_6  and  O_7
REMARK    7  A    between atoms: O_7  and  C_8
REMARK    8  A    between atoms: C_12  and  C_13
REMARK    9  A    between atoms: N_14  and  N_15
REMARK   10  A    between atoms: N_18  and  O_19
REMARK                            x       y       z     vdW  Elec       q    Type
REMARK                         _______ _______ _______ _____ _____    ______ ____
ROOT
ATOM      1  C   UNL     1       2.626   5.981  19.944  0.00  0.00    +0.000 A 
ATOM      2  C   UNL     1       1.839   7.117  20.143  0.00  0.00    +0.000 A 
ATOM      3  C   UNL     1       1.898   8.183  19.239  0.00  0.00    +0.000 A 
ATOM      4  C   UNL     1       2.739   8.117  18.125  0.00  0.00    +0.000 A 
ATOM      5  C   UNL     1       3.522   6.975  17.926  0.00  0.00    +0.000 A 
ATOM      6  C   UNL     1       3.462   5.915  18.835  0.00  0.00    +0.000 A 
ENDROOT
BRANCH   5   7
ATOM      7  C   UNL     1       4.389   6.843  16.728  0.00  0.00    +0.000 C 
ATOM      8  N   UNL     1       5.400   6.031  16.732  0.00  0.00    +0.000 NA
BRANCH   8   9
ATOM      9  N   UNL     1       6.070   6.002  15.501  0.00  0.00    +0.000 NA
ATOM     10  C   UNL     1       7.112   5.228  15.513  0.00  0.00    +0.000 C 
ATOM     11  N   UNL     1       7.558   4.592  16.650  0.00  0.00    +0.000 N 
ATOM     12  N   UNL     1       7.932   5.037  14.430  0.00  0.00    +0.000 N 
ATOM     13  H   UNL     1       6.829   4.648  17.372  0.00  0.00    +0.000 HD
ATOM     14  H   UNL     1       8.051   3.734  16.606  0.00  0.00    +0.000 HD
ATOM     15  H   UNL     1       8.551   4.242  14.361  0.00  0.00    +0.000 HD
BRANCH  12  16
ATOM     16  O   UNL     1       7.534   5.612  13.213  0.00  0.00    +0.000 OA
ATOM     17  H   UNL     1       8.304   6.153  12.936  0.00  0.00    +0.000 HD
ENDBRANCH  12  16
ENDBRANCH   8   9
ENDBRANCH   5   7
BRANCH   1  18
ATOM     18  O   UNL     1       2.451   4.965  20.845  0.00  0.00    +0.000 OA
BRANCH  18  19
ATOM     19  C   UNL     1       1.189   4.297  20.772  0.00  0.00    +0.000 C 
BRANCH  19  20
ATOM     20  C   UNL     1       1.446   2.836  20.418  0.00  0.00    +0.000 C 
BRANCH  20  21
ATOM     21  C   UNL     1       0.823   2.490  19.069  0.00  0.00    +0.000 C 
BRANCH  21  22
ATOM     22  C   UNL     1       1.809   2.724  17.929  0.00  0.00    +0.000 C 
BRANCH  22  24
ATOM     23  C   UNL     1       4.258   2.778  17.380  0.00  0.00    +0.000 C 
ATOM     24  C   UNL     1       3.190   2.170  18.272  0.00  0.00    +0.000 C 
ENDBRANCH  22  24
ENDBRANCH  21  22
ENDBRANCH  20  21
ENDBRANCH  19  20
ENDBRANCH  18  19
ENDBRANCH   1  18
TORSDOF 9
ENDMDL
MODEL 5
REMARK VINA RESULT:      -6.3      3.841      7.307
REMARK  Name = 
REMARK  10 active torsions:
REMARK  status: ('A' for Active; 'I' for Inactive)
REMARK    1  A    between atoms: C_1  and  C_2
REMARK    2  A    between atoms: C_2  and  C_3
REMARK    3  A    between atoms: C_3  and  C_4
REMARK    4  A    between atoms: C_4  and  C_5
REMARK    5  A    between atoms: C_5  and  C_6
REMARK    6  A    between atoms: C_6  and  O_7
REMARK    7  A    between atoms: O_7  and  C_8
REMARK    8  A    between atoms: C_12  and  C_13
REMARK    9  A    between atoms: N_14  and  N_15
REMARK   10  A    between atoms: N_18  and  O_19
REMARK                            x       y       z     vdW  Elec       q    Type
REMARK                         _______ _______ _______ _____ _____    ______ ____
ROOT
ATOM      1  C   UNL     1       6.061   4.637  15.791  0.00  0.00    +0.000 A 
ATOM      2  C   UNL     1       7.100   5.544  16.005  0.00  0.00    +0.000 A 
ATOM      3  C   UNL     1       7.305   6.096  17.274  0.00  0.00    +0.000 A 
ATOM      4  C   UNL     1       6.477   5.738  18.341  0.00  0.00    +0.000 A 
ATOM      5  C   UNL     1       5.440   4.823  18.124  0.00  0.00    +0.000 A 
ATOM      6  C   UNL     1       5.238   4.279  16.853  0.00  0.00    +0.000 A 
ENDROOT
BRANCH   5   7
ATOM      7  C   UNL     1       4.571   4.377  19.241  0.00  0.00    +0.000 C 
ATOM      8  N   UNL     1       3.763   3.374  19.088  0.00  0.00    +0.000 NA
BRANCH   8   9
ATOM      9  N   UNL     1       3.062   3.064  20.262  0.00  0.00    +0.000 NA
ATOM     10  C   UNL     1       1.775   3.140  20.115  0.00  0.00    +0.000 C 
ATOM     11  N   UNL     1       1.180   3.578  18.953  0.00  0.00    +0.000 N 
ATOM     12  N   UNL     1       0.877   2.887  21.120  0.00  0.00    +0.000 N 
ATOM     13  H   UNL     1       1.883   3.602  18.205  0.00  0.00    +0.000 HD
ATOM     14  H   UNL     1       0.278   3.270  18.682  0.00  0.00    +0.000 HD
ATOM     15  H   UNL     1      -0.093   2.675  20.931  0.00  0.00    +0.000 HD
BRANCH  12  16
ATOM     16  O   UNL     1       1.388   2.392  22.330  0.00  0.00    +0.000 OA
ATOM     17  H   UNL     1       1.152   3.077  22.992  0.00  0.00    +0.000 HD
ENDBRANCH  12  16
ENDBRANCH   8   9
ENDBRANCH   5   7
BRANCH   1  18
ATOM     18  O   UNL     1       5.981   4.103  14.533  0.00  0.00    +0.000 OA
BRANCH  18  19
ATOM     19  C   UNL     1       6.998   4.531  13.624  0.00  0.00    +0.000 C 
BRANCH  19  20
ATOM     20  C   UNL     1       6.747   3.856  12.280  0.00  0.00    +0.000 C 
BRANCH  20  21
ATOM     21  C   UNL     1       5.400   3.139  12.279  0.00  0.00    +0.000 C 
BRANCH  21  22
ATOM     22  C   UNL     1       5.322   2.112  11.153  0.00  0.00    +0.000 C 
BRANCH  22  24
ATOM     23  C   UNL     1       6.147  -0.254  11.323  0.00  0.00    +0.000 C 
ATOM     24  C   UNL     1       6.548   1.201  11.152  0.00  0.00    +0.000 C 
ENDBRANCH  22  24
ENDBRANCH  21  22
ENDBRANCH  20  21
ENDBRANCH  19  20
ENDBRANCH  18  19
ENDBRANCH   1  18
TORSDOF 9
ENDMDL
MODEL 6
REMARK VINA RESULT:      -6.2      2.025      2.634
REMARK  Name = 
REMARK  10 active torsions:
REMARK  status: ('A' for Active; 'I' for Inactive)
REMARK    1  A    between atoms: C_1  and  C_2
REMARK    2  A    between atoms: C_2  and  C_3
REMARK    3  A    between atoms: C_3  and  C_4
REMARK    4  A    between atoms: C_4  and  C_5
REMARK    5  A    between atoms: C_5  and  C_6
REMARK    6  A    between atoms: C_6  and  O_7
REMARK    7  A    between atoms: O_7  and  C_8
REMARK    8  A    between atoms: C_12  and  C_13
REMARK    9  A    between atoms: N_14  and  N_15
REMARK   10  A    between atoms: N_18  and  O_19
REMARK                            x       y       z     vdW  Elec       q    Type
REMARK                         _______ _______ _______ _____ _____    ______ ____
ROOT
ATOM      1  C   UNL     1       4.231   5.366  18.290  0.00  0.00    +0.000 A 
ATOM      2  C   UNL     1       4.099   6.720  17.975  0.00  0.00    +0.000 A 
ATOM      3  C   UNL     1       4.571   7.210  16.752  0.00  0.00    +0.000 A 
ATOM      4  C   UNL     1       5.172   6.347  15.832  0.00  0.00    +0.000 A 
ATOM      5  C   UNL     1       5.298   4.990  16.148  0.00  0.00    +0.000 A 
ATOM      6  C   UNL     1       4.828   4.508  17.373  0.00  0.00    +0.000 A 
ENDROOT
BRANCH   5   7
ATOM      7  C   UNL     1       5.882   4.031  15.178  0.00  0.00    +0.000 C 
ATOM      8  N   UNL     1       5.643   4.149  13.909  0.00  0.00    +0.000 NA
BRANCH   8   9
ATOM      9  N   UNL     1       6.319   3.190  13.143  0.00  0.00    +0.000 NA
ATOM     10  C   UNL     1       5.657   2.832  12.085  0.00  0.00    +0.000 C 
ATOM     11  N   UNL     1       4.384   3.280  11.813  0.00  0.00    +0.000 N 
ATOM     12  N   UNL     1       6.108   1.904  11.182  0.00  0.00    +0.000 N 
ATOM     13  H   UNL     1       4.170   4.073  12.429  0.00  0.00    +0.000 HD
ATOM     14  H   UNL     1       4.047   3.357  10.884  0.00  0.00    +0.000 HD
ATOM     15  H   UNL     1       5.735   1.843  10.245  0.00  0.00    +0.000 HD
BRANCH  12  16
ATOM     16  O   UNL     1       7.415   1.422  11.353  0.00  0.00    +0.000 OA
ATOM     17  H   UNL     1       7.518   0.744  10.651  0.00  0.00    +0.000 HD
ENDBRANCH  12  16
ENDBRANCH   8   9
ENDBRANCH   5   7
BRANCH   1  18
ATOM     18  O   UNL     1       3.681   4.971  19.479  0.00  0.00    +0.000 OA
BRANCH  18  19
ATOM     19  C   UNL     1       2.610   5.788  19.956  0.00  0.00    +0.000 C 
BRANCH  19  20
ATOM     20  C   UNL     1       1.451   4.875  20.341  0.00  0.00    +0.000 C 
BRANCH  20  21
ATOM     21  C   UNL     1       1.931   3.438  20.516  0.00  0.00    +0.000 C 
BRANCH  21  22
ATOM     22  C   UNL     1       1.153   2.481  19.619  0.00  0.00    +0.000 C 
BRANCH  22  24
ATOM     23  C   UNL     1       3.236   1.593  18.535  0.00  0.00    +0.000 C 
ATOM     24  C   UNL     1       1.885   2.245  18.299  0.00  0.00    +0.000 C 
ENDBRANCH  22  24
ENDBRANCH  21  22
ENDBRANCH  20  21
ENDBRANCH  19  20
ENDBRANCH  18  19
ENDBRANCH   1  18
TORSDOF 9
ENDMDL
MODEL 7
REMARK VINA RESULT:      -6.2      4.259      5.401
REMARK  Name = 
REMARK  10 active torsions:
REMARK  status: ('A' for Active; 'I' for Inactive)
REMARK    1  A    between atoms: C_1  and  C_2
REMARK    2  A    between atoms: C_2  and  C_3
REMARK    3  A    between atoms: C_3  and  C_4
REMARK    4  A    between atoms: C_4  and  C_5
REMARK    5  A    between atoms: C_5  and  C_6
REMARK    6  A    between atoms: C_6  and  O_7
REMARK    7  A    between atoms: O_7  and  C_8
REMARK    8  A    between atoms: C_12  and  C_13
REMARK    9  A    between atoms: N_14  and  N_15
REMARK   10  A    between atoms: N_18  and  O_19
REMARK                            x       y       z     vdW  Elec       q    Type
REMARK                         _______ _______ _______ _____ _____    ______ ____
ROOT
ATOM      1  C   UNL     1       6.056   5.376  17.128  0.00  0.00    +0.000 A 
ATOM      2  C   UNL     1       6.669   4.644  18.147  0.00  0.00    +0.000 A 
ATOM      3  C   UNL     1       7.659   5.232  18.942  0.00  0.00    +0.000 A 
ATOM      4  C   UNL     1       8.039   6.559  18.728  0.00  0.00    +0.000 A 
ATOM      5  C   UNL     1       7.419   7.292  17.709  0.00  0.00    +0.000 A 
ATOM      6  C   UNL     1       6.434   6.698  16.917  0.00  0.00    +0.000 A 
ENDROOT
BRANCH   5   7
ATOM      7  C   UNL     1       7.756   8.720  17.483  0.00  0.00    +0.000 C 
ATOM      8  N   UNL     1       8.491   9.367  18.334  0.00  0.00    +0.000 NA
BRANCH   8   9
ATOM      9  N   UNL     1       8.746  10.684  17.930  0.00  0.00    +0.000 NA
ATOM     10  C   UNL     1       9.343  11.385  18.846  0.00  0.00    +0.000 C 
ATOM     11  N   UNL     1       9.599  10.901  20.109  0.00  0.00    +0.000 N 
ATOM     12  N   UNL     1       9.695  12.701  18.690  0.00  0.00    +0.000 N 
ATOM     13  H   UNL     1       9.457   9.884  20.113  0.00  0.00    +0.000 HD
ATOM     14  H   UNL     1      10.365  11.228  20.646  0.00  0.00    +0.000 HD
ATOM     15  H   UNL     1      10.391  13.143  19.275  0.00  0.00    +0.000 HD
BRANCH  12  16
ATOM     16  O   UNL     1       9.513  13.269  17.419  0.00  0.00    +0.000 OA
ATOM     17  H   UNL     1       9.662  14.229  17.558  0.00  0.00    +0.000 HD
ENDBRANCH  12  16
ENDBRANCH   8   9
ENDBRANCH   5   7
BRANCH   1  18
ATOM     18  O   UNL     1       5.055   4.737  16.449  0.00  0.00    +0.000 OA
BRANCH  18  19
ATOM     19  C   UNL     1       4.109   4.045  17.268  0.00  0.00    +0.000 C 
BRANCH  19  20
ATOM     20  C   UNL     1       3.096   5.060  17.784  0.00  0.00    +0.000 C 
BRANCH  20  21
ATOM     21  C   UNL     1       1.690   4.466  17.788  0.00  0.00    +0.000 C 
BRANCH  21  22
ATOM     22  C   UNL     1       1.579   3.317  18.785  0.00  0.00    +0.000 C 
BRANCH  22  24
ATOM     23  C   UNL     1       1.429   2.976  21.268  0.00  0.00    +0.000 C 
ATOM     24  C   UNL     1       0.918   3.777  20.083  0.00  0.00    +0.000 C 
ENDBRANCH  22  24
ENDBRANCH  21  22
ENDBRANCH  20  21
ENDBRANCH  19  20
ENDBRANCH  18  19
ENDBRANCH   1  18
TORSDOF 9
ENDMDL
MODEL 8
REMARK VINA RESULT:      -6.2      4.619      6.533
REMARK  Name = 
REMARK  10 active torsions:
REMARK  status: ('A' for Active; 'I' for Inactive)
REMARK    1  A    between atoms: C_1  and  C_2
REMARK    2  A    between atoms: C_2  and  C_3
REMARK    3  A    between atoms: C_3  and  C_4
REMARK    4  A    between atoms: C_4  and  C_5
REMARK    5  A    between atoms: C_5  and  C_6
REMARK    6  A    between atoms: C_6  and  O_7
REMARK    7  A    between atoms: O_7  and  C_8
REMARK    8  A    between atoms: C_12  and  C_13
REMARK    9  A    between atoms: N_14  and  N_15
REMARK   10  A    between atoms: N_18  and  O_19
REMARK                            x       y       z     vdW  Elec       q    Type
REMARK                         _______ _______ _______ _____ _____    ______ ____
ROOT
ATOM      1  C   UNL     1       6.073   5.641  17.360  0.00  0.00    +0.000 A 
ATOM      2  C   UNL     1       6.676   4.917  18.391  0.00  0.00    +0.000 A 
ATOM      3  C   UNL     1       7.707   5.488  19.145  0.00  0.00    +0.000 A 
ATOM      4  C   UNL     1       8.139   6.790  18.877  0.00  0.00    +0.000 A 
ATOM      5  C   UNL     1       7.529   7.515  17.847  0.00  0.00    +0.000 A 
ATOM      6  C   UNL     1       6.502   6.937  17.096  0.00  0.00    +0.000 A 
ENDROOT
BRANCH   5   7
ATOM      7  C   UNL     1       7.921   8.918  17.566  0.00  0.00    +0.000 C 
ATOM      8  N   UNL     1       8.573   9.610  18.447  0.00  0.00    +0.000 NA
BRANCH   8   9
ATOM      9  N   UNL     1       8.902  10.892  17.988  0.00  0.00    +0.000 NA
ATOM     10  C   UNL     1       9.483  11.618  18.893  0.00  0.00    +0.000 C 
ATOM     11  N   UNL     1       9.658  11.195  20.192  0.00  0.00    +0.000 N 
ATOM     12  N   UNL     1       9.896  12.909  18.686  0.00  0.00    +0.000 N 
ATOM     13  H   UNL     1       9.475  10.186  20.242  0.00  0.00    +0.000 HD
ATOM     14  H   UNL     1      10.411  11.521  20.748  0.00  0.00    +0.000 HD
ATOM     15  H   UNL     1      10.580  13.356  19.281  0.00  0.00    +0.000 HD
BRANCH  12  16
ATOM     16  O   UNL     1       9.798  13.414  17.380  0.00  0.00    +0.000 OA
ATOM     17  H   UNL     1       9.129  12.841  16.947  0.00  0.00    +0.000 HD
ENDBRANCH  12  16
ENDBRANCH   8   9
ENDBRANCH   5   7
BRANCH   1  18
ATOM     18  O   UNL     1       5.031   5.023  16.724  0.00  0.00    +0.000 OA
BRANCH  18  19
ATOM     19  C   UNL     1       5.335   3.749  16.152  0.00  0.00    +0.000 C 
BRANCH  19  20
ATOM     20  C   UNL     1       6.309   3.966  15.000  0.00  0.00    +0.000 C 
BRANCH  20  21
ATOM     21  C   UNL     1       5.556   4.229  13.699  0.00  0.00    +0.000 C 
BRANCH  21  22
ATOM     22  C   UNL     1       6.264   3.586  12.511  0.00  0.00    +0.000 C 
BRANCH  22  24
ATOM     23  C   UNL     1       4.104   3.246  11.277  0.00  0.00    +0.000 C 
ATOM     24  C   UNL     1       5.357   2.575  11.810  0.00  0.00    +0.000 C 
ENDBRANCH  22  24
ENDBRANCH  21  22
ENDBRANCH  20  21
ENDBRANCH  19  20
ENDBRANCH  18  19
ENDBRANCH   1  18
TORSDOF 9
ENDMDL
MODEL 9
REMARK VINA RESULT:      -6.2      4.358      5.799
REMARK  Name = 
REMARK  10 active torsions:
REMARK  status: ('A' for Active; 'I' for Inactive)
REMARK    1  A    between atoms: C_1  and  C_2
REMARK    2  A    between atoms: C_2  and  C_3
REMARK    3  A    between atoms: C_3  and  C_4
REMARK    4  A    between atoms: C_4  and  C_5
REMARK    5  A    between atoms: C_5  and  C_6
REMARK    6  A    between atoms: C_6  and  O_7
REMARK    7  A    between atoms: O_7  and  C_8
REMARK    8  A    between atoms: C_12  and  C_13
REMARK    9  A    between atoms: N_14  and  N_15
REMARK   10  A    between atoms: N_18  and  O_19
REMARK                            x       y       z     vdW  Elec       q    Type
REMARK                         _______ _______ _______ _____ _____    ______ ____
ROOT
ATOM      1  C   UNL     1       3.523   5.371  19.303  0.00  0.00    +0.000 A 
ATOM      2  C   UNL     1       4.713   5.182  18.596  0.00  0.00    +0.000 A 
ATOM      3  C   UNL     1       5.080   6.073  17.581  0.00  0.00    +0.000 A 
ATOM      4  C   UNL     1       4.262   7.163  17.270  0.00  0.00    +0.000 A 
ATOM      5  C   UNL     1       3.074   7.352  17.984  0.00  0.00    +0.000 A 
ATOM      6  C   UNL     1       2.712   6.457  18.994  0.00  0.00    +0.000 A 
ENDROOT
BRANCH   5   7
ATOM      7  C   UNL     1       2.205   8.526  17.721  0.00  0.00    +0.000 C 
ATOM      8  N   UNL     1       1.555   9.095  18.688  0.00  0.00    +0.000 NA
BRANCH   8   9
ATOM      9  N   UNL     1       0.829  10.216  18.261  0.00  0.00    +0.000 NA
ATOM     10  C   UNL     1      -0.103  10.560  19.096  0.00  0.00    +0.000 C 
ATOM     11  N   UNL     1      -0.402   9.832  20.226  0.00  0.00    +0.000 N 
ATOM     12  N   UNL     1      -0.948  11.622  18.899  0.00  0.00    +0.000 N 
ATOM     13  H   UNL     1       0.351   9.154  20.395  0.00  0.00    +0.000 HD
ATOM     14  H   UNL     1      -0.782  10.259  21.035  0.00  0.00    +0.000 HD
ATOM     15  H   UNL     1      -1.464  12.045  19.658  0.00  0.00    +0.000 HD
BRANCH  12  16
ATOM     16  O   UNL     1      -0.693  12.450  17.795  0.00  0.00    +0.000 OA
ATOM     17  H   UNL     1      -1.554  12.502  17.326  0.00  0.00    +0.000 HD
ENDBRANCH  12  16
ENDBRANCH   8   9
ENDBRANCH   5   7
BRANCH   1  18
ATOM     18  O   UNL     1       3.284   4.487  20.319  0.00  0.00    +0.000 OA
BRANCH  18  19
ATOM     19  C   UNL     1       2.113   4.752  21.095  0.00  0.00    +0.000 C 
BRANCH  19  20
ATOM     20  C   UNL     1       1.014   3.799  20.636  0.00  0.00    +0.000 C 
BRANCH  20  21
ATOM     21  C   UNL     1       1.613   2.505  20.094  0.00  0.00    +0.000 C 
BRANCH  21  22
ATOM     22  C   UNL     1       1.176   2.254  18.654  0.00  0.00    +0.000 C 
BRANCH  22  24
ATOM     23  C   UNL     1       3.568   1.576  18.303  0.00  0.00    +0.000 C 
ATOM     24  C   UNL     1       2.370   2.290  17.702  0.00  0.00    +0.000 C 
ENDBRANCH  22  24
ENDBRANCH  21  22
ENDBRANCH  20  21
ENDBRANCH  19  20
ENDBRANCH  18  19
ENDBRANCH   1  18
TORSDOF 9
ENDMDL
