MODEL 1
REMARK VINA RESULT:      -9.1      0.000      0.000
REMARK  Name = 
REMARK  2 active torsions:
REMARK  status: ('A' for Active; 'I' for Inactive)
REMARK    1  A    between atoms: C_8  and  N_9
REMARK    2  A    between atoms: N_12  and  C_13
REMARK                            x       y       z     vdW  Elec       q    Type
REMARK                         _______ _______ _______ _____ _____    ______ ____
ROOT
ATOM      1  N   UNL     1       7.738   8.957  17.606  0.00  0.00    +0.000 N 
ATOM      2  C   UNL     1       7.792   7.636  18.020  0.00  0.00    +0.000 C 
ATOM      3  O   UNL     1       8.507   7.175  18.899  0.00  0.00    +0.000 OA
ATOM      4  N   UNL     1       6.926   6.841  17.308  0.00  0.00    +0.000 N 
ATOM      5  H   UNL     1       7.200   9.157  16.777  0.00  0.00    +0.000 HD
ATOM      6  H   UNL     1       6.496   7.211  16.480  0.00  0.00    +0.000 HD
ENDROOT
BRANCH   1  14
ATOM      7  O   UNL     1       9.700  15.804  17.479  0.00  0.00    +0.000 OA
ATOM      8  C   UNL     1       9.684  14.722  18.055  0.00  0.00    +0.000 C 
ATOM      9  C   UNL     1      10.233  14.514  19.466  0.00  0.00    +0.000 C 
ATOM     10  O   UNL     1      10.585  13.204  19.881  0.00  0.00    +0.000 OA
ATOM     11  C   UNL     1       9.846  12.209  19.299  0.00  0.00    +0.000 A 
ATOM     12  C   UNL     1       9.910  10.964  19.896  0.00  0.00    +0.000 A 
ATOM     13  C   UNL     1       9.214   9.887  19.346  0.00  0.00    +0.000 A 
ATOM     14  C   UNL     1       8.459  10.035  18.178  0.00  0.00    +0.000 A 
ATOM     15  C   UNL     1       8.397  11.300  17.569  0.00  0.00    +0.000 A 
ATOM     16  C   UNL     1       9.099  12.380  18.130  0.00  0.00    +0.000 A 
ATOM     17  N   UNL     1       9.081  13.627  17.497  0.00  0.00    +0.000 N 
ATOM     18  H   UNL     1       8.648  13.756  16.595  0.00  0.00    +0.000 HD
ENDBRANCH   1  14
BRANCH   4  19
ATOM     19  C   UNL     1       6.850   5.393  17.507  0.00  0.00    +0.000 C 
ATOM     20  C   UNL     1       7.310   4.634  16.260  0.00  0.00    +0.000 C 
ATOM     21  C   UNL     1       6.234   4.747  15.193  0.00  0.00    +0.000 C 
ATOM     22  O   UNL     1       5.009   4.131  15.599  0.00  0.00    +0.000 OA
ATOM     23  C   UNL     1       4.595   4.440  16.865  0.00  0.00    +0.000 A 
ATOM     24  C   UNL     1       3.274   4.109  17.174  0.00  0.00    +0.000 A 
ATOM     25  C   UNL     1       2.761   4.384  18.441  0.00  0.00    +0.000 A 
ATOM     26  C   UNL     1       3.574   4.988  19.390  0.00  0.00    +0.000 A 
ATOM     27  F   UNL     1       3.080   5.261  20.605  0.00  0.00    +0.000 F 
ATOM     28  C   UNL     1       4.895   5.314  19.100  0.00  0.00    +0.000 A 
ATOM     29  C   UNL     1       5.424   5.030  17.831  0.00  0.00    +0.000 A 
ENDBRANCH   4  19
TORSDOF 2
ENDMDL
MODEL 2
REMARK VINA RESULT:      -9.1      6.022      9.065
REMARK  Name = 
REMARK  2 active torsions:
REMARK  status: ('A' for Active; 'I' for Inactive)
REMARK    1  A    between atoms: C_8  and  N_9
REMARK    2  A    between atoms: N_12  and  C_13
REMARK                            x       y       z     vdW  Elec       q    Type
REMARK                         _______ _______ _______ _____ _____    ______ ____
ROOT
ATOM      1  N   UNL     1       2.211   7.716  18.849  0.00  0.00    +0.000 N 
ATOM      2  C   UNL     1       1.838   8.918  18.271  0.00  0.00    +0.000 C 
ATOM      3  O   UNL     1       2.099   9.296  17.137  0.00  0.00    +0.000 OA
ATOM      4  N   UNL     1       1.113   9.700  19.138  0.00  0.00    +0.000 N 
ATOM      5  H   UNL     1       2.039   7.608  19.836  0.00  0.00    +0.000 HD
ATOM      6  H   UNL     1       1.076   9.444  20.108  0.00  0.00    +0.000 HD
ENDROOT
BRANCH   1  14
ATOM      7  O   UNL     1       7.674   5.518  14.841  0.00  0.00    +0.000 OA
ATOM      8  C   UNL     1       6.697   5.249  15.531  0.00  0.00    +0.000 C 
ATOM      9  C   UNL     1       6.300   3.821  15.904  0.00  0.00    +0.000 C 
ATOM     10  O   UNL     1       4.963   3.562  16.304  0.00  0.00    +0.000 OA
ATOM     11  C   UNL     1       4.347   4.610  16.931  0.00  0.00    +0.000 A 
ATOM     12  C   UNL     1       3.190   4.319  17.628  0.00  0.00    +0.000 A 
ATOM     13  C   UNL     1       2.481   5.337  18.267  0.00  0.00    +0.000 A 
ATOM     14  C   UNL     1       2.910   6.667  18.201  0.00  0.00    +0.000 A 
ATOM     15  C   UNL     1       4.085   6.964  17.490  0.00  0.00    +0.000 A 
ATOM     16  C   UNL     1       4.795   5.933  16.851  0.00  0.00    +0.000 A 
ATOM     17  N   UNL     1       5.934   6.233  16.100  0.00  0.00    +0.000 N 
ATOM     18  H   UNL     1       6.219   7.186  15.927  0.00  0.00    +0.000 HD
ENDBRANCH   1  14
BRANCH   4  19
ATOM     19  C   UNL     1       0.666  11.049  18.789  0.00  0.00    +0.000 C 
ATOM     20  C   UNL     1       0.938  12.038  19.925  0.00  0.00    +0.000 C 
ATOM     21  C   UNL     1      -0.054  11.782  21.046  0.00  0.00    +0.000 C 
ATOM     22  O   UNL     1      -1.403  12.019  20.633  0.00  0.00    +0.000 OA
ATOM     23  C   UNL     1      -1.745  11.471  19.428  0.00  0.00    +0.000 A 
ATOM     24  C   UNL     1      -3.113  11.422  19.147  0.00  0.00    +0.000 A 
ATOM     25  C   UNL     1      -3.561  10.882  17.941  0.00  0.00    +0.000 A 
ATOM     26  C   UNL     1      -2.636  10.397  17.025  0.00  0.00    +0.000 A 
ATOM     27  F   UNL     1      -3.065   9.870  15.871  0.00  0.00    +0.000 F 
ATOM     28  C   UNL     1      -1.272  10.450  17.289  0.00  0.00    +0.000 A 
ATOM     29  C   UNL     1      -0.811  11.002  18.494  0.00  0.00    +0.000 A 
ENDBRANCH   4  19
TORSDOF 2
ENDMDL
MODEL 3
REMARK VINA RESULT:      -9.0      6.302      8.007
REMARK  Name = 
REMARK  2 active torsions:
REMARK  status: ('A' for Active; 'I' for Inactive)
REMARK    1  A    between atoms: C_8  and  N_9
REMARK    2  A    between atoms: N_12  and  C_13
REMARK                            x       y       z     vdW  Elec       q    Type
REMARK                         _______ _______ _______ _____ _____    ______ ____
ROOT
ATOM      1  N   UNL     1       1.645   8.829  17.829  0.00  0.00    +0.000 N 
ATOM      2  C   UNL     1       2.260   7.883  18.632  0.00  0.00    +0.000 C 
ATOM      3  O   UNL     1       2.159   7.778  19.847  0.00  0.00    +0.000 OA
ATOM      4  N   UNL     1       3.046   7.025  17.901  0.00  0.00    +0.000 N 
ATOM      5  H   UNL     1       1.935   8.872  16.864  0.00  0.00    +0.000 HD
ATOM      6  H   UNL     1       3.251   7.250  16.944  0.00  0.00    +0.000 HD
ENDROOT
BRANCH   1  14
ATOM      7  O   UNL     1      -4.984  11.433  17.958  0.00  0.00    +0.000 OA
ATOM      8  C   UNL     1      -3.827  11.475  18.359  0.00  0.00    +0.000 C 
ATOM      9  C   UNL     1      -3.357  12.415  19.469  0.00  0.00    +0.000 C 
ATOM     10  O   UNL     1      -1.976  12.725  19.568  0.00  0.00    +0.000 OA
ATOM     11  C   UNL     1      -1.140  11.730  19.139  0.00  0.00    +0.000 A 
ATOM     12  C   UNL     1       0.186  11.834  19.512  0.00  0.00    +0.000 A 
ATOM     13  C   UNL     1       1.111  10.879  19.088  0.00  0.00    +0.000 A 
ATOM     14  C   UNL     1       0.725   9.815  18.266  0.00  0.00    +0.000 A 
ATOM     15  C   UNL     1      -0.623   9.711  17.883  0.00  0.00    +0.000 A 
ATOM     16  C   UNL     1      -1.549  10.675  18.317  0.00  0.00    +0.000 A 
ATOM     17  N   UNL     1      -2.880  10.603  17.895  0.00  0.00    +0.000 N 
ATOM     18  H   UNL     1      -3.183   9.924  17.212  0.00  0.00    +0.000 HD
ENDBRANCH   1  14
BRANCH   4  19
ATOM     19  C   UNL     1       3.860   5.983  18.528  0.00  0.00    +0.000 C 
ATOM     20  C   UNL     1       5.210   5.830  17.825  0.00  0.00    +0.000 C 
ATOM     21  C   UNL     1       4.993   5.139  16.489  0.00  0.00    +0.000 C 
ATOM     22  O   UNL     1       4.482   3.813  16.649  0.00  0.00    +0.000 OA
ATOM     23  C   UNL     1       3.444   3.694  17.532  0.00  0.00    +0.000 A 
ATOM     24  C   UNL     1       2.733   2.492  17.480  0.00  0.00    +0.000 A 
ATOM     25  C   UNL     1       1.659   2.276  18.342  0.00  0.00    +0.000 A 
ATOM     26  C   UNL     1       1.305   3.264  19.251  0.00  0.00    +0.000 A 
ATOM     27  F   UNL     1       0.267   3.062  20.074  0.00  0.00    +0.000 F 
ATOM     28  C   UNL     1       2.010   4.460  19.321  0.00  0.00    +0.000 A 
ATOM     29  C   UNL     1       3.100   4.682  18.465  0.00  0.00    +0.000 A 
ENDBRANCH   4  19
TORSDOF 2
ENDMDL
MODEL 4
REMARK VINA RESULT:      -8.7      6.080      7.220
REMARK  Name = 
REMARK  2 active torsions:
REMARK  status: ('A' for Active; 'I' for Inactive)
REMARK    1  A    between atoms: C_8  and  N_9
REMARK    2  A    between atoms: N_12  and  C_13
REMARK                            x       y       z     vdW  Elec       q    Type
REMARK                         _______ _______ _______ _____ _____    ______ ____
ROOT
ATOM      1  N   UNL     1       1.551   8.855  18.005  0.00  0.00    +0.000 N 
ATOM      2  C   UNL     1       2.217   7.903  18.760  0.00  0.00    +0.000 C 
ATOM      3  O   UNL     1       2.208   7.800  19.979  0.00  0.00    +0.000 OA
ATOM      4  N   UNL     1       2.939   7.039  17.972  0.00  0.00    +0.000 N 
ATOM      5  H   UNL     1       1.768   8.895  17.021  0.00  0.00    +0.000 HD
ATOM      6  H   UNL     1       3.073   7.262  17.003  0.00  0.00    +0.000 HD
ENDROOT
BRANCH   1  14
ATOM      7  O   UNL     1       0.239  14.152  22.584  0.00  0.00    +0.000 OA
ATOM      8  C   UNL     1      -0.105  13.489  21.612  0.00  0.00    +0.000 C 
ATOM      9  C   UNL     1      -1.346  13.803  20.778  0.00  0.00    +0.000 C 
ATOM     10  O   UNL     1      -1.917  12.776  19.981  0.00  0.00    +0.000 OA
ATOM     11  C   UNL     1      -1.018  11.854  19.517  0.00  0.00    +0.000 A 
ATOM     12  C   UNL     1      -1.446  11.041  18.486  0.00  0.00    +0.000 A 
ATOM     13  C   UNL     1      -0.602  10.051  17.978  0.00  0.00    +0.000 A 
ATOM     14  C   UNL     1       0.675   9.849  18.510  0.00  0.00    +0.000 A 
ATOM     15  C   UNL     1       1.109  10.674  19.562  0.00  0.00    +0.000 A 
ATOM     16  C   UNL     1       0.255  11.669  20.065  0.00  0.00    +0.000 A 
ATOM     17  N   UNL     1       0.664  12.457  21.145  0.00  0.00    +0.000 N 
ATOM     18  H   UNL     1       1.527  12.274  21.637  0.00  0.00    +0.000 HD
ENDBRANCH   1  14
BRANCH   4  19
ATOM     19  C   UNL     1       3.789   5.990  18.537  0.00  0.00    +0.000 C 
ATOM     20  C   UNL     1       5.102   5.859  17.762  0.00  0.00    +0.000 C 
ATOM     21  C   UNL     1       4.820   5.191  16.427  0.00  0.00    +0.000 C 
ATOM     22  O   UNL     1       4.323   3.859  16.588  0.00  0.00    +0.000 OA
ATOM     23  C   UNL     1       3.333   3.718  17.521  0.00  0.00    +0.000 A 
ATOM     24  C   UNL     1       2.627   2.513  17.483  0.00  0.00    +0.000 A 
ATOM     25  C   UNL     1       1.600   2.275  18.396  0.00  0.00    +0.000 A 
ATOM     26  C   UNL     1       1.288   3.244  19.341  0.00  0.00    +0.000 A 
ATOM     27  F   UNL     1       0.295   3.021  20.212  0.00  0.00    +0.000 F 
ATOM     28  C   UNL     1       1.991   4.443  19.396  0.00  0.00    +0.000 A 
ATOM     29  C   UNL     1       3.034   4.687  18.489  0.00  0.00    +0.000 A 
ENDBRANCH   4  19
TORSDOF 2
ENDMDL
MODEL 5
REMARK VINA RESULT:      -8.7      6.420      9.155
REMARK  Name = 
REMARK  2 active torsions:
REMARK  status: ('A' for Active; 'I' for Inactive)
REMARK    1  A    between atoms: C_8  and  N_9
REMARK    2  A    between atoms: N_12  and  C_13
REMARK                            x       y       z     vdW  Elec       q    Type
REMARK                         _______ _______ _______ _____ _____    ______ ____
ROOT
ATOM      1  N   UNL     1       1.777   8.219  19.328  0.00  0.00    +0.000 N 
ATOM      2  C   UNL     1       1.415   9.300  18.541  0.00  0.00    +0.000 C 
ATOM      3  O   UNL     1       1.858   9.579  17.435  0.00  0.00    +0.000 OA
ATOM      4  N   UNL     1       0.465  10.082  19.152  0.00  0.00    +0.000 N 
ATOM      5  H   UNL     1       1.426   8.200  20.273  0.00  0.00    +0.000 HD
ATOM      6  H   UNL     1       0.263   9.931  20.123  0.00  0.00    +0.000 HD
ENDROOT
BRANCH   1  14
ATOM      7  O   UNL     1       6.601   5.606  14.784  0.00  0.00    +0.000 OA
ATOM      8  C   UNL     1       6.008   5.525  15.854  0.00  0.00    +0.000 C 
ATOM      9  C   UNL     1       6.336   4.480  16.919  0.00  0.00    +0.000 C 
ATOM     10  O   UNL     1       5.356   4.163  17.896  0.00  0.00    +0.000 OA
ATOM     11  C   UNL     1       4.519   5.198  18.213  0.00  0.00    +0.000 A 
ATOM     12  C   UNL     1       3.777   5.058  19.371  0.00  0.00    +0.000 A 
ATOM     13  C   UNL     1       2.873   6.053  19.748  0.00  0.00    +0.000 A 
ATOM     14  C   UNL     1       2.684   7.193  18.960  0.00  0.00    +0.000 A 
ATOM     15  C   UNL     1       3.435   7.333  17.781  0.00  0.00    +0.000 A 
ATOM     16  C   UNL     1       4.345   6.329  17.409  0.00  0.00    +0.000 A 
ATOM     17  N   UNL     1       5.055   6.441  16.211  0.00  0.00    +0.000 N 
ATOM     18  H   UNL     1       4.870   7.185  15.553  0.00  0.00    +0.000 HD
ENDBRANCH   1  14
BRANCH   4  19
ATOM     19  C   UNL     1      -0.027  11.325  18.556  0.00  0.00    +0.000 C 
ATOM     20  C   UNL     1       0.045  12.487  19.549  0.00  0.00    +0.000 C 
ATOM     21  C   UNL     1      -1.051  12.314  20.586  0.00  0.00    +0.000 C 
ATOM     22  O   UNL     1      -2.356  12.376  20.003  0.00  0.00    +0.000 OA
ATOM     23  C   UNL     1      -2.519  11.633  18.867  0.00  0.00    +0.000 A 
ATOM     24  C   UNL     1      -3.839  11.430  18.455  0.00  0.00    +0.000 A 
ATOM     25  C   UNL     1      -4.106  10.686  17.306  0.00  0.00    +0.000 A 
ATOM     26  C   UNL     1      -3.052  10.152  16.577  0.00  0.00    +0.000 A 
ATOM     27  F   UNL     1      -3.308   9.429  15.479  0.00  0.00    +0.000 F 
ATOM     28  C   UNL     1      -1.733  10.356  16.970  0.00  0.00    +0.000 A 
ATOM     29  C   UNL     1      -1.453  11.113  18.119  0.00  0.00    +0.000 A 
ENDBRANCH   4  19
TORSDOF 2
ENDMDL
MODEL 6
REMARK VINA RESULT:      -8.6      5.734      7.946
REMARK  Name = 
REMARK  2 active torsions:
REMARK  status: ('A' for Active; 'I' for Inactive)
REMARK    1  A    between atoms: C_8  and  N_9
REMARK    2  A    between atoms: N_12  and  C_13
REMARK                            x       y       z     vdW  Elec       q    Type
REMARK                         _______ _______ _______ _____ _____    ______ ____
ROOT
ATOM      1  N   UNL     1       2.559   8.397  18.318  0.00  0.00    +0.000 N 
ATOM      2  C   UNL     1       2.674   7.027  18.484  0.00  0.00    +0.000 C 
ATOM      3  O   UNL     1       1.846   6.280  18.989  0.00  0.00    +0.000 OA
ATOM      4  N   UNL     1       3.873   6.553  18.010  0.00  0.00    +0.000 N 
ATOM      5  H   UNL     1       3.381   8.894  18.011  0.00  0.00    +0.000 HD
ATOM      6  H   UNL     1       4.596   7.209  17.775  0.00  0.00    +0.000 HD
ENDROOT
BRANCH   1  14
ATOM      7  O   UNL     1      -3.570  11.459  16.368  0.00  0.00    +0.000 OA
ATOM      8  C   UNL     1      -2.772  11.167  17.251  0.00  0.00    +0.000 C 
ATOM      9  C   UNL     1      -3.029  11.426  18.734  0.00  0.00    +0.000 C 
ATOM     10  O   UNL     1      -1.924  11.481  19.624  0.00  0.00    +0.000 OA
ATOM     11  C   UNL     1      -0.864  10.697  19.258  0.00  0.00    +0.000 A 
ATOM     12  C   UNL     1       0.087  10.452  20.231  0.00  0.00    +0.000 A 
ATOM     13  C   UNL     1       1.217   9.690  19.930  0.00  0.00    +0.000 A 
ATOM     14  C   UNL     1       1.423   9.179  18.644  0.00  0.00    +0.000 A 
ATOM     15  C   UNL     1       0.458   9.432  17.654  0.00  0.00    +0.000 A 
ATOM     16  C   UNL     1      -0.678  10.197  17.965  0.00  0.00    +0.000 A 
ATOM     17  N   UNL     1      -1.613  10.494  16.969  0.00  0.00    +0.000 N 
ATOM     18  H   UNL     1      -1.454  10.247  16.003  0.00  0.00    +0.000 HD
ENDBRANCH   1  14
BRANCH   4  19
ATOM     19  C   UNL     1       4.265   5.149  18.138  0.00  0.00    +0.000 C 
ATOM     20  C   UNL     1       4.987   4.889  19.462  0.00  0.00    +0.000 C 
ATOM     21  C   UNL     1       6.384   5.481  19.385  0.00  0.00    +0.000 C 
ATOM     22  O   UNL     1       7.178   4.852  18.375  0.00  0.00    +0.000 OA
ATOM     23  C   UNL     1       6.557   4.687  17.168  0.00  0.00    +0.000 A 
ATOM     24  C   UNL     1       7.388   4.364  16.092  0.00  0.00    +0.000 A 
ATOM     25  C   UNL     1       6.847   4.174  14.821  0.00  0.00    +0.000 A 
ATOM     26  C   UNL     1       5.478   4.307  14.636  0.00  0.00    +0.000 A 
ATOM     27  F   UNL     1       4.958   4.135  13.413  0.00  0.00    +0.000 F 
ATOM     28  C   UNL     1       4.637   4.618  15.699  0.00  0.00    +0.000 A 
ATOM     29  C   UNL     1       5.171   4.799  16.985  0.00  0.00    +0.000 A 
ENDBRANCH   4  19
TORSDOF 2
ENDMDL
MODEL 7
REMARK VINA RESULT:      -8.6      5.744      7.725
REMARK  Name = 
REMARK  2 active torsions:
REMARK  status: ('A' for Active; 'I' for Inactive)
REMARK    1  A    between atoms: C_8  and  N_9
REMARK    2  A    between atoms: N_12  and  C_13
REMARK                            x       y       z     vdW  Elec       q    Type
REMARK                         _______ _______ _______ _____ _____    ______ ____
ROOT
ATOM      1  N   UNL     1       2.542   8.335  18.311  0.00  0.00    +0.000 N 
ATOM      2  C   UNL     1       2.687   6.971  18.507  0.00  0.00    +0.000 C 
ATOM      3  O   UNL     1       1.917   6.234  19.107  0.00  0.00    +0.000 OA
ATOM      4  N   UNL     1       3.844   6.493  17.941  0.00  0.00    +0.000 N 
ATOM      5  H   UNL     1       3.328   8.828  17.915  0.00  0.00    +0.000 HD
ATOM      6  H   UNL     1       4.535   7.147  17.621  0.00  0.00    +0.000 HD
ENDROOT
BRANCH   1  14
ATOM      7  O   UNL     1      -1.110  11.637  23.458  0.00  0.00    +0.000 OA
ATOM      8  C   UNL     1      -0.950  11.397  22.267  0.00  0.00    +0.000 C 
ATOM      9  C   UNL     1      -1.768  12.060  21.160  0.00  0.00    +0.000 C 
ATOM     10  O   UNL     1      -1.844  11.430  19.890  0.00  0.00    +0.000 OA
ATOM     11  C   UNL     1      -0.737  10.698  19.554  0.00  0.00    +0.000 A 
ATOM     12  C   UNL     1      -0.612  10.344  18.224  0.00  0.00    +0.000 A 
ATOM     13  C   UNL     1       0.470   9.568  17.805  0.00  0.00    +0.000 A 
ATOM     14  C   UNL     1       1.432   9.118  18.715  0.00  0.00    +0.000 A 
ATOM     15  C   UNL     1       1.302   9.474  20.068  0.00  0.00    +0.000 A 
ATOM     16  C   UNL     1       0.212  10.258  20.482  0.00  0.00    +0.000 A 
ATOM     17  N   UNL     1       0.052  10.570  21.835  0.00  0.00    +0.000 N 
ATOM     18  H   UNL     1       0.653  10.175  22.545  0.00  0.00    +0.000 HD
ENDBRANCH   1  14
BRANCH   4  19
ATOM     19  C   UNL     1       4.262   5.097  18.075  0.00  0.00    +0.000 C 
ATOM     20  C   UNL     1       4.985   4.855  19.402  0.00  0.00    +0.000 C 
ATOM     21  C   UNL     1       6.371   5.473  19.324  0.00  0.00    +0.000 C 
ATOM     22  O   UNL     1       7.178   4.855  18.319  0.00  0.00    +0.000 OA
ATOM     23  C   UNL     1       6.563   4.673  17.111  0.00  0.00    +0.000 A 
ATOM     24  C   UNL     1       7.403   4.362  16.039  0.00  0.00    +0.000 A 
ATOM     25  C   UNL     1       6.868   4.157  14.767  0.00  0.00    +0.000 A 
ATOM     26  C   UNL     1       5.497   4.264  14.578  0.00  0.00    +0.000 A 
ATOM     27  F   UNL     1       4.982   4.077  13.355  0.00  0.00    +0.000 F 
ATOM     28  C   UNL     1       4.648   4.563  15.639  0.00  0.00    +0.000 A 
ATOM     29  C   UNL     1       5.176   4.760  16.925  0.00  0.00    +0.000 A 
ENDBRANCH   4  19
TORSDOF 2
ENDMDL
MODEL 8
REMARK VINA RESULT:      -8.5      5.665      7.524
REMARK  Name = 
REMARK  2 active torsions:
REMARK  status: ('A' for Active; 'I' for Inactive)
REMARK    1  A    between atoms: C_8  and  N_9
REMARK    2  A    between atoms: N_12  and  C_13
REMARK                            x       y       z     vdW  Elec       q    Type
REMARK                         _______ _______ _______ _____ _____    ______ ____
ROOT
ATOM      1  N   UNL     1       2.989   7.883  17.703  0.00  0.00    +0.000 N 
ATOM      2  C   UNL     1       3.379   6.568  17.898  0.00  0.00    +0.000 C 
ATOM      3  O   UNL     1       2.983   5.811  18.773  0.00  0.00    +0.000 OA
ATOM      4  N   UNL     1       4.311   6.169  16.971  0.00  0.00    +0.000 N 
ATOM      5  H   UNL     1       3.506   8.421  17.025  0.00  0.00    +0.000 HD
ATOM      6  H   UNL     1       4.746   6.862  16.389  0.00  0.00    +0.000 HD
ENDROOT
BRANCH   1  14
ATOM      7  O   UNL     1       0.127   9.638  23.986  0.00  0.00    +0.000 OA
ATOM      8  C   UNL     1       0.162   9.775  22.768  0.00  0.00    +0.000 C 
ATOM      9  C   UNL     1      -0.673  10.809  22.016  0.00  0.00    +0.000 C 
ATOM     10  O   UNL     1      -0.918  10.619  20.630  0.00  0.00    +0.000 OA
ATOM     11  C   UNL     1       0.078   9.955  19.966  0.00  0.00    +0.000 A 
ATOM     12  C   UNL     1       0.057  10.031  18.587  0.00  0.00    +0.000 A 
ATOM     13  C   UNL     1       1.016   9.354  17.833  0.00  0.00    +0.000 A 
ATOM     14  C   UNL     1       2.000   8.573  18.448  0.00  0.00    +0.000 A 
ATOM     15  C   UNL     1       2.019   8.493  19.851  0.00  0.00    +0.000 A 
ATOM     16  C   UNL     1       1.052   9.180  20.604  0.00  0.00    +0.000 A 
ATOM     17  N   UNL     1       1.038   9.059  21.996  0.00  0.00    +0.000 N 
ATOM     18  H   UNL     1       1.652   8.420  22.479  0.00  0.00    +0.000 HD
ENDBRANCH   1  14
BRANCH   4  19
ATOM     19  C   UNL     1       4.936   4.846  17.009  0.00  0.00    +0.000 C 
ATOM     20  C   UNL     1       6.018   4.771  18.089  0.00  0.00    +0.000 C 
ATOM     21  C   UNL     1       7.233   5.553  17.621  0.00  0.00    +0.000 C 
ATOM     22  O   UNL     1       7.814   4.988  16.443  0.00  0.00    +0.000 OA
ATOM     23  C   UNL     1       6.925   4.664  15.455  0.00  0.00    +0.000 A 
ATOM     24  C   UNL     1       7.477   4.403  14.199  0.00  0.00    +0.000 A 
ATOM     25  C   UNL     1       6.651   4.064  13.128  0.00  0.00    +0.000 A 
ATOM     26  C   UNL     1       5.278   3.986  13.323  0.00  0.00    +0.000 A 
ATOM     27  F   UNL     1       4.482   3.670  12.293  0.00  0.00    +0.000 F 
ATOM     28  C   UNL     1       4.716   4.234  14.571  0.00  0.00    +0.000 A 
ATOM     29  C   UNL     1       5.541   4.565  15.658  0.00  0.00    +0.000 A 
ENDBRANCH   4  19
TORSDOF 2
ENDMDL
MODEL 9
REMARK VINA RESULT:      -8.4      5.862      7.431
REMARK  Name = 
REMARK  2 active torsions:
REMARK  status: ('A' for Active; 'I' for Inactive)
REMARK    1  A    between atoms: C_8  and  N_9
REMARK    2  A    between atoms: N_12  and  C_13
REMARK                            x       y       z     vdW  Elec       q    Type
REMARK                         _______ _______ _______ _____ _____    ______ ____
ROOT
ATOM      1  N   UNL     1       1.839   7.727  20.691  0.00  0.00    +0.000 N 
ATOM      2  C   UNL     1       2.232   7.264  19.446  0.00  0.00    +0.000 C 
ATOM      3  O   UNL     1       1.930   7.741  18.360  0.00  0.00    +0.000 OA
ATOM      4  N   UNL     1       3.032   6.151  19.543  0.00  0.00    +0.000 N 
ATOM      5  H   UNL     1       2.056   7.146  21.486  0.00  0.00    +0.000 HD
ATOM      6  H   UNL     1       3.107   5.682  20.427  0.00  0.00    +0.000 HD
ENDROOT
BRANCH   1  14
ATOM      7  O   UNL     1      -0.479  14.132  18.608  0.00  0.00    +0.000 OA
ATOM      8  C   UNL     1      -0.521  13.205  19.409  0.00  0.00    +0.000 C 
ATOM      9  C   UNL     1      -1.517  13.138  20.564  0.00  0.00    +0.000 C 
ATOM     10  O   UNL     1      -1.228  12.303  21.675  0.00  0.00    +0.000 OA
ATOM     11  C   UNL     1      -0.485  11.194  21.369  0.00  0.00    +0.000 A 
ATOM     12  C   UNL     1      -0.455  10.191  22.320  0.00  0.00    +0.000 A 
ATOM     13  C   UNL     1       0.306   9.042  22.101  0.00  0.00    +0.000 A 
ATOM     14  C   UNL     1       1.065   8.888  20.937  0.00  0.00    +0.000 A 
ATOM     15  C   UNL     1       1.038   9.910  19.972  0.00  0.00    +0.000 A 
ATOM     16  C   UNL     1       0.267  11.063  20.198  0.00  0.00    +0.000 A 
ATOM     17  N   UNL     1       0.278  12.103  19.264  0.00  0.00    +0.000 N 
ATOM     18  H   UNL     1       0.897  12.091  18.465  0.00  0.00    +0.000 HD
ENDBRANCH   1  14
BRANCH   4  19
ATOM     19  C   UNL     1       3.516   5.430  18.364  0.00  0.00    +0.000 C 
ATOM     20  C   UNL     1       3.284   3.923  18.498  0.00  0.00    +0.000 C 
ATOM     21  C   UNL     1       4.278   3.360  19.500  0.00  0.00    +0.000 C 
ATOM     22  O   UNL     1       5.629   3.512  19.058  0.00  0.00    +0.000 OA
ATOM     23  C   UNL     1       5.945   4.750  18.570  0.00  0.00    +0.000 A 
ATOM     24  C   UNL     1       7.308   5.018  18.421  0.00  0.00    +0.000 A 
ATOM     25  C   UNL     1       7.729   6.253  17.930  0.00  0.00    +0.000 A 
ATOM     26  C   UNL     1       6.783   7.211  17.590  0.00  0.00    +0.000 A 
ATOM     27  F   UNL     1       7.186   8.402  17.126  0.00  0.00    +0.000 F 
ATOM     28  C   UNL     1       5.423   6.953  17.723  0.00  0.00    +0.000 A 
ATOM     29  C   UNL     1       4.989   5.709  18.206  0.00  0.00    +0.000 A 
ENDBRANCH   4  19
TORSDOF 2
ENDMDL
