MODEL 1
REMARK VINA RESULT:      -7.4      0.000      0.000
REMARK  Name = 
REMARK  5 active torsions:
REMARK  status: ('A' for Active; 'I' for Inactive)
REMARK    1  A    between atoms: C_1  and  S_2
REMARK    2  A    between atoms: S_2  and  C_3
REMARK    3  A    between atoms: C_8  and  C_9
REMARK    4  A    between atoms: C_12  and  C_13
REMARK    5  A    between atoms: C_16  and  N_17
REMARK                            x       y       z     vdW  Elec       q    Type
REMARK                         _______ _______ _______ _____ _____    ______ ____
ROOT
ATOM      1  C   UNL     1       1.322   9.676  18.842  0.00  0.00    +0.000 A 
ATOM      2  C   UNL     1       2.015   9.089  17.761  0.00  0.00    +0.000 A 
ATOM      3  C   UNL     1       2.604   7.815  17.853  0.00  0.00    +0.000 A 
ATOM      4  C   UNL     1       2.490   7.045  19.019  0.00  0.00    +0.000 A 
ATOM      5  C   UNL     1       1.777   7.618  20.077  0.00  0.00    +0.000 A 
ATOM      6  F   UNL     1       1.623   6.949  21.232  0.00  0.00    +0.000 F 
ATOM      7  C   UNL     1       1.237   8.907  20.006  0.00  0.00    +0.000 A 
ENDROOT
BRANCH   1  13
ATOM      8  C   UNL     1      -0.557  11.422  18.477  0.00  0.00    +0.000 A 
ATOM      9  C   UNL     1      -0.932  12.781  18.418  0.00  0.00    +0.000 A 
ATOM     10  C   UNL     1      -0.004  13.802  18.609  0.00  0.00    +0.000 A 
ATOM     11  C   UNL     1       1.315  13.478  18.878  0.00  0.00    +0.000 A 
ATOM     12  C   UNL     1       1.701  12.138  18.949  0.00  0.00    +0.000 A 
ATOM     13  C   UNL     1       0.792  11.069  18.746  0.00  0.00    +0.000 A 
BRANCH   8  15
ATOM     14  C   UNL     1      -2.371  10.686  16.534  0.00  0.00    +0.000 C 
ATOM     15  S   UNL     1      -1.920  10.273  18.234  0.00  0.00    +0.000 S 
ENDBRANCH   8  15
ENDBRANCH   1  13
BRANCH   4  16
ATOM     16  C   UNL     1       3.133   5.731  19.137  0.00  0.00    +0.000 A 
ATOM     17  C   UNL     1       2.440   4.543  19.367  0.00  0.00    +0.000 A 
ATOM     18  N   UNL     1       3.044   3.336  19.551  0.00  0.00    +0.000 NA
ATOM     19  C   UNL     1       4.385   3.343  19.507  0.00  0.00    +0.000 A 
ATOM     20  C   UNL     1       5.087   4.518  19.259  0.00  0.00    +0.000 A 
ATOM     21  N   UNL     1       4.489   5.719  19.050  0.00  0.00    +0.000 NA
BRANCH  19  22
ATOM     22  N   UNL     1       5.021   2.134  19.770  0.00  0.00    +0.000 N 
ATOM     23  H   UNL     1       5.815   2.341  20.372  0.00  0.00    +0.000 HD
ATOM     24  H   UNL     1       4.397   1.455  20.186  0.00  0.00    +0.000 HD
ENDBRANCH  19  22
ENDBRANCH   4  16
TORSDOF 4
ENDMDL
MODEL 2
REMARK VINA RESULT:      -7.4      0.728      1.103
REMARK  Name = 
REMARK  5 active torsions:
REMARK  status: ('A' for Active; 'I' for Inactive)
REMARK    1  A    between atoms: C_1  and  S_2
REMARK    2  A    between atoms: S_2  and  C_3
REMARK    3  A    between atoms: C_8  and  C_9
REMARK    4  A    between atoms: C_12  and  C_13
REMARK    5  A    between atoms: C_16  and  N_17
REMARK                            x       y       z     vdW  Elec       q    Type
REMARK                         _______ _______ _______ _____ _____    ______ ____
ROOT
ATOM      1  C   UNL     1       1.238   9.640  18.904  0.00  0.00    +0.000 A 
ATOM      2  C   UNL     1       1.920   9.009  17.840  0.00  0.00    +0.000 A 
ATOM      3  C   UNL     1       2.525   7.747  17.984  0.00  0.00    +0.000 A 
ATOM      4  C   UNL     1       2.439   7.033  19.187  0.00  0.00    +0.000 A 
ATOM      5  C   UNL     1       1.738   7.649  20.229  0.00  0.00    +0.000 A 
ATOM      6  F   UNL     1       1.610   7.035  21.417  0.00  0.00    +0.000 F 
ATOM      7  C   UNL     1       1.181   8.927  20.105  0.00  0.00    +0.000 A 
ENDROOT
BRANCH   1  13
ATOM      8  C   UNL     1      -0.637  11.344  18.363  0.00  0.00    +0.000 A 
ATOM      9  C   UNL     1      -1.034  12.694  18.260  0.00  0.00    +0.000 A 
ATOM     10  C   UNL     1      -0.146  13.735  18.521  0.00  0.00    +0.000 A 
ATOM     11  C   UNL     1       1.151  13.441  18.905  0.00  0.00    +0.000 A 
ATOM     12  C   UNL     1       1.556  12.110  19.022  0.00  0.00    +0.000 A 
ATOM     13  C   UNL     1       0.690  11.021  18.751  0.00  0.00    +0.000 A 
BRANCH   8  15
ATOM     14  C   UNL     1      -3.370  11.283  17.991  0.00  0.00    +0.000 C 
ATOM     15  S   UNL     1      -1.951  10.164  18.013  0.00  0.00    +0.000 S 
ENDBRANCH   8  15
ENDBRANCH   1  13
BRANCH   4  16
ATOM     16  C   UNL     1       3.100   5.733  19.357  0.00  0.00    +0.000 A 
ATOM     17  C   UNL     1       4.479   5.544  19.269  0.00  0.00    +0.000 A 
ATOM     18  N   UNL     1       5.083   4.327  19.351  0.00  0.00    +0.000 NA
ATOM     19  C   UNL     1       4.263   3.279  19.520  0.00  0.00    +0.000 A 
ATOM     20  C   UNL     1       2.887   3.457  19.629  0.00  0.00    +0.000 A 
ATOM     21  N   UNL     1       2.282   4.671  19.573  0.00  0.00    +0.000 NA
BRANCH  19  22
ATOM     22  N   UNL     1       4.855   2.020  19.529  0.00  0.00    +0.000 N 
ATOM     23  H   UNL     1       4.286   1.428  20.129  0.00  0.00    +0.000 HD
ATOM     24  H   UNL     1       4.952   1.635  18.598  0.00  0.00    +0.000 HD
ENDBRANCH  19  22
ENDBRANCH   4  16
TORSDOF 4
ENDMDL
MODEL 3
REMARK VINA RESULT:      -7.3      4.149      7.550
REMARK  Name = 
REMARK  5 active torsions:
REMARK  status: ('A' for Active; 'I' for Inactive)
REMARK    1  A    between atoms: C_1  and  S_2
REMARK    2  A    between atoms: S_2  and  C_3
REMARK    3  A    between atoms: C_8  and  C_9
REMARK    4  A    between atoms: C_12  and  C_13
REMARK    5  A    between atoms: C_16  and  N_17
REMARK                            x       y       z     vdW  Elec       q    Type
REMARK                         _______ _______ _______ _____ _____    ______ ____
ROOT
ATOM      1  C   UNL     1       2.532   7.117  18.560  0.00  0.00    +0.000 A 
ATOM      2  C   UNL     1       2.274   6.987  19.942  0.00  0.00    +0.000 A 
ATOM      3  C   UNL     1       1.623   7.992  20.679  0.00  0.00    +0.000 A 
ATOM      4  C   UNL     1       1.157   9.161  20.060  0.00  0.00    +0.000 A 
ATOM      5  C   UNL     1       1.388   9.272  18.685  0.00  0.00    +0.000 A 
ATOM      6  F   UNL     1       0.977  10.361  18.014  0.00  0.00    +0.000 F 
ATOM      7  C   UNL     1       2.083   8.297  17.960  0.00  0.00    +0.000 A 
ENDROOT
BRANCH   1  13
ATOM      8  C   UNL     1       2.977   4.700  17.741  0.00  0.00    +0.000 A 
ATOM      9  C   UNL     1       3.797   3.817  17.007  0.00  0.00    +0.000 A 
ATOM     10  C   UNL     1       4.947   4.260  16.360  0.00  0.00    +0.000 A 
ATOM     11  C   UNL     1       5.289   5.600  16.425  0.00  0.00    +0.000 A 
ATOM     12  C   UNL     1       4.482   6.489  17.139  0.00  0.00    +0.000 A 
ATOM     13  C   UNL     1       3.312   6.077  17.824  0.00  0.00    +0.000 A 
BRANCH   8  15
ATOM     14  C   UNL     1       2.107   2.214  18.562  0.00  0.00    +0.000 C 
ATOM     15  S   UNL     1       1.525   3.921  18.467  0.00  0.00    +0.000 S 
ENDBRANCH   8  15
ENDBRANCH   1  13
BRANCH   4  16
ATOM     16  C   UNL     1       0.510  10.231  20.828  0.00  0.00    +0.000 A 
ATOM     17  C   UNL     1       0.872  11.576  20.748  0.00  0.00    +0.000 A 
ATOM     18  N   UNL     1       0.323  12.556  21.516  0.00  0.00    +0.000 NA
ATOM     19  C   UNL     1      -0.612  12.156  22.392  0.00  0.00    +0.000 A 
ATOM     20  C   UNL     1      -0.996  10.820  22.468  0.00  0.00    +0.000 A 
ATOM     21  N   UNL     1      -0.469   9.843  21.686  0.00  0.00    +0.000 NA
BRANCH  19  22
ATOM     22  N   UNL     1      -1.128  13.131  23.239  0.00  0.00    +0.000 N 
ATOM     23  H   UNL     1      -0.465  13.242  24.003  0.00  0.00    +0.000 HD
ATOM     24  H   UNL     1      -1.302  14.004  22.758  0.00  0.00    +0.000 HD
ENDBRANCH  19  22
ENDBRANCH   4  16
TORSDOF 4
ENDMDL
MODEL 4
REMARK VINA RESULT:      -7.3      4.266      7.444
REMARK  Name = 
REMARK  5 active torsions:
REMARK  status: ('A' for Active; 'I' for Inactive)
REMARK    1  A    between atoms: C_1  and  S_2
REMARK    2  A    between atoms: S_2  and  C_3
REMARK    3  A    between atoms: C_8  and  C_9
REMARK    4  A    between atoms: C_12  and  C_13
REMARK    5  A    between atoms: C_16  and  N_17
REMARK                            x       y       z     vdW  Elec       q    Type
REMARK                         _______ _______ _______ _____ _____    ______ ____
ROOT
ATOM      1  C   UNL     1       2.628   7.111  18.550  0.00  0.00    +0.000 A 
ATOM      2  C   UNL     1       2.308   6.822  19.894  0.00  0.00    +0.000 A 
ATOM      3  C   UNL     1       1.569   7.710  20.695  0.00  0.00    +0.000 A 
ATOM      4  C   UNL     1       1.072   8.914  20.176  0.00  0.00    +0.000 A 
ATOM      5  C   UNL     1       1.366   9.183  18.835  0.00  0.00    +0.000 A 
ATOM      6  F   UNL     1       0.930  10.316  18.260  0.00  0.00    +0.000 F 
ATOM      7  C   UNL     1       2.147   8.326  18.053  0.00  0.00    +0.000 A 
ENDROOT
BRANCH   1  13
ATOM      8  C   UNL     1       3.261   4.810  17.542  0.00  0.00    +0.000 A 
ATOM      9  C   UNL     1       4.160   4.051  16.762  0.00  0.00    +0.000 A 
ATOM     10  C   UNL     1       5.294   4.626  16.194  0.00  0.00    +0.000 A 
ATOM     11  C   UNL     1       5.540   5.975  16.384  0.00  0.00    +0.000 A 
ATOM     12  C   UNL     1       4.654   6.741  17.145  0.00  0.00    +0.000 A 
ATOM     13  C   UNL     1       3.497   6.193  17.754  0.00  0.00    +0.000 A 
BRANCH   8  15
ATOM     14  C   UNL     1       2.437   2.194  17.846  0.00  0.00    +0.000 C 
ATOM     15  S   UNL     1       1.848   3.875  18.151  0.00  0.00    +0.000 S 
ENDBRANCH   8  15
ENDBRANCH   1  13
BRANCH   4  16
ATOM     16  C   UNL     1       0.332   9.865  21.016  0.00  0.00    +0.000 A 
ATOM     17  C   UNL     1       0.332   9.835  22.410  0.00  0.00    +0.000 A 
ATOM     18  N   UNL     1      -0.414  10.669  23.186  0.00  0.00    +0.000 NA
ATOM     19  C   UNL     1      -1.184  11.547  22.524  0.00  0.00    +0.000 A 
ATOM     20  C   UNL     1      -1.178  11.599  21.134  0.00  0.00    +0.000 A 
ATOM     21  N   UNL     1      -0.417  10.786  20.356  0.00  0.00    +0.000 NA
BRANCH  19  22
ATOM     22  N   UNL     1      -2.011  12.354  23.298  0.00  0.00    +0.000 N 
ATOM     23  H   UNL     1      -1.728  12.228  24.267  0.00  0.00    +0.000 HD
ATOM     24  H   UNL     1      -1.974  13.325  23.015  0.00  0.00    +0.000 HD
ENDBRANCH  19  22
ENDBRANCH   4  16
TORSDOF 4
ENDMDL
MODEL 5
REMARK VINA RESULT:      -7.2      1.066      1.472
REMARK  Name = 
REMARK  5 active torsions:
REMARK  status: ('A' for Active; 'I' for Inactive)
REMARK    1  A    between atoms: C_1  and  S_2
REMARK    2  A    between atoms: S_2  and  C_3
REMARK    3  A    between atoms: C_8  and  C_9
REMARK    4  A    between atoms: C_12  and  C_13
REMARK    5  A    between atoms: C_16  and  N_17
REMARK                            x       y       z     vdW  Elec       q    Type
REMARK                         _______ _______ _______ _____ _____    ______ ____
ROOT
ATOM      1  C   UNL     1       1.299   9.639  19.034  0.00  0.00    +0.000 A 
ATOM      2  C   UNL     1       1.199   8.824  20.183  0.00  0.00    +0.000 A 
ATOM      3  C   UNL     1       1.790   7.551  20.250  0.00  0.00    +0.000 A 
ATOM      4  C   UNL     1       2.550   7.045  19.186  0.00  0.00    +0.000 A 
ATOM      5  C   UNL     1       2.671   7.868  18.061  0.00  0.00    +0.000 A 
ATOM      6  F   UNL     1       3.380   7.459  16.996  0.00  0.00    +0.000 F 
ATOM      7  C   UNL     1       2.039   9.113  17.972  0.00  0.00    +0.000 A 
ENDROOT
BRANCH   1  13
ATOM      8  C   UNL     1      -0.680  11.159  18.336  0.00  0.00    +0.000 A 
ATOM      9  C   UNL     1      -1.258  12.446  18.335  0.00  0.00    +0.000 A 
ATOM     10  C   UNL     1      -0.615  13.533  18.923  0.00  0.00    +0.000 A 
ATOM     11  C   UNL     1       0.612  13.345  19.537  0.00  0.00    +0.000 A 
ATOM     12  C   UNL     1       1.192  12.075  19.555  0.00  0.00    +0.000 A 
ATOM     13  C   UNL     1       0.579  10.946  18.956  0.00  0.00    +0.000 A 
BRANCH   8  15
ATOM     14  C   UNL     1      -2.564  10.915  16.336  0.00  0.00    +0.000 C 
ATOM     15  S   UNL     1      -1.697   9.897  17.552  0.00  0.00    +0.000 S 
ENDBRANCH   8  15
ENDBRANCH   1  13
BRANCH   4  16
ATOM     16  C   UNL     1       3.139   5.701  19.233  0.00  0.00    +0.000 A 
ATOM     17  C   UNL     1       2.396   4.532  19.396  0.00  0.00    +0.000 A 
ATOM     18  N   UNL     1       2.949   3.293  19.515  0.00  0.00    +0.000 NA
ATOM     19  C   UNL     1       4.290   3.247  19.475  0.00  0.00    +0.000 A 
ATOM     20  C   UNL     1       5.041   4.405  19.294  0.00  0.00    +0.000 A 
ATOM     21  N   UNL     1       4.493   5.639  19.149  0.00  0.00    +0.000 NA
BRANCH  19  22
ATOM     22  N   UNL     1       4.875   2.001  19.673  0.00  0.00    +0.000 N 
ATOM     23  H   UNL     1       4.143   1.305  19.545  0.00  0.00    +0.000 HD
ATOM     24  H   UNL     1       5.660   1.843  19.055  0.00  0.00    +0.000 HD
ENDBRANCH  19  22
ENDBRANCH   4  16
TORSDOF 4
ENDMDL
MODEL 6
REMARK VINA RESULT:      -7.2      3.991      7.461
REMARK  Name = 
REMARK  5 active torsions:
REMARK  status: ('A' for Active; 'I' for Inactive)
REMARK    1  A    between atoms: C_1  and  S_2
REMARK    2  A    between atoms: S_2  and  C_3
REMARK    3  A    between atoms: C_8  and  C_9
REMARK    4  A    between atoms: C_12  and  C_13
REMARK    5  A    between atoms: C_16  and  N_17
REMARK                            x       y       z     vdW  Elec       q    Type
REMARK                         _______ _______ _______ _____ _____    ______ ____
ROOT
ATOM      1  C   UNL     1       2.775   7.259  18.373  0.00  0.00    +0.000 A 
ATOM      2  C   UNL     1       2.399   8.412  17.651  0.00  0.00    +0.000 A 
ATOM      3  C   UNL     1       1.594   9.418  18.214  0.00  0.00    +0.000 A 
ATOM      4  C   UNL     1       1.160   9.341  19.545  0.00  0.00    +0.000 A 
ATOM      5  C   UNL     1       1.559   8.211  20.266  0.00  0.00    +0.000 A 
ATOM      6  F   UNL     1       1.185   8.057  21.547  0.00  0.00    +0.000 F 
ATOM      7  C   UNL     1       2.316   7.184  19.691  0.00  0.00    +0.000 A 
ENDROOT
BRANCH   1  13
ATOM      8  C   UNL     1       3.148   4.803  17.636  0.00  0.00    +0.000 A 
ATOM      9  C   UNL     1       3.971   3.862  16.983  0.00  0.00    +0.000 A 
ATOM     10  C   UNL     1       5.189   4.229  16.416  0.00  0.00    +0.000 A 
ATOM     11  C   UNL     1       5.597   5.551  16.482  0.00  0.00    +0.000 A 
ATOM     12  C   UNL     1       4.788   6.497  17.116  0.00  0.00    +0.000 A 
ATOM     13  C   UNL     1       3.549   6.162  17.718  0.00  0.00    +0.000 A 
BRANCH   8  15
ATOM     14  C   UNL     1       2.037   2.364  18.290  0.00  0.00    +0.000 C 
ATOM     15  S   UNL     1       1.606   4.118  18.264  0.00  0.00    +0.000 S 
ENDBRANCH   8  15
ENDBRANCH   1  13
BRANCH   4  16
ATOM     16  C   UNL     1       0.288  10.368  20.129  0.00  0.00    +0.000 A 
ATOM     17  C   UNL     1      -0.963  10.710  19.615  0.00  0.00    +0.000 A 
ATOM     18  N   UNL     1      -1.738  11.713  20.111  0.00  0.00    +0.000 NA
ATOM     19  C   UNL     1      -1.222  12.388  21.150  0.00  0.00    +0.000 A 
ATOM     20  C   UNL     1       0.016  12.043  21.684  0.00  0.00    +0.000 A 
ATOM     21  N   UNL     1       0.781  11.027  21.209  0.00  0.00    +0.000 NA
BRANCH  19  22
ATOM     22  N   UNL     1      -1.964  13.466  21.621  0.00  0.00    +0.000 N 
ATOM     23  H   UNL     1      -2.945  13.240  21.473  0.00  0.00    +0.000 HD
ATOM     24  H   UNL     1      -1.765  13.674  22.591  0.00  0.00    +0.000 HD
ENDBRANCH  19  22
ENDBRANCH   4  16
TORSDOF 4
ENDMDL
MODEL 7
REMARK VINA RESULT:      -7.2      4.043      7.452
REMARK  Name = 
REMARK  5 active torsions:
REMARK  status: ('A' for Active; 'I' for Inactive)
REMARK    1  A    between atoms: C_1  and  S_2
REMARK    2  A    between atoms: S_2  and  C_3
REMARK    3  A    between atoms: C_8  and  C_9
REMARK    4  A    between atoms: C_12  and  C_13
REMARK    5  A    between atoms: C_16  and  N_17
REMARK                            x       y       z     vdW  Elec       q    Type
REMARK                         _______ _______ _______ _____ _____    ______ ____
ROOT
ATOM      1  C   UNL     1       2.747   7.217  18.373  0.00  0.00    +0.000 A 
ATOM      2  C   UNL     1       2.329   8.373  17.678  0.00  0.00    +0.000 A 
ATOM      3  C   UNL     1       1.550   9.371  18.288  0.00  0.00    +0.000 A 
ATOM      4  C   UNL     1       1.187   9.286  19.640  0.00  0.00    +0.000 A 
ATOM      5  C   UNL     1       1.629   8.154  20.333  0.00  0.00    +0.000 A 
ATOM      6  F   UNL     1       1.324   7.992  21.631  0.00  0.00    +0.000 F 
ATOM      7  C   UNL     1       2.359   7.133  19.713  0.00  0.00    +0.000 A 
ENDROOT
BRANCH   1  13
ATOM      8  C   UNL     1       3.103   4.763  17.622  0.00  0.00    +0.000 A 
ATOM      9  C   UNL     1       3.893   3.829  16.919  0.00  0.00    +0.000 A 
ATOM     10  C   UNL     1       5.066   4.210  16.272  0.00  0.00    +0.000 A 
ATOM     11  C   UNL     1       5.460   5.537  16.305  0.00  0.00    +0.000 A 
ATOM     12  C   UNL     1       4.683   6.475  16.988  0.00  0.00    +0.000 A 
ATOM     13  C   UNL     1       3.491   6.128  17.672  0.00  0.00    +0.000 A 
BRANCH   8  15
ATOM     14  C   UNL     1       2.017   2.304  18.242  0.00  0.00    +0.000 C 
ATOM     15  S   UNL     1       1.615   4.062  18.354  0.00  0.00    +0.000 S 
ENDBRANCH   8  15
ENDBRANCH   1  13
BRANCH   4  16
ATOM     16  C   UNL     1       0.342  10.306  20.274  0.00  0.00    +0.000 A 
ATOM     17  C   UNL     1       0.556  10.804  21.559  0.00  0.00    +0.000 A 
ATOM     18  N   UNL     1      -0.270  11.693  22.174  0.00  0.00    +0.000 NA
ATOM     19  C   UNL     1      -1.344  12.077  21.466  0.00  0.00    +0.000 A 
ATOM     20  C   UNL     1      -1.559  11.601  20.176  0.00  0.00    +0.000 A 
ATOM     21  N   UNL     1      -0.723  10.734  19.549  0.00  0.00    +0.000 NA
BRANCH  19  22
ATOM     22  N   UNL     1      -2.241  12.925  22.108  0.00  0.00    +0.000 N 
ATOM     23  H   UNL     1      -3.174  12.554  21.938  0.00  0.00    +0.000 HD
ATOM     24  H   UNL     1      -2.044  13.014  23.097  0.00  0.00    +0.000 HD
ENDBRANCH  19  22
ENDBRANCH   4  16
TORSDOF 4
ENDMDL
MODEL 8
REMARK VINA RESULT:      -7.2      1.195      1.770
REMARK  Name = 
REMARK  5 active torsions:
REMARK  status: ('A' for Active; 'I' for Inactive)
REMARK    1  A    between atoms: C_1  and  S_2
REMARK    2  A    between atoms: S_2  and  C_3
REMARK    3  A    between atoms: C_8  and  C_9
REMARK    4  A    between atoms: C_12  and  C_13
REMARK    5  A    between atoms: C_16  and  N_17
REMARK                            x       y       z     vdW  Elec       q    Type
REMARK                         _______ _______ _______ _____ _____    ______ ____
ROOT
ATOM      1  C   UNL     1       1.435   9.583  18.903  0.00  0.00    +0.000 A 
ATOM      2  C   UNL     1       1.299   8.845  20.099  0.00  0.00    +0.000 A 
ATOM      3  C   UNL     1       1.877   7.574  20.263  0.00  0.00    +0.000 A 
ATOM      4  C   UNL     1       2.659   6.996  19.253  0.00  0.00    +0.000 A 
ATOM      5  C   UNL     1       2.816   7.743  18.082  0.00  0.00    +0.000 A 
ATOM      6  F   UNL     1       3.548   7.261  17.064  0.00  0.00    +0.000 F 
ATOM      7  C   UNL     1       2.197   8.984  17.896  0.00  0.00    +0.000 A 
ENDROOT
BRANCH   1  13
ATOM      8  C   UNL     1      -0.614  11.046  18.289  0.00  0.00    +0.000 A 
ATOM      9  C   UNL     1      -1.167  12.338  18.163  0.00  0.00    +0.000 A 
ATOM     10  C   UNL     1      -0.420  13.480  18.445  0.00  0.00    +0.000 A 
ATOM     11  C   UNL     1       0.890  13.346  18.872  0.00  0.00    +0.000 A 
ATOM     12  C   UNL     1       1.448  12.074  19.012  0.00  0.00    +0.000 A 
ATOM     13  C   UNL     1       0.729  10.887  18.722  0.00  0.00    +0.000 A 
BRANCH   8  15
ATOM     14  C   UNL     1      -2.523  10.385  16.411  0.00  0.00    +0.000 C 
ATOM     15  S   UNL     1      -1.764   9.715  17.907  0.00  0.00    +0.000 S 
ENDBRANCH   8  15
ENDBRANCH   1  13
BRANCH   4  16
ATOM     16  C   UNL     1       3.234   5.653  19.402  0.00  0.00    +0.000 A 
ATOM     17  C   UNL     1       4.598   5.377  19.312  0.00  0.00    +0.000 A 
ATOM     18  N   UNL     1       5.123   4.122  19.375  0.00  0.00    +0.000 NA
ATOM     19  C   UNL     1       4.237   3.127  19.526  0.00  0.00    +0.000 A 
ATOM     20  C   UNL     1       2.875   3.391  19.637  0.00  0.00    +0.000 A 
ATOM     21  N   UNL     1       2.349   4.643  19.600  0.00  0.00    +0.000 NA
BRANCH  19  22
ATOM     22  N   UNL     1       4.747   1.832  19.514  0.00  0.00    +0.000 N 
ATOM     23  H   UNL     1       5.695   1.890  19.150  0.00  0.00    +0.000 HD
ATOM     24  H   UNL     1       4.719   1.401  20.429  0.00  0.00    +0.000 HD
ENDBRANCH  19  22
ENDBRANCH   4  16
TORSDOF 4
ENDMDL
MODEL 9
REMARK VINA RESULT:      -7.1      4.091      7.763
REMARK  Name = 
REMARK  5 active torsions:
REMARK  status: ('A' for Active; 'I' for Inactive)
REMARK    1  A    between atoms: C_1  and  S_2
REMARK    2  A    between atoms: S_2  and  C_3
REMARK    3  A    between atoms: C_8  and  C_9
REMARK    4  A    between atoms: C_12  and  C_13
REMARK    5  A    between atoms: C_16  and  N_17
REMARK                            x       y       z     vdW  Elec       q    Type
REMARK                         _______ _______ _______ _____ _____    ______ ____
ROOT
ATOM      1  C   UNL     1       2.417   7.013  18.523  0.00  0.00    +0.000 A 
ATOM      2  C   UNL     1       2.107   8.115  17.695  0.00  0.00    +0.000 A 
ATOM      3  C   UNL     1       1.502   9.280  18.197  0.00  0.00    +0.000 A 
ATOM      4  C   UNL     1       1.217   9.420  19.563  0.00  0.00    +0.000 A 
ATOM      5  C   UNL     1       1.553   8.339  20.384  0.00  0.00    +0.000 A 
ATOM      6  F   UNL     1       1.311   8.389  21.704  0.00  0.00    +0.000 F 
ATOM      7  C   UNL     1       2.106   7.157  19.878  0.00  0.00    +0.000 A 
ENDROOT
BRANCH   1  13
ATOM      8  C   UNL     1       4.268   5.597  17.390  0.00  0.00    +0.000 A 
ATOM      9  C   UNL     1       4.673   4.346  16.880  0.00  0.00    +0.000 A 
ATOM     10  C   UNL     1       3.822   3.244  16.894  0.00  0.00    +0.000 A 
ATOM     11  C   UNL     1       2.554   3.372  17.435  0.00  0.00    +0.000 A 
ATOM     12  C   UNL     1       2.142   4.602  17.954  0.00  0.00    +0.000 A 
ATOM     13  C   UNL     1       2.970   5.751  17.945  0.00  0.00    +0.000 A 
BRANCH   8  15
ATOM     14  C   UNL     1       6.955   5.860  16.826  0.00  0.00    +0.000 C 
ATOM     15  S   UNL     1       5.536   6.872  17.301  0.00  0.00    +0.000 S 
ENDBRANCH   8  15
ENDBRANCH   1  13
BRANCH   4  16
ATOM     16  C   UNL     1       0.551  10.618  20.089  0.00  0.00    +0.000 A 
ATOM     17  C   UNL     1       1.185  11.578  20.878  0.00  0.00    +0.000 A 
ATOM     18  N   UNL     1       0.548  12.648  21.427  0.00  0.00    +0.000 NA
ATOM     19  C   UNL     1      -0.767  12.738  21.173  0.00  0.00    +0.000 A 
ATOM     20  C   UNL     1      -1.407  11.797  20.372  0.00  0.00    +0.000 A 
ATOM     21  N   UNL     1      -0.771  10.742  19.800  0.00  0.00    +0.000 NA
BRANCH  19  22
ATOM     22  N   UNL     1      -1.449  13.781  21.790  0.00  0.00    +0.000 N 
ATOM     23  H   UNL     1      -1.631  13.492  22.748  0.00  0.00    +0.000 HD
ATOM     24  H   UNL     1      -0.937  14.653  21.748  0.00  0.00    +0.000 HD
ENDBRANCH  19  22
ENDBRANCH   4  16
TORSDOF 4
ENDMDL
