MODEL 1
REMARK VINA RESULT:      -7.3      0.000      0.000
REMARK  Name = 
REMARK  7 active torsions:
REMARK  status: ('A' for Active; 'I' for Inactive)
REMARK    1  A    between atoms: C_1  and  O_2
REMARK    2  A    between atoms: O_2  and  C_3
REMARK    3  A    between atoms: C_7  and  C_8
REMARK    4  A    between atoms: C_13  and  O_14
REMARK    5  A    between atoms: O_14  and  C_15
REMARK    6  A    between atoms: C_16  and  O_17
REMARK    7  A    between atoms: O_17  and  C_18
REMARK                            x       y       z     vdW  Elec       q    Type
REMARK                         _______ _______ _______ _____ _____    ______ ____
ROOT
ATOM      1  C   UNL     1       1.691   7.699  20.144  0.00  0.00    +0.000 A 
ATOM      2  C   UNL     1       2.336   7.739  18.926  0.00  0.00    +0.000 A 
ATOM      3  C   UNL     1       2.945   6.474  18.740  0.00  0.00    +0.000 A 
ATOM      4  C   UNL     1       3.744   5.905  17.744  0.00  0.00    +0.000 A 
ATOM      5  C   UNL     1       4.159   4.577  17.897  0.00  0.00    +0.000 A 
ATOM      6  C   UNL     1       3.787   3.803  19.011  0.00  0.00    +0.000 A 
ATOM      7  C   UNL     1       2.975   4.359  20.034  0.00  0.00    +0.000 A 
ATOM      8  C   UNL     1       2.602   5.705  19.845  0.00  0.00    +0.000 A 
ATOM      9  O   UNL     1       1.850   6.463  20.708  0.00  0.00    +0.000 OA
ENDROOT
BRANCH   1  14
ATOM     10  C   UNL     1      -1.105  11.872  22.700  0.00  0.00    +0.000 A 
ATOM     11  N   UNL     1      -0.470  10.859  23.218  0.00  0.00    +0.000 NA
ATOM     12  N   UNL     1       0.017  10.165  22.170  0.00  0.00    +0.000 N 
ATOM     13  C   UNL     1       0.746   9.024  22.095  0.00  0.00    +0.000 A 
ATOM     14  C   UNL     1       0.939   8.834  20.738  0.00  0.00    +0.000 A 
ATOM     15  N   UNL     1       0.345   9.840  19.985  0.00  0.00    +0.000 NA
ATOM     16  C   UNL     1      -0.200  10.593  20.899  0.00  0.00    +0.000 A 
ATOM     17  S   UNL     1      -1.140  12.022  20.924  0.00  0.00    +0.000 S 
BRANCH  10  19
ATOM     18  C   UNL     1      -3.154  12.685  23.520  0.00  0.00    +0.000 C 
ATOM     19  O   UNL     1      -1.731  12.818  23.436  0.00  0.00    +0.000 OA
ENDBRANCH  10  19
ENDBRANCH   1  14
BRANCH   6  20
ATOM     20  O   UNL     1       4.192   2.498  19.154  0.00  0.00    +0.000 OA
ATOM     21  C   UNL     1       3.537   1.490  18.396  0.00  0.00    +0.000 C 
ENDBRANCH   6  20
BRANCH   7  22
ATOM     22  O   UNL     1       2.510   3.757  21.169  0.00  0.00    +0.000 OA
ATOM     23  C   UNL     1       1.318   2.989  21.110  0.00  0.00    +0.000 C 
ENDBRANCH   7  22
TORSDOF 4
ENDMDL
MODEL 2
REMARK VINA RESULT:      -7.2      2.412      3.426
REMARK  Name = 
REMARK  7 active torsions:
REMARK  status: ('A' for Active; 'I' for Inactive)
REMARK    1  A    between atoms: C_1  and  O_2
REMARK    2  A    between atoms: O_2  and  C_3
REMARK    3  A    between atoms: C_7  and  C_8
REMARK    4  A    between atoms: C_13  and  O_14
REMARK    5  A    between atoms: O_14  and  C_15
REMARK    6  A    between atoms: C_16  and  O_17
REMARK    7  A    between atoms: O_17  and  C_18
REMARK                            x       y       z     vdW  Elec       q    Type
REMARK                         _______ _______ _______ _____ _____    ______ ____
ROOT
ATOM      1  C   UNL     1       2.648   6.965  18.874  0.00  0.00    +0.000 A 
ATOM      2  C   UNL     1       2.319   5.638  18.702  0.00  0.00    +0.000 A 
ATOM      3  C   UNL     1       3.276   5.088  17.814  0.00  0.00    +0.000 A 
ATOM      4  C   UNL     1       3.474   3.830  17.239  0.00  0.00    +0.000 A 
ATOM      5  C   UNL     1       4.576   3.645  16.395  0.00  0.00    +0.000 A 
ATOM      6  C   UNL     1       5.488   4.681  16.124  0.00  0.00    +0.000 A 
ATOM      7  C   UNL     1       5.308   5.967  16.698  0.00  0.00    +0.000 A 
ATOM      8  C   UNL     1       4.173   6.108  17.521  0.00  0.00    +0.000 A 
ATOM      9  O   UNL     1       3.775   7.257  18.157  0.00  0.00    +0.000 OA
ENDROOT
BRANCH   1  14
ATOM     10  C   UNL     1      -0.230  10.368  22.325  0.00  0.00    +0.000 A 
ATOM     11  N   UNL     1       0.304   9.204  22.563  0.00  0.00    +0.000 NA
ATOM     12  N   UNL     1       0.871   8.823  21.400  0.00  0.00    +0.000 N 
ATOM     13  C   UNL     1       1.556   7.708  21.046  0.00  0.00    +0.000 A 
ATOM     14  C   UNL     1       1.884   7.921  19.718  0.00  0.00    +0.000 A 
ATOM     15  N   UNL     1       1.414   9.146  19.259  0.00  0.00    +0.000 NA
ATOM     16  C   UNL     1       0.807   9.626  20.308  0.00  0.00    +0.000 A 
ATOM     17  S   UNL     1      -0.072  11.045  20.684  0.00  0.00    +0.000 S 
BRANCH  10  19
ATOM     18  C   UNL     1      -1.228  12.428  22.868  0.00  0.00    +0.000 C 
ATOM     19  O   UNL     1      -0.892  11.092  23.257  0.00  0.00    +0.000 OA
ENDBRANCH  10  19
ENDBRANCH   1  14
BRANCH   6  20
ATOM     20  O   UNL     1       6.572   4.494  15.300  0.00  0.00    +0.000 OA
ATOM     21  C   UNL     1       6.350   4.086  13.957  0.00  0.00    +0.000 C 
ENDBRANCH   6  20
BRANCH   7  22
ATOM     22  O   UNL     1       6.094   7.076  16.557  0.00  0.00    +0.000 OA
ATOM     23  C   UNL     1       7.228   7.235  17.395  0.00  0.00    +0.000 C 
ENDBRANCH   7  22
TORSDOF 4
ENDMDL
MODEL 3
REMARK VINA RESULT:      -7.1      2.591      3.745
REMARK  Name = 
REMARK  7 active torsions:
REMARK  status: ('A' for Active; 'I' for Inactive)
REMARK    1  A    between atoms: C_1  and  O_2
REMARK    2  A    between atoms: O_2  and  C_3
REMARK    3  A    between atoms: C_7  and  C_8
REMARK    4  A    between atoms: C_13  and  O_14
REMARK    5  A    between atoms: O_14  and  C_15
REMARK    6  A    between atoms: C_16  and  O_17
REMARK    7  A    between atoms: O_17  and  C_18
REMARK                            x       y       z     vdW  Elec       q    Type
REMARK                         _______ _______ _______ _____ _____    ______ ____
ROOT
ATOM      1  C   UNL     1       2.775   7.049  18.617  0.00  0.00    +0.000 A 
ATOM      2  C   UNL     1       2.470   5.718  18.432  0.00  0.00    +0.000 A 
ATOM      3  C   UNL     1       3.502   5.165  17.634  0.00  0.00    +0.000 A 
ATOM      4  C   UNL     1       3.756   3.902  17.092  0.00  0.00    +0.000 A 
ATOM      5  C   UNL     1       4.926   3.717  16.346  0.00  0.00    +0.000 A 
ATOM      6  C   UNL     1       5.851   4.757  16.141  0.00  0.00    +0.000 A 
ATOM      7  C   UNL     1       5.615   6.047  16.683  0.00  0.00    +0.000 A 
ATOM      8  C   UNL     1       4.414   6.188  17.406  0.00  0.00    +0.000 A 
ATOM      9  O   UNL     1       3.957   7.341  17.994  0.00  0.00    +0.000 OA
ENDROOT
BRANCH   1  14
ATOM     10  C   UNL     1      -0.416  10.879  21.246  0.00  0.00    +0.000 A 
ATOM     11  N   UNL     1       0.003  10.854  20.013  0.00  0.00    +0.000 NA
ATOM     12  N   UNL     1       0.729   9.723  19.902  0.00  0.00    +0.000 N 
ATOM     13  C   UNL     1       1.412   9.180  18.864  0.00  0.00    +0.000 A 
ATOM     14  C   UNL     1       1.937   8.008  19.382  0.00  0.00    +0.000 A 
ATOM     15  N   UNL     1       1.582   7.826  20.714  0.00  0.00    +0.000 NA
ATOM     16  C   UNL     1       0.875   8.892  20.966  0.00  0.00    +0.000 A 
ATOM     17  S   UNL     1       0.054   9.537  22.321  0.00  0.00    +0.000 S 
BRANCH  10  19
ATOM     18  C   UNL     1      -1.791  11.580  23.021  0.00  0.00    +0.000 C 
ATOM     19  O   UNL     1      -1.195  11.864  21.751  0.00  0.00    +0.000 OA
ENDBRANCH  10  19
ENDBRANCH   1  14
BRANCH   6  20
ATOM     20  O   UNL     1       7.002   4.568  15.413  0.00  0.00    +0.000 OA
ATOM     21  C   UNL     1       6.962   4.760  14.005  0.00  0.00    +0.000 C 
ENDBRANCH   6  20
BRANCH   7  22
ATOM     22  O   UNL     1       6.404   7.160  16.596  0.00  0.00    +0.000 OA
ATOM     23  C   UNL     1       7.459   7.339  17.528  0.00  0.00    +0.000 C 
ENDBRANCH   7  22
TORSDOF 4
ENDMDL
MODEL 4
REMARK VINA RESULT:      -6.9      2.522      3.612
REMARK  Name = 
REMARK  7 active torsions:
REMARK  status: ('A' for Active; 'I' for Inactive)
REMARK    1  A    between atoms: C_1  and  O_2
REMARK    2  A    between atoms: O_2  and  C_3
REMARK    3  A    between atoms: C_7  and  C_8
REMARK    4  A    between atoms: C_13  and  O_14
REMARK    5  A    between atoms: O_14  and  C_15
REMARK    6  A    between atoms: C_16  and  O_17
REMARK    7  A    between atoms: O_17  and  C_18
REMARK                            x       y       z     vdW  Elec       q    Type
REMARK                         _______ _______ _______ _____ _____    ______ ____
ROOT
ATOM      1  C   UNL     1       2.619   7.426  18.287  0.00  0.00    +0.000 A 
ATOM      2  C   UNL     1       2.303   6.085  18.258  0.00  0.00    +0.000 A 
ATOM      3  C   UNL     1       3.384   5.419  17.631  0.00  0.00    +0.000 A 
ATOM      4  C   UNL     1       3.655   4.092  17.287  0.00  0.00    +0.000 A 
ATOM      5  C   UNL     1       4.877   3.796  16.672  0.00  0.00    +0.000 A 
ATOM      6  C   UNL     1       5.837   4.790  16.406  0.00  0.00    +0.000 A 
ATOM      7  C   UNL     1       5.586   6.144  16.749  0.00  0.00    +0.000 A 
ATOM      8  C   UNL     1       4.333   6.393  17.344  0.00  0.00    +0.000 A 
ATOM      9  O   UNL     1       3.853   7.620  17.731  0.00  0.00    +0.000 OA
ENDROOT
BRANCH   1  14
ATOM     10  C   UNL     1      -0.691  11.299  20.698  0.00  0.00    +0.000 A 
ATOM     11  N   UNL     1      -0.096  10.269  21.229  0.00  0.00    +0.000 NA
ATOM     12  N   UNL     1       0.566   9.674  20.217  0.00  0.00    +0.000 N 
ATOM     13  C   UNL     1       1.346   8.565  20.169  0.00  0.00    +0.000 A 
ATOM     14  C   UNL     1       1.741   8.488  18.844  0.00  0.00    +0.000 A 
ATOM     15  N   UNL     1       1.220   9.530  18.087  0.00  0.00    +0.000 NA
ATOM     16  C   UNL     1       0.518  10.192  18.963  0.00  0.00    +0.000 A 
ATOM     17  S   UNL     1      -0.476  11.585  18.952  0.00  0.00    +0.000 S 
BRANCH  10  19
ATOM     18  C   UNL     1      -0.903  12.600  22.646  0.00  0.00    +0.000 C 
ATOM     19  O   UNL     1      -1.457  12.165  21.400  0.00  0.00    +0.000 OA
ENDBRANCH  10  19
ENDBRANCH   1  14
BRANCH   6  20
ATOM     20  O   UNL     1       7.039   4.493  15.809  0.00  0.00    +0.000 OA
ATOM     21  C   UNL     1       7.163   4.651  14.402  0.00  0.00    +0.000 C 
ENDBRANCH   6  20
BRANCH   7  22
ATOM     22  O   UNL     1       6.401   7.227  16.579  0.00  0.00    +0.000 OA
ATOM     23  C   UNL     1       7.465   7.446  17.492  0.00  0.00    +0.000 C 
ENDBRANCH   7  22
TORSDOF 4
ENDMDL
MODEL 5
REMARK VINA RESULT:      -6.8      0.967      1.073
REMARK  Name = 
REMARK  7 active torsions:
REMARK  status: ('A' for Active; 'I' for Inactive)
REMARK    1  A    between atoms: C_1  and  O_2
REMARK    2  A    between atoms: O_2  and  C_3
REMARK    3  A    between atoms: C_7  and  C_8
REMARK    4  A    between atoms: C_13  and  O_14
REMARK    5  A    between atoms: O_14  and  C_15
REMARK    6  A    between atoms: C_16  and  O_17
REMARK    7  A    between atoms: O_17  and  C_18
REMARK                            x       y       z     vdW  Elec       q    Type
REMARK                         _______ _______ _______ _____ _____    ______ ____
ROOT
ATOM      1  C   UNL     1       1.286   8.606  20.048  0.00  0.00    +0.000 A 
ATOM      2  C   UNL     1       1.883   8.775  18.817  0.00  0.00    +0.000 A 
ATOM      3  C   UNL     1       2.628   7.599  18.555  0.00  0.00    +0.000 A 
ATOM      4  C   UNL     1       3.455   7.171  17.513  0.00  0.00    +0.000 A 
ATOM      5  C   UNL     1       4.026   5.895  17.592  0.00  0.00    +0.000 A 
ATOM      6  C   UNL     1       3.781   5.035  18.679  0.00  0.00    +0.000 A 
ATOM      7  C   UNL     1       2.944   5.448  19.748  0.00  0.00    +0.000 A 
ATOM      8  C   UNL     1       2.411   6.747  19.632  0.00  0.00    +0.000 A 
ATOM      9  O   UNL     1       1.605   7.374  20.549  0.00  0.00    +0.000 OA
ENDROOT
BRANCH   1  14
ATOM     10  C   UNL     1      -1.912  12.292  22.867  0.00  0.00    +0.000 A 
ATOM     11  N   UNL     1      -1.205  11.294  23.316  0.00  0.00    +0.000 NA
ATOM     12  N   UNL     1      -0.637  10.737  22.227  0.00  0.00    +0.000 N 
ATOM     13  C   UNL     1       0.188   9.672  22.077  0.00  0.00    +0.000 A 
ATOM     14  C   UNL     1       0.427   9.618  20.714  0.00  0.00    +0.000 A 
ATOM     15  N   UNL     1      -0.235  10.634  20.033  0.00  0.00    +0.000 NA
ATOM     16  C   UNL     1      -0.861  11.255  20.992  0.00  0.00    +0.000 A 
ATOM     17  S   UNL     1      -1.921  12.594  21.111  0.00  0.00    +0.000 S 
BRANCH  10  19
ATOM     18  C   UNL     1      -3.848  12.559  24.176  0.00  0.00    +0.000 C 
ATOM     19  O   UNL     1      -2.633  13.115  23.663  0.00  0.00    +0.000 OA
ENDBRANCH  10  19
ENDBRANCH   1  14
BRANCH   6  20
ATOM     20  O   UNL     1       4.339   3.781  18.749  0.00  0.00    +0.000 OA
ATOM     21  C   UNL     1       3.756   2.728  17.994  0.00  0.00    +0.000 C 
ENDBRANCH   6  20
BRANCH   7  22
ATOM     22  O   UNL     1       2.587   4.746  20.865  0.00  0.00    +0.000 OA
ATOM     23  C   UNL     1       1.454   3.894  20.819  0.00  0.00    +0.000 C 
ENDBRANCH   7  22
TORSDOF 4
ENDMDL
MODEL 6
REMARK VINA RESULT:      -6.7      3.905      8.715
REMARK  Name = 
REMARK  7 active torsions:
REMARK  status: ('A' for Active; 'I' for Inactive)
REMARK    1  A    between atoms: C_1  and  O_2
REMARK    2  A    between atoms: O_2  and  C_3
REMARK    3  A    between atoms: C_7  and  C_8
REMARK    4  A    between atoms: C_13  and  O_14
REMARK    5  A    between atoms: O_14  and  C_15
REMARK    6  A    between atoms: C_16  and  O_17
REMARK    7  A    between atoms: O_17  and  C_18
REMARK                            x       y       z     vdW  Elec       q    Type
REMARK                         _______ _______ _______ _____ _____    ______ ____
ROOT
ATOM      1  C   UNL     1       1.937   7.782  19.597  0.00  0.00    +0.000 A 
ATOM      2  C   UNL     1       1.525   7.581  20.896  0.00  0.00    +0.000 A 
ATOM      3  C   UNL     1       0.835   8.751  21.297  0.00  0.00    +0.000 A 
ATOM      4  C   UNL     1       0.214   9.171  22.476  0.00  0.00    +0.000 A 
ATOM      5  C   UNL     1      -0.401  10.429  22.497  0.00  0.00    +0.000 A 
ATOM      6  C   UNL     1      -0.421  11.268  21.368  0.00  0.00    +0.000 A 
ATOM      7  C   UNL     1       0.202  10.862  20.159  0.00  0.00    +0.000 A 
ATOM      8  C   UNL     1       0.826   9.599  20.195  0.00  0.00    +0.000 A 
ATOM      9  O   UNL     1       1.515   9.009  19.165  0.00  0.00    +0.000 OA
ENDROOT
BRANCH   1  14
ATOM     10  C   UNL     1       5.032   4.325  16.397  0.00  0.00    +0.000 A 
ATOM     11  N   UNL     1       4.975   5.626  16.397  0.00  0.00    +0.000 NA
ATOM     12  N   UNL     1       4.080   5.948  17.353  0.00  0.00    +0.000 N 
ATOM     13  C   UNL     1       3.609   7.141  17.793  0.00  0.00    +0.000 A 
ATOM     14  C   UNL     1       2.719   6.803  18.799  0.00  0.00    +0.000 A 
ATOM     15  N   UNL     1       2.642   5.427  18.980  0.00  0.00    +0.000 NA
ATOM     16  C   UNL     1       3.467   4.976  18.077  0.00  0.00    +0.000 A 
ATOM     17  S   UNL     1       4.001   3.438  17.550  0.00  0.00    +0.000 S 
BRANCH  10  19
ATOM     18  C   UNL     1       6.035   4.176  14.274  0.00  0.00    +0.000 C 
ATOM     19  O   UNL     1       5.835   3.612  15.575  0.00  0.00    +0.000 OA
ENDBRANCH  10  19
ENDBRANCH   1  14
BRANCH   6  20
ATOM     20  O   UNL     1      -1.032  12.499  21.392  0.00  0.00    +0.000 OA
ATOM     21  C   UNL     1      -0.719  13.399  22.446  0.00  0.00    +0.000 C 
ENDBRANCH   6  20
BRANCH   7  22
ATOM     22  O   UNL     1       0.268  11.535  18.971  0.00  0.00    +0.000 OA
ATOM     23  C   UNL     1       1.296  12.491  18.770  0.00  0.00    +0.000 C 
ENDBRANCH   7  22
TORSDOF 4
ENDMDL
MODEL 7
REMARK VINA RESULT:      -6.7      3.714      8.615
REMARK  Name = 
REMARK  7 active torsions:
REMARK  status: ('A' for Active; 'I' for Inactive)
REMARK    1  A    between atoms: C_1  and  O_2
REMARK    2  A    between atoms: O_2  and  C_3
REMARK    3  A    between atoms: C_7  and  C_8
REMARK    4  A    between atoms: C_13  and  O_14
REMARK    5  A    between atoms: O_14  and  C_15
REMARK    6  A    between atoms: C_16  and  O_17
REMARK    7  A    between atoms: O_17  and  C_18
REMARK                            x       y       z     vdW  Elec       q    Type
REMARK                         _______ _______ _______ _____ _____    ______ ____
ROOT
ATOM      1  C   UNL     1       1.784   8.088  19.729  0.00  0.00    +0.000 A 
ATOM      2  C   UNL     1       1.418   7.771  21.020  0.00  0.00    +0.000 A 
ATOM      3  C   UNL     1       0.646   8.853  21.507  0.00  0.00    +0.000 A 
ATOM      4  C   UNL     1       0.018   9.145  22.721  0.00  0.00    +0.000 A 
ATOM      5  C   UNL     1      -0.696  10.344  22.835  0.00  0.00    +0.000 A 
ATOM      6  C   UNL     1      -0.808  11.248  21.763  0.00  0.00    +0.000 A 
ATOM      7  C   UNL     1      -0.182  10.973  20.520  0.00  0.00    +0.000 A 
ATOM      8  C   UNL     1       0.543   9.766  20.463  0.00  0.00    +0.000 A 
ATOM      9  O   UNL     1       1.255   9.301  19.386  0.00  0.00    +0.000 OA
ENDROOT
BRANCH   1  14
ATOM     10  C   UNL     1       4.850   4.561  16.578  0.00  0.00    +0.000 A 
ATOM     11  N   UNL     1       3.984   4.297  17.514  0.00  0.00    +0.000 NA
ATOM     12  N   UNL     1       3.542   5.497  17.945  0.00  0.00    +0.000 N 
ATOM     13  C   UNL     1       2.648   5.845  18.903  0.00  0.00    +0.000 A 
ATOM     14  C   UNL     1       2.625   7.229  18.856  0.00  0.00    +0.000 A 
ATOM     15  N   UNL     1       3.485   7.728  17.885  0.00  0.00    +0.000 NA
ATOM     16  C   UNL     1       4.012   6.643  17.389  0.00  0.00    +0.000 A 
ATOM     17  S   UNL     1       5.169   6.271  16.185  0.00  0.00    +0.000 S 
BRANCH  10  19
ATOM     18  C   UNL     1       6.247   4.079  14.748  0.00  0.00    +0.000 C 
ATOM     19  O   UNL     1       5.515   3.609  15.885  0.00  0.00    +0.000 OA
ENDBRANCH  10  19
ENDBRANCH   1  14
BRANCH   6  20
ATOM     20  O   UNL     1      -1.516  12.421  21.877  0.00  0.00    +0.000 OA
ATOM     21  C   UNL     1      -1.141  13.354  22.882  0.00  0.00    +0.000 C 
ENDBRANCH   6  20
BRANCH   7  22
ATOM     22  O   UNL     1      -0.197  11.723  19.378  0.00  0.00    +0.000 OA
ATOM     23  C   UNL     1      -1.281  11.589  18.472  0.00  0.00    +0.000 C 
ENDBRANCH   7  22
TORSDOF 4
ENDMDL
MODEL 8
REMARK VINA RESULT:      -6.7      1.050      1.258
REMARK  Name = 
REMARK  7 active torsions:
REMARK  status: ('A' for Active; 'I' for Inactive)
REMARK    1  A    between atoms: C_1  and  O_2
REMARK    2  A    between atoms: O_2  and  C_3
REMARK    3  A    between atoms: C_7  and  C_8
REMARK    4  A    between atoms: C_13  and  O_14
REMARK    5  A    between atoms: O_14  and  C_15
REMARK    6  A    between atoms: C_16  and  O_17
REMARK    7  A    between atoms: O_17  and  C_18
REMARK                            x       y       z     vdW  Elec       q    Type
REMARK                         _______ _______ _______ _____ _____    ______ ____
ROOT
ATOM      1  C   UNL     1       1.682   7.840  19.872  0.00  0.00    +0.000 A 
ATOM      2  C   UNL     1       2.376   7.858  18.682  0.00  0.00    +0.000 A 
ATOM      3  C   UNL     1       3.004   6.595  18.552  0.00  0.00    +0.000 A 
ATOM      4  C   UNL     1       3.848   6.009  17.604  0.00  0.00    +0.000 A 
ATOM      5  C   UNL     1       4.270   4.690  17.807  0.00  0.00    +0.000 A 
ATOM      6  C   UNL     1       3.860   3.941  18.925  0.00  0.00    +0.000 A 
ATOM      7  C   UNL     1       3.002   4.513  19.900  0.00  0.00    +0.000 A 
ATOM      8  C   UNL     1       2.624   5.850  19.662  0.00  0.00    +0.000 A 
ATOM      9  O   UNL     1       1.830   6.621  20.473  0.00  0.00    +0.000 OA
ENDROOT
BRANCH   1  14
ATOM     10  C   UNL     1      -1.267  12.322  21.600  0.00  0.00    +0.000 A 
ATOM     11  N   UNL     1      -0.746  12.072  20.433  0.00  0.00    +0.000 NA
ATOM     12  N   UNL     1      -0.148  10.869  20.556  0.00  0.00    +0.000 N 
ATOM     13  C   UNL     1       0.557  10.111  19.680  0.00  0.00    +0.000 A 
ATOM     14  C   UNL     1       0.895   8.982  20.406  0.00  0.00    +0.000 A 
ATOM     15  N   UNL     1       0.406   9.038  21.706  0.00  0.00    +0.000 NA
ATOM     16  C   UNL     1      -0.193  10.194  21.734  0.00  0.00    +0.000 A 
ATOM     17  S   UNL     1      -1.051  11.114  22.894  0.00  0.00    +0.000 S 
BRANCH  10  19
ATOM     18  C   UNL     1      -3.382  13.264  22.015  0.00  0.00    +0.000 C 
ATOM     19  O   UNL     1      -1.968  13.444  21.881  0.00  0.00    +0.000 OA
ENDBRANCH  10  19
ENDBRANCH   1  14
BRANCH   6  20
ATOM     20  O   UNL     1       4.271   2.643  19.117  0.00  0.00    +0.000 OA
ATOM     21  C   UNL     1       3.566   1.597  18.464  0.00  0.00    +0.000 C 
ENDBRANCH   6  20
BRANCH   7  22
ATOM     22  O   UNL     1       2.496   3.934  21.029  0.00  0.00    +0.000 OA
ATOM     23  C   UNL     1       1.282   3.204  20.953  0.00  0.00    +0.000 C 
ENDBRANCH   7  22
TORSDOF 4
ENDMDL
MODEL 9
REMARK VINA RESULT:      -6.7      1.869      2.329
REMARK  Name = 
REMARK  7 active torsions:
REMARK  status: ('A' for Active; 'I' for Inactive)
REMARK    1  A    between atoms: C_1  and  O_2
REMARK    2  A    between atoms: O_2  and  C_3
REMARK    3  A    between atoms: C_7  and  C_8
REMARK    4  A    between atoms: C_13  and  O_14
REMARK    5  A    between atoms: O_14  and  C_15
REMARK    6  A    between atoms: C_16  and  O_17
REMARK    7  A    between atoms: O_17  and  C_18
REMARK                            x       y       z     vdW  Elec       q    Type
REMARK                         _______ _______ _______ _____ _____    ______ ____
ROOT
ATOM      1  C   UNL     1       2.180   7.926  18.948  0.00  0.00    +0.000 A 
ATOM      2  C   UNL     1       2.954   7.685  17.833  0.00  0.00    +0.000 A 
ATOM      3  C   UNL     1       3.458   6.367  17.958  0.00  0.00    +0.000 A 
ATOM      4  C   UNL     1       4.303   5.561  17.190  0.00  0.00    +0.000 A 
ATOM      5  C   UNL     1       4.573   4.261  17.634  0.00  0.00    +0.000 A 
ATOM      6  C   UNL     1       4.011   3.745  18.816  0.00  0.00    +0.000 A 
ATOM      7  C   UNL     1       3.149   4.545  19.611  0.00  0.00    +0.000 A 
ATOM      8  C   UNL     1       2.927   5.852  19.134  0.00  0.00    +0.000 A 
ATOM      9  O   UNL     1       2.160   6.814  19.743  0.00  0.00    +0.000 OA
ENDROOT
BRANCH   1  14
ATOM     10  C   UNL     1      -0.386  12.887  19.701  0.00  0.00    +0.000 A 
ATOM     11  N   UNL     1       0.260  12.436  18.663  0.00  0.00    +0.000 NA
ATOM     12  N   UNL     1       0.675  11.200  19.007  0.00  0.00    +0.000 N 
ATOM     13  C   UNL     1       1.395  10.265  18.339  0.00  0.00    +0.000 A 
ATOM     14  C   UNL     1       1.478   9.205  19.226  0.00  0.00    +0.000 A 
ATOM     15  N   UNL     1       0.820   9.478  20.420  0.00  0.00    +0.000 NA
ATOM     16  C   UNL     1       0.376  10.688  20.228  0.00  0.00    +0.000 A 
ATOM     17  S   UNL     1      -0.514  11.835  21.134  0.00  0.00    +0.000 S 
BRANCH  10  19
ATOM     18  C   UNL     1      -0.260  15.150  19.072  0.00  0.00    +0.000 C 
ATOM     19  O   UNL     1      -0.971  14.106  19.746  0.00  0.00    +0.000 OA
ENDBRANCH  10  19
ENDBRANCH   1  14
BRANCH   6  20
ATOM     20  O   UNL     1       4.273   2.466  19.244  0.00  0.00    +0.000 OA
ATOM     21  C   UNL     1       3.598   1.382  18.620  0.00  0.00    +0.000 C 
ENDBRANCH   6  20
BRANCH   7  22
ATOM     22  O   UNL     1       2.508   4.207  20.770  0.00  0.00    +0.000 OA
ATOM     23  C   UNL     1       1.257   3.542  20.705  0.00  0.00    +0.000 C 
ENDBRANCH   7  22
TORSDOF 4
ENDMDL
