MODEL 1
REMARK VINA RESULT:      -8.1      0.000      0.000
REMARK  Name = 
REMARK  9 active torsions:
REMARK  status: ('A' for Active; 'I' for Inactive)
REMARK    1  A    between atoms: C_1  and  O_2
REMARK    2  A    between atoms: O_2  and  C_3
REMARK    3  A    between atoms: C_5  and  C_6
REMARK    4  A    between atoms: C_6  and  C_7
REMARK    5  A    between atoms: C_7  and  O_9
REMARK    6  A    between atoms: C_12  and  C_13
REMARK    7  A    between atoms: C_22  and  O_24
REMARK    8  A    between atoms: O_24  and  C_25
REMARK    9  A    between atoms: C_25  and  C_26
REMARK                            x       y       z     vdW  Elec       q    Type
REMARK                         _______ _______ _______ _____ _____    ______ ____
ROOT
ATOM      1  C   UNL     1       2.472   6.198  20.004  0.00  0.00    +0.000 A 
ATOM      2  C   UNL     1       1.522   5.295  20.560  0.00  0.00    +0.000 A 
ATOM      3  C   UNL     1       1.735   3.915  20.659  0.00  0.00    +0.000 A 
ATOM      4  C   UNL     1       2.818   3.373  20.008  0.00  0.00    +0.000 A 
ATOM      5  F   UNL     1       2.933   2.044  19.900  0.00  0.00    +0.000 F 
ATOM      6  C   UNL     1       3.718   4.215  19.371  0.00  0.00    +0.000 A 
ATOM      7  C   UNL     1       3.699   5.617  19.591  0.00  0.00    +0.000 A 
ATOM      8  C   UNL     1       5.039   6.292  19.255  0.00  0.00    +0.000 C 
ATOM      9  N   UNL     1       5.484   5.978  17.889  0.00  0.00    +0.000 N 
ATOM     10  C   UNL     1       6.513   6.597  17.190  0.00  0.00    +0.000 C 
ATOM     11  O   UNL     1       6.632   6.487  15.974  0.00  0.00    +0.000 OA
ATOM     12  C   UNL     1       4.773   4.886  17.229  0.00  0.00    +0.000 C 
ATOM     13  C   UNL     1       4.538   3.713  18.201  0.00  0.00    +0.000 C 
ENDROOT
BRANCH   1  19
ATOM     14  C   UNL     1       1.349   8.495  20.509  0.00  0.00    +0.000 A 
ATOM     15  C   UNL     1       0.722   9.661  20.020  0.00  0.00    +0.000 A 
ATOM     16  C   UNL     1       0.668   9.958  18.655  0.00  0.00    +0.000 A 
ATOM     17  C   UNL     1       1.329   9.101  17.780  0.00  0.00    +0.000 A 
ATOM     18  C   UNL     1       1.969   7.942  18.254  0.00  0.00    +0.000 A 
ATOM     19  C   UNL     1       1.995   7.583  19.623  0.00  0.00    +0.000 A 
BRANCH  14  21
ATOM     20  C   UNL     1       0.805   9.216  22.727  0.00  0.00    +0.000 C 
ATOM     21  O   UNL     1       1.362   8.223  21.860  0.00  0.00    +0.000 OA
ENDBRANCH  14  21
BRANCH  16  22
ATOM     22  C   UNL     1      -0.025  11.214  18.153  0.00  0.00    +0.000 C 
BRANCH  22  23
ATOM     23  C   UNL     1      -1.496  11.091  17.878  0.00  0.00    +0.000 C 
ATOM     24  O   UNL     1      -2.100  10.024  17.857  0.00  0.00    +0.000 OA
BRANCH  23  25
ATOM     25  O   UNL     1      -2.140  12.269  17.684  0.00  0.00    +0.000 OA
ATOM     26  H   UNL     1      -2.192  12.530  16.735  0.00  0.00    +0.000 HD
ENDBRANCH  23  25
ENDBRANCH  22  23
ENDBRANCH  16  22
ENDBRANCH   1  19
BRANCH  10  27
ATOM     27  O   UNL     1       7.378   7.320  17.958  0.00  0.00    +0.000 OA
BRANCH  27  28
ATOM     28  C   UNL     1       7.977   8.453  17.279  0.00  0.00    +0.000 C 
BRANCH  28  29
ATOM     29  C   UNL     1       8.553   9.581  18.129  0.00  0.00    +0.000 A 
ATOM     30  C   UNL     1       8.519  10.902  17.636  0.00  0.00    +0.000 A 
ATOM     31  C   UNL     1       8.947  11.984  18.418  0.00  0.00    +0.000 A 
ATOM     32  C   UNL     1       9.409  11.763  19.712  0.00  0.00    +0.000 A 
ATOM     33  C   UNL     1       9.434  10.463  20.219  0.00  0.00    +0.000 A 
ATOM     34  C   UNL     1       9.008   9.381  19.436  0.00  0.00    +0.000 A 
ENDBRANCH  28  29
ENDBRANCH  27  28
ENDBRANCH  10  27
TORSDOF 8
ENDMDL
MODEL 2
REMARK VINA RESULT:      -8.1      1.235      1.583
REMARK  Name = 
REMARK  9 active torsions:
REMARK  status: ('A' for Active; 'I' for Inactive)
REMARK    1  A    between atoms: C_1  and  O_2
REMARK    2  A    between atoms: O_2  and  C_3
REMARK    3  A    between atoms: C_5  and  C_6
REMARK    4  A    between atoms: C_6  and  C_7
REMARK    5  A    between atoms: C_7  and  O_9
REMARK    6  A    between atoms: C_12  and  C_13
REMARK    7  A    between atoms: C_22  and  O_24
REMARK    8  A    between atoms: O_24  and  C_25
REMARK    9  A    between atoms: C_25  and  C_26
REMARK                            x       y       z     vdW  Elec       q    Type
REMARK                         _______ _______ _______ _____ _____    ______ ____
ROOT
ATOM      1  C   UNL     1       2.229   6.332  20.031  0.00  0.00    +0.000 A 
ATOM      2  C   UNL     1       1.190   5.508  20.550  0.00  0.00    +0.000 A 
ATOM      3  C   UNL     1       1.261   4.111  20.591  0.00  0.00    +0.000 A 
ATOM      4  C   UNL     1       2.286   3.490  19.917  0.00  0.00    +0.000 A 
ATOM      5  F   UNL     1       2.267   2.161  19.754  0.00  0.00    +0.000 F 
ATOM      6  C   UNL     1       3.270   4.261  19.315  0.00  0.00    +0.000 A 
ATOM      7  C   UNL     1       3.392   5.647  19.594  0.00  0.00    +0.000 A 
ATOM      8  C   UNL     1       4.795   6.196  19.286  0.00  0.00    +0.000 C 
ATOM      9  N   UNL     1       5.211   5.895  17.908  0.00  0.00    +0.000 N 
ATOM     10  C   UNL     1       6.300   6.435  17.235  0.00  0.00    +0.000 C 
ATOM     11  O   UNL     1       6.413   6.364  16.016  0.00  0.00    +0.000 OA
ATOM     12  C   UNL     1       4.396   4.910  17.203  0.00  0.00    +0.000 C 
ATOM     13  C   UNL     1       4.039   3.727  18.126  0.00  0.00    +0.000 C 
ENDROOT
BRANCH   1  19
ATOM     14  C   UNL     1       1.288   8.692  20.614  0.00  0.00    +0.000 A 
ATOM     15  C   UNL     1       0.793   9.934  20.164  0.00  0.00    +0.000 A 
ATOM     16  C   UNL     1       0.836  10.308  18.817  0.00  0.00    +0.000 A 
ATOM     17  C   UNL     1       1.464   9.441  17.926  0.00  0.00    +0.000 A 
ATOM     18  C   UNL     1       1.973   8.205  18.362  0.00  0.00    +0.000 A 
ATOM     19  C   UNL     1       1.897   7.774  19.708  0.00  0.00    +0.000 A 
BRANCH  14  21
ATOM     20  C   UNL     1       0.561   9.282  22.818  0.00  0.00    +0.000 C 
ATOM     21  O   UNL     1       1.206   8.348  21.946  0.00  0.00    +0.000 OA
ENDBRANCH  14  21
BRANCH  16  22
ATOM     22  C   UNL     1       0.283  11.646  18.356  0.00  0.00    +0.000 C 
BRANCH  22  23
ATOM     23  C   UNL     1       1.208  12.822  18.490  0.00  0.00    +0.000 C 
ATOM     24  O   UNL     1       1.193  13.599  19.437  0.00  0.00    +0.000 OA
BRANCH  23  25
ATOM     25  O   UNL     1       2.109  12.954  17.484  0.00  0.00    +0.000 OA
ATOM     26  H   UNL     1       2.443  12.089  17.147  0.00  0.00    +0.000 HD
ENDBRANCH  23  25
ENDBRANCH  22  23
ENDBRANCH  16  22
ENDBRANCH   1  19
BRANCH  10  27
ATOM     27  O   UNL     1       7.232   7.035  18.032  0.00  0.00    +0.000 OA
BRANCH  27  28
ATOM     28  C   UNL     1       8.085   7.985  17.345  0.00  0.00    +0.000 C 
BRANCH  28  29
ATOM     29  C   UNL     1       8.421   9.294  18.051  0.00  0.00    +0.000 A 
ATOM     30  C   UNL     1       9.068   9.255  19.304  0.00  0.00    +0.000 A 
ATOM     31  C   UNL     1       9.485  10.430  19.948  0.00  0.00    +0.000 A 
ATOM     32  C   UNL     1       9.267  11.664  19.344  0.00  0.00    +0.000 A 
ATOM     33  C   UNL     1       8.641  11.718  18.097  0.00  0.00    +0.000 A 
ATOM     34  C   UNL     1       8.224  10.544  17.455  0.00  0.00    +0.000 A 
ENDBRANCH  28  29
ENDBRANCH  27  28
ENDBRANCH  10  27
TORSDOF 8
ENDMDL
MODEL 3
REMARK VINA RESULT:      -8.0      0.328      1.008
REMARK  Name = 
REMARK  9 active torsions:
REMARK  status: ('A' for Active; 'I' for Inactive)
REMARK    1  A    between atoms: C_1  and  O_2
REMARK    2  A    between atoms: O_2  and  C_3
REMARK    3  A    between atoms: C_5  and  C_6
REMARK    4  A    between atoms: C_6  and  C_7
REMARK    5  A    between atoms: C_7  and  O_9
REMARK    6  A    between atoms: C_12  and  C_13
REMARK    7  A    between atoms: C_22  and  O_24
REMARK    8  A    between atoms: O_24  and  C_25
REMARK    9  A    between atoms: C_25  and  C_26
REMARK                            x       y       z     vdW  Elec       q    Type
REMARK                         _______ _______ _______ _____ _____    ______ ____
ROOT
ATOM      1  C   UNL     1       2.361   6.232  19.957  0.00  0.00    +0.000 A 
ATOM      2  C   UNL     1       1.355   5.362  20.466  0.00  0.00    +0.000 A 
ATOM      3  C   UNL     1       1.484   3.969  20.498  0.00  0.00    +0.000 A 
ATOM      4  C   UNL     1       2.536   3.395  19.823  0.00  0.00    +0.000 A 
ATOM      5  F   UNL     1       2.572   2.068  19.650  0.00  0.00    +0.000 F 
ATOM      6  C   UNL     1       3.488   4.211  19.230  0.00  0.00    +0.000 A 
ATOM      7  C   UNL     1       3.552   5.599  19.518  0.00  0.00    +0.000 A 
ATOM      8  C   UNL     1       4.932   6.207  19.219  0.00  0.00    +0.000 C 
ATOM      9  N   UNL     1       5.364   5.934  17.840  0.00  0.00    +0.000 N 
ATOM     10  C   UNL     1       6.432   6.523  17.175  0.00  0.00    +0.000 C 
ATOM     11  O   UNL     1       6.551   6.466  15.955  0.00  0.00    +0.000 OA
ATOM     12  C   UNL     1       4.593   4.920  17.126  0.00  0.00    +0.000 C 
ATOM     13  C   UNL     1       4.283   3.718  18.039  0.00  0.00    +0.000 C 
ENDROOT
BRANCH   1  19
ATOM     14  C   UNL     1       1.334   8.551  20.557  0.00  0.00    +0.000 A 
ATOM     15  C   UNL     1       0.787   9.775  20.116  0.00  0.00    +0.000 A 
ATOM     16  C   UNL     1       0.804  10.155  18.771  0.00  0.00    +0.000 A 
ATOM     17  C   UNL     1       1.457   9.317  17.871  0.00  0.00    +0.000 A 
ATOM     18  C   UNL     1       2.017   8.100  18.298  0.00  0.00    +0.000 A 
ATOM     19  C   UNL     1       1.970   7.661  19.643  0.00  0.00    +0.000 A 
BRANCH  14  21
ATOM     20  C   UNL     1       0.712   9.158  22.789  0.00  0.00    +0.000 C 
ATOM     21  O   UNL     1       1.277   8.200  21.889  0.00  0.00    +0.000 OA
ENDBRANCH  14  21
BRANCH  16  22
ATOM     22  C   UNL     1       0.196  11.473  18.320  0.00  0.00    +0.000 C 
BRANCH  22  23
ATOM     23  C   UNL     1      -1.277  11.453  18.028  0.00  0.00    +0.000 C 
ATOM     24  O   UNL     1      -2.087  12.214  18.545  0.00  0.00    +0.000 OA
BRANCH  23  25
ATOM     25  O   UNL     1      -1.661  10.539  17.103  0.00  0.00    +0.000 OA
ATOM     26  H   UNL     1      -2.549  10.152  17.286  0.00  0.00    +0.000 HD
ENDBRANCH  23  25
ENDBRANCH  22  23
ENDBRANCH  16  22
ENDBRANCH   1  19
BRANCH  10  27
ATOM     27  O   UNL     1       7.336   7.155  17.979  0.00  0.00    +0.000 OA
BRANCH  27  28
ATOM     28  C   UNL     1       8.118   8.177  17.312  0.00  0.00    +0.000 C 
BRANCH  28  29
ATOM     29  C   UNL     1       8.457   9.446  18.086  0.00  0.00    +0.000 A 
ATOM     30  C   UNL     1       9.075   9.339  19.349  0.00  0.00    +0.000 A 
ATOM     31  C   UNL     1       9.494  10.476  20.056  0.00  0.00    +0.000 A 
ATOM     32  C   UNL     1       9.306  11.740  19.508  0.00  0.00    +0.000 A 
ATOM     33  C   UNL     1       8.708  11.862  18.252  0.00  0.00    +0.000 A 
ATOM     34  C   UNL     1       8.289  10.726  17.546  0.00  0.00    +0.000 A 
ENDBRANCH  28  29
ENDBRANCH  27  28
ENDBRANCH  10  27
TORSDOF 8
ENDMDL
MODEL 4
REMARK VINA RESULT:      -7.7      2.251      7.350
REMARK  Name = 
REMARK  9 active torsions:
REMARK  status: ('A' for Active; 'I' for Inactive)
REMARK    1  A    between atoms: C_1  and  O_2
REMARK    2  A    between atoms: O_2  and  C_3
REMARK    3  A    between atoms: C_5  and  C_6
REMARK    4  A    between atoms: C_6  and  C_7
REMARK    5  A    between atoms: C_7  and  O_9
REMARK    6  A    between atoms: C_12  and  C_13
REMARK    7  A    between atoms: C_22  and  O_24
REMARK    8  A    between atoms: O_24  and  C_25
REMARK    9  A    between atoms: C_25  and  C_26
REMARK                            x       y       z     vdW  Elec       q    Type
REMARK                         _______ _______ _______ _____ _____    ______ ____
ROOT
ATOM      1  C   UNL     1       3.481   4.451  17.503  0.00  0.00    +0.000 A 
ATOM      2  C   UNL     1       3.409   3.067  17.176  0.00  0.00    +0.000 A 
ATOM      3  C   UNL     1       2.334   2.244  17.531  0.00  0.00    +0.000 A 
ATOM      4  C   UNL     1       1.399   2.737  18.410  0.00  0.00    +0.000 A 
ATOM      5  F   UNL     1       0.482   1.915  18.937  0.00  0.00    +0.000 F 
ATOM      6  C   UNL     1       1.488   4.056  18.829  0.00  0.00    +0.000 A 
ATOM      7  C   UNL     1       2.352   4.978  18.182  0.00  0.00    +0.000 A 
ATOM      8  C   UNL     1       1.939   6.441  18.406  0.00  0.00    +0.000 C 
ATOM      9  N   UNL     1       1.802   6.760  19.835  0.00  0.00    +0.000 N 
ATOM     10  C   UNL     1       1.673   8.026  20.392  0.00  0.00    +0.000 C 
ATOM     11  O   UNL     1       1.857   8.233  21.587  0.00  0.00    +0.000 OA
ATOM     12  C   UNL     1       1.778   5.613  20.738  0.00  0.00    +0.000 C 
ATOM     13  C   UNL     1       0.909   4.476  20.163  0.00  0.00    +0.000 C 
ENDROOT
BRANCH   1  19
ATOM     14  C   UNL     1       5.936   4.900  18.252  0.00  0.00    +0.000 A 
ATOM     15  C   UNL     1       7.064   5.749  18.233  0.00  0.00    +0.000 A 
ATOM     16  C   UNL     1       7.132   6.875  17.407  0.00  0.00    +0.000 A 
ATOM     17  C   UNL     1       6.074   7.098  16.530  0.00  0.00    +0.000 A 
ATOM     18  C   UNL     1       4.950   6.254  16.529  0.00  0.00    +0.000 A 
ATOM     19  C   UNL     1       4.826   5.137  17.390  0.00  0.00    +0.000 A 
BRANCH  14  21
ATOM     20  C   UNL     1       4.970   3.872  20.186  0.00  0.00    +0.000 C 
ATOM     21  O   UNL     1       5.895   3.812  19.097  0.00  0.00    +0.000 OA
ENDBRANCH  14  21
BRANCH  16  22
ATOM     22  C   UNL     1       8.353   7.781  17.415  0.00  0.00    +0.000 C 
BRANCH  22  23
ATOM     23  C   UNL     1       8.201   9.085  18.144  0.00  0.00    +0.000 C 
ATOM     24  O   UNL     1       7.463   9.991  17.777  0.00  0.00    +0.000 OA
BRANCH  23  25
ATOM     25  O   UNL     1       8.927   9.186  19.286  0.00  0.00    +0.000 OA
ATOM     26  H   UNL     1       8.893   8.371  19.839  0.00  0.00    +0.000 HD
ENDBRANCH  23  25
ENDBRANCH  22  23
ENDBRANCH  16  22
ENDBRANCH   1  19
BRANCH  10  27
ATOM     27  O   UNL     1       1.318   9.010  19.515  0.00  0.00    +0.000 OA
BRANCH  27  28
ATOM     28  C   UNL     1       0.258   9.879  19.988  0.00  0.00    +0.000 C 
BRANCH  28  29
ATOM     29  C   UNL     1      -0.761  10.389  18.975  0.00  0.00    +0.000 A 
ATOM     30  C   UNL     1      -0.966   9.669  17.780  0.00  0.00    +0.000 A 
ATOM     31  C   UNL     1      -1.959  10.042  16.863  0.00  0.00    +0.000 A 
ATOM     32  C   UNL     1      -2.770  11.140  17.130  0.00  0.00    +0.000 A 
ATOM     33  C   UNL     1      -2.590  11.854  18.316  0.00  0.00    +0.000 A 
ATOM     34  C   UNL     1      -1.596  11.482  19.232  0.00  0.00    +0.000 A 
ENDBRANCH  28  29
ENDBRANCH  27  28
ENDBRANCH  10  27
TORSDOF 8
ENDMDL
MODEL 5
REMARK VINA RESULT:      -7.6      0.913      1.091
REMARK  Name = 
REMARK  9 active torsions:
REMARK  status: ('A' for Active; 'I' for Inactive)
REMARK    1  A    between atoms: C_1  and  O_2
REMARK    2  A    between atoms: O_2  and  C_3
REMARK    3  A    between atoms: C_5  and  C_6
REMARK    4  A    between atoms: C_6  and  C_7
REMARK    5  A    between atoms: C_7  and  O_9
REMARK    6  A    between atoms: C_12  and  C_13
REMARK    7  A    between atoms: C_22  and  O_24
REMARK    8  A    between atoms: O_24  and  C_25
REMARK    9  A    between atoms: C_25  and  C_26
REMARK                            x       y       z     vdW  Elec       q    Type
REMARK                         _______ _______ _______ _____ _____    ______ ____
ROOT
ATOM      1  C   UNL     1       2.429   6.203  20.011  0.00  0.00    +0.000 A 
ATOM      2  C   UNL     1       1.464   5.309  20.556  0.00  0.00    +0.000 A 
ATOM      3  C   UNL     1       1.649   3.923  20.625  0.00  0.00    +0.000 A 
ATOM      4  C   UNL     1       2.716   3.372  19.956  0.00  0.00    +0.000 A 
ATOM      5  F   UNL     1       2.804   2.043  19.820  0.00  0.00    +0.000 F 
ATOM      6  C   UNL     1       3.629   4.208  19.329  0.00  0.00    +0.000 A 
ATOM      7  C   UNL     1       3.641   5.605  19.577  0.00  0.00    +0.000 A 
ATOM      8  C   UNL     1       4.992   6.259  19.245  0.00  0.00    +0.000 C 
ATOM      9  N   UNL     1       5.421   5.964  17.870  0.00  0.00    +0.000 N 
ATOM     10  C   UNL     1       6.458   6.575  17.177  0.00  0.00    +0.000 C 
ATOM     11  O   UNL     1       6.567   6.487  15.958  0.00  0.00    +0.000 OA
ATOM     12  C   UNL     1       4.684   4.900  17.194  0.00  0.00    +0.000 C 
ATOM     13  C   UNL     1       4.431   3.713  18.144  0.00  0.00    +0.000 C 
ENDROOT
BRANCH   1  19
ATOM     14  C   UNL     1       1.307   8.492  20.553  0.00  0.00    +0.000 A 
ATOM     15  C   UNL     1       0.709   9.680  20.082  0.00  0.00    +0.000 A 
ATOM     16  C   UNL     1       0.707  10.025  18.727  0.00  0.00    +0.000 A 
ATOM     17  C   UNL     1       1.394   9.191  17.848  0.00  0.00    +0.000 A 
ATOM     18  C   UNL     1       2.006   8.011  18.305  0.00  0.00    +0.000 A 
ATOM     19  C   UNL     1       1.978   7.605  19.661  0.00  0.00    +0.000 A 
BRANCH  14  21
ATOM     20  C   UNL     1       0.960   9.234  22.803  0.00  0.00    +0.000 C 
ATOM     21  O   UNL     1       1.267   8.173  21.894  0.00  0.00    +0.000 OA
ENDBRANCH  14  21
BRANCH  16  22
ATOM     22  C   UNL     1       0.044  11.304  18.244  0.00  0.00    +0.000 C 
BRANCH  22  23
ATOM     23  C   UNL     1       0.628  12.586  18.763  0.00  0.00    +0.000 C 
ATOM     24  O   UNL     1       1.830  12.825  18.797  0.00  0.00    +0.000 OA
BRANCH  23  25
ATOM     25  O   UNL     1      -0.285  13.502  19.173  0.00  0.00    +0.000 OA
ATOM     26  H   UNL     1      -0.751  13.241  20.001  0.00  0.00    +0.000 HD
ENDBRANCH  23  25
ENDBRANCH  22  23
ENDBRANCH  16  22
ENDBRANCH   1  19
BRANCH  10  27
ATOM     27  O   UNL     1       7.343   7.266  17.953  0.00  0.00    +0.000 OA
BRANCH  27  28
ATOM     28  C   UNL     1       8.050   8.324  17.257  0.00  0.00    +0.000 C 
BRANCH  28  29
ATOM     29  C   UNL     1       8.554   9.510  18.072  0.00  0.00    +0.000 A 
ATOM     30  C   UNL     1       8.413  10.814  17.553  0.00  0.00    +0.000 A 
ATOM     31  C   UNL     1       8.771  11.942  18.305  0.00  0.00    +0.000 A 
ATOM     32  C   UNL     1       9.272  11.785  19.593  0.00  0.00    +0.000 A 
ATOM     33  C   UNL     1       9.404  10.502  20.127  0.00  0.00    +0.000 A 
ATOM     34  C   UNL     1       9.046   9.374  19.375  0.00  0.00    +0.000 A 
ENDBRANCH  28  29
ENDBRANCH  27  28
ENDBRANCH  10  27
TORSDOF 8
ENDMDL
MODEL 6
REMARK VINA RESULT:      -7.4      4.397      8.151
REMARK  Name = 
REMARK  9 active torsions:
REMARK  status: ('A' for Active; 'I' for Inactive)
REMARK    1  A    between atoms: C_1  and  O_2
REMARK    2  A    between atoms: O_2  and  C_3
REMARK    3  A    between atoms: C_5  and  C_6
REMARK    4  A    between atoms: C_6  and  C_7
REMARK    5  A    between atoms: C_7  and  O_9
REMARK    6  A    between atoms: C_12  and  C_13
REMARK    7  A    between atoms: C_22  and  O_24
REMARK    8  A    between atoms: O_24  and  C_25
REMARK    9  A    between atoms: C_25  and  C_26
REMARK                            x       y       z     vdW  Elec       q    Type
REMARK                         _______ _______ _______ _____ _____    ______ ____
ROOT
ATOM      1  C   UNL     1       0.362  13.054  20.198  0.00  0.00    +0.000 A 
ATOM      2  C   UNL     1      -0.706  13.984  20.345  0.00  0.00    +0.000 A 
ATOM      3  C   UNL     1      -2.057  13.628  20.266  0.00  0.00    +0.000 A 
ATOM      4  C   UNL     1      -2.374  12.365  19.825  0.00  0.00    +0.000 A 
ATOM      5  F   UNL     1      -3.645  12.060  19.532  0.00  0.00    +0.000 F 
ATOM      6  C   UNL     1      -1.355  11.456  19.578  0.00  0.00    +0.000 A 
ATOM      7  C   UNL     1      -0.027  11.702  20.014  0.00  0.00    +0.000 A 
ATOM      8  C   UNL     1       0.808  10.417  20.137  0.00  0.00    +0.000 C 
ATOM      9  N   UNL     1       0.797   9.634  18.892  0.00  0.00    +0.000 N 
ATOM     10  C   UNL     1       1.620   8.559  18.583  0.00  0.00    +0.000 C 
ATOM     11  O   UNL     1       1.753   8.150  17.434  0.00  0.00    +0.000 OA
ATOM     12  C   UNL     1      -0.205  10.030  17.906  0.00  0.00    +0.000 C 
ATOM     13  C   UNL     1      -1.557  10.332  18.584  0.00  0.00    +0.000 C 
ENDROOT
BRANCH   1  19
ATOM     14  C   UNL     1       2.473  14.440  20.842  0.00  0.00    +0.000 A 
ATOM     15  C   UNL     1       3.649  15.101  20.430  0.00  0.00    +0.000 A 
ATOM     16  C   UNL     1       4.139  15.003  19.124  0.00  0.00    +0.000 A 
ATOM     17  C   UNL     1       3.468  14.156  18.245  0.00  0.00    +0.000 A 
ATOM     18  C   UNL     1       2.301  13.481  18.645  0.00  0.00    +0.000 A 
ATOM     19  C   UNL     1       1.750  13.602  19.943  0.00  0.00    +0.000 A 
BRANCH  14  21
ATOM     20  C   UNL     1       1.596  15.890  22.534  0.00  0.00    +0.000 C 
ATOM     21  O   UNL     1       2.008  14.580  22.132  0.00  0.00    +0.000 OA
ENDBRANCH  14  21
BRANCH  16  22
ATOM     22  C   UNL     1       5.401  15.736  18.702  0.00  0.00    +0.000 C 
BRANCH  22  23
ATOM     23  C   UNL     1       6.657  14.915  18.661  0.00  0.00    +0.000 C 
ATOM     24  O   UNL     1       7.186  14.525  17.627  0.00  0.00    +0.000 OA
BRANCH  23  25
ATOM     25  O   UNL     1       7.205  14.653  19.874  0.00  0.00    +0.000 OA
ATOM     26  H   UNL     1       7.956  14.015  19.831  0.00  0.00    +0.000 HD
ENDBRANCH  23  25
ENDBRANCH  22  23
ENDBRANCH  16  22
ENDBRANCH   1  19
BRANCH  10  27
ATOM     27  O   UNL     1       2.255   7.991  19.650  0.00  0.00    +0.000 OA
BRANCH  27  28
ATOM     28  C   UNL     1       2.950   6.756  19.345  0.00  0.00    +0.000 C 
BRANCH  28  29
ATOM     29  C   UNL     1       2.169   5.449  19.437  0.00  0.00    +0.000 A 
ATOM     30  C   UNL     1       1.938   4.699  18.266  0.00  0.00    +0.000 A 
ATOM     31  C   UNL     1       1.312   3.445  18.313  0.00  0.00    +0.000 A 
ATOM     32  C   UNL     1       0.912   2.917  19.536  0.00  0.00    +0.000 A 
ATOM     33  C   UNL     1       1.147   3.640  20.706  0.00  0.00    +0.000 A 
ATOM     34  C   UNL     1       1.772   4.894  20.659  0.00  0.00    +0.000 A 
ENDBRANCH  28  29
ENDBRANCH  27  28
ENDBRANCH  10  27
TORSDOF 8
ENDMDL
MODEL 7
REMARK VINA RESULT:      -7.3      4.696      8.201
REMARK  Name = 
REMARK  9 active torsions:
REMARK  status: ('A' for Active; 'I' for Inactive)
REMARK    1  A    between atoms: C_1  and  O_2
REMARK    2  A    between atoms: O_2  and  C_3
REMARK    3  A    between atoms: C_5  and  C_6
REMARK    4  A    between atoms: C_6  and  C_7
REMARK    5  A    between atoms: C_7  and  O_9
REMARK    6  A    between atoms: C_12  and  C_13
REMARK    7  A    between atoms: C_22  and  O_24
REMARK    8  A    between atoms: O_24  and  C_25
REMARK    9  A    between atoms: C_25  and  C_26
REMARK                            x       y       z     vdW  Elec       q    Type
REMARK                         _______ _______ _______ _____ _____    ______ ____
ROOT
ATOM      1  C   UNL     1       0.403  13.035  20.189  0.00  0.00    +0.000 A 
ATOM      2  C   UNL     1      -0.657  13.973  20.345  0.00  0.00    +0.000 A 
ATOM      3  C   UNL     1      -2.011  13.626  20.273  0.00  0.00    +0.000 A 
ATOM      4  C   UNL     1      -2.340  12.367  19.831  0.00  0.00    +0.000 A 
ATOM      5  F   UNL     1      -3.615  12.072  19.545  0.00  0.00    +0.000 F 
ATOM      6  C   UNL     1      -1.330  11.451  19.576  0.00  0.00    +0.000 A 
ATOM      7  C   UNL     1       0.003  11.686  20.004  0.00  0.00    +0.000 A 
ATOM      8  C   UNL     1       0.829  10.395  20.118  0.00  0.00    +0.000 C 
ATOM      9  N   UNL     1       0.805   9.615  18.872  0.00  0.00    +0.000 N 
ATOM     10  C   UNL     1       1.618   8.535  18.555  0.00  0.00    +0.000 C 
ATOM     11  O   UNL     1       1.741   8.128  17.404  0.00  0.00    +0.000 OA
ATOM     12  C   UNL     1      -0.200  10.021  17.893  0.00  0.00    +0.000 C 
ATOM     13  C   UNL     1      -1.545  10.331  18.579  0.00  0.00    +0.000 C 
ENDROOT
BRANCH   1  19
ATOM     14  C   UNL     1       2.537  14.384  20.834  0.00  0.00    +0.000 A 
ATOM     15  C   UNL     1       3.716  15.041  20.420  0.00  0.00    +0.000 A 
ATOM     16  C   UNL     1       4.186  14.965  19.106  0.00  0.00    +0.000 A 
ATOM     17  C   UNL     1       3.495  14.145  18.218  0.00  0.00    +0.000 A 
ATOM     18  C   UNL     1       2.326  13.474  18.620  0.00  0.00    +0.000 A 
ATOM     19  C   UNL     1       1.793  13.573  19.927  0.00  0.00    +0.000 A 
BRANCH  14  21
ATOM     20  C   UNL     1       1.688  15.804  22.565  0.00  0.00    +0.000 C 
ATOM     21  O   UNL     1       2.091  14.501  22.133  0.00  0.00    +0.000 OA
ENDBRANCH  14  21
BRANCH  16  22
ATOM     22  C   UNL     1       5.451  15.694  18.682  0.00  0.00    +0.000 C 
BRANCH  22  23
ATOM     23  C   UNL     1       6.033  16.643  19.689  0.00  0.00    +0.000 C 
ATOM     24  O   UNL     1       6.805  16.307  20.579  0.00  0.00    +0.000 OA
BRANCH  23  25
ATOM     25  O   UNL     1       5.667  17.939  19.526  0.00  0.00    +0.000 OA
ATOM     26  H   UNL     1       4.731  18.113  19.782  0.00  0.00    +0.000 HD
ENDBRANCH  23  25
ENDBRANCH  22  23
ENDBRANCH  16  22
ENDBRANCH   1  19
BRANCH  10  27
ATOM     27  O   UNL     1       2.255   7.960  19.616  0.00  0.00    +0.000 OA
BRANCH  27  28
ATOM     28  C   UNL     1       3.028   6.780  19.282  0.00  0.00    +0.000 C 
BRANCH  28  29
ATOM     29  C   UNL     1       2.336   5.422  19.348  0.00  0.00    +0.000 A 
ATOM     30  C   UNL     1       1.857   4.952  20.588  0.00  0.00    +0.000 A 
ATOM     31  C   UNL     1       1.129   3.757  20.684  0.00  0.00    +0.000 A 
ATOM     32  C   UNL     1       0.863   3.015  19.539  0.00  0.00    +0.000 A 
ATOM     33  C   UNL     1       1.318   3.475  18.301  0.00  0.00    +0.000 A 
ATOM     34  C   UNL     1       2.047   4.669  18.206  0.00  0.00    +0.000 A 
ENDBRANCH  28  29
ENDBRANCH  27  28
ENDBRANCH  10  27
TORSDOF 8
ENDMDL
MODEL 8
REMARK VINA RESULT:      -7.3      3.129      5.332
REMARK  Name = 
REMARK  9 active torsions:
REMARK  status: ('A' for Active; 'I' for Inactive)
REMARK    1  A    between atoms: C_1  and  O_2
REMARK    2  A    between atoms: O_2  and  C_3
REMARK    3  A    between atoms: C_5  and  C_6
REMARK    4  A    between atoms: C_6  and  C_7
REMARK    5  A    between atoms: C_7  and  O_9
REMARK    6  A    between atoms: C_12  and  C_13
REMARK    7  A    between atoms: C_22  and  O_24
REMARK    8  A    between atoms: O_24  and  C_25
REMARK    9  A    between atoms: C_25  and  C_26
REMARK                            x       y       z     vdW  Elec       q    Type
REMARK                         _______ _______ _______ _____ _____    ______ ____
ROOT
ATOM      1  C   UNL     1      -0.405  10.610  20.090  0.00  0.00    +0.000 A 
ATOM      2  C   UNL     1      -0.996  11.164  21.261  0.00  0.00    +0.000 A 
ATOM      3  C   UNL     1      -0.553  10.879  22.558  0.00  0.00    +0.000 A 
ATOM      4  C   UNL     1       0.359   9.864  22.728  0.00  0.00    +0.000 A 
ATOM      5  F   UNL     1       0.642   9.422  23.959  0.00  0.00    +0.000 F 
ATOM      6  C   UNL     1       0.888   9.233  21.612  0.00  0.00    +0.000 A 
ATOM      7  C   UNL     1       0.719   9.772  20.310  0.00  0.00    +0.000 A 
ATOM      8  C   UNL     1       1.777   9.272  19.314  0.00  0.00    +0.000 C 
ATOM      9  N   UNL     1       1.841   7.804  19.272  0.00  0.00    +0.000 N 
ATOM     10  C   UNL     1       2.508   7.030  18.331  0.00  0.00    +0.000 C 
ATOM     11  O   UNL     1       2.278   5.833  18.191  0.00  0.00    +0.000 OA
ATOM     12  C   UNL     1       1.145   7.111  20.353  0.00  0.00    +0.000 C 
ATOM     13  C   UNL     1       1.393   7.808  21.706  0.00  0.00    +0.000 C 
ENDROOT
BRANCH   1  19
ATOM     14  C   UNL     1      -1.482  11.911  18.105  0.00  0.00    +0.000 A 
ATOM     15  C   UNL     1      -2.410  11.932  17.042  0.00  0.00    +0.000 A 
ATOM     16  C   UNL     1      -3.106  10.787  16.641  0.00  0.00    +0.000 A 
ATOM     17  C   UNL     1      -2.795   9.587  17.275  0.00  0.00    +0.000 A 
ATOM     18  C   UNL     1      -1.863   9.549  18.327  0.00  0.00    +0.000 A 
ATOM     19  C   UNL     1      -1.182  10.699  18.793  0.00  0.00    +0.000 A 
BRANCH  14  21
ATOM     20  C   UNL     1       0.572  13.138  18.224  0.00  0.00    +0.000 C 
ATOM     21  O   UNL     1      -0.833  13.066  18.488  0.00  0.00    +0.000 OA
ENDBRANCH  14  21
BRANCH  16  22
ATOM     22  C   UNL     1      -4.110  10.839  15.502  0.00  0.00    +0.000 C 
BRANCH  22  23
ATOM     23  C   UNL     1      -3.699  10.156  14.229  0.00  0.00    +0.000 C 
ATOM     24  O   UNL     1      -2.534   9.964  13.903  0.00  0.00    +0.000 OA
BRANCH  23  25
ATOM     25  O   UNL     1      -4.728   9.724  13.458  0.00  0.00    +0.000 OA
ATOM     26  H   UNL     1      -5.312  10.455  13.147  0.00  0.00    +0.000 HD
ENDBRANCH  23  25
ENDBRANCH  22  23
ENDBRANCH  16  22
ENDBRANCH   1  19
BRANCH  10  27
ATOM     27  O   UNL     1       3.439   7.698  17.590  0.00  0.00    +0.000 OA
BRANCH  27  28
ATOM     28  C   UNL     1       4.395   6.840  16.917  0.00  0.00    +0.000 C 
BRANCH  28  29
ATOM     29  C   UNL     1       5.713   6.538  17.622  0.00  0.00    +0.000 A 
ATOM     30  C   UNL     1       6.822   7.381  17.403  0.00  0.00    +0.000 A 
ATOM     31  C   UNL     1       8.025   7.203  18.102  0.00  0.00    +0.000 A 
ATOM     32  C   UNL     1       8.136   6.180  19.037  0.00  0.00    +0.000 A 
ATOM     33  C   UNL     1       7.043   5.346  19.276  0.00  0.00    +0.000 A 
ATOM     34  C   UNL     1       5.841   5.524  18.577  0.00  0.00    +0.000 A 
ENDBRANCH  28  29
ENDBRANCH  27  28
ENDBRANCH  10  27
TORSDOF 8
ENDMDL
MODEL 9
REMARK VINA RESULT:      -7.3      6.357     10.103
REMARK  Name = 
REMARK  9 active torsions:
REMARK  status: ('A' for Active; 'I' for Inactive)
REMARK    1  A    between atoms: C_1  and  O_2
REMARK    2  A    between atoms: O_2  and  C_3
REMARK    3  A    between atoms: C_5  and  C_6
REMARK    4  A    between atoms: C_6  and  C_7
REMARK    5  A    between atoms: C_7  and  O_9
REMARK    6  A    between atoms: C_12  and  C_13
REMARK    7  A    between atoms: C_22  and  O_24
REMARK    8  A    between atoms: O_24  and  C_25
REMARK    9  A    between atoms: C_25  and  C_26
REMARK                            x       y       z     vdW  Elec       q    Type
REMARK                         _______ _______ _______ _____ _____    ______ ____
ROOT
ATOM      1  C   UNL     1       0.018  14.084  21.390  0.00  0.00    +0.000 A 
ATOM      2  C   UNL     1       1.140  14.790  21.909  0.00  0.00    +0.000 A 
ATOM      3  C   UNL     1       2.328  14.982  21.196  0.00  0.00    +0.000 A 
ATOM      4  C   UNL     1       2.505  14.287  20.023  0.00  0.00    +0.000 A 
ATOM      5  F   UNL     1       3.704  14.278  19.428  0.00  0.00    +0.000 F 
ATOM      6  C   UNL     1       1.467  13.510  19.531  0.00  0.00    +0.000 A 
ATOM      7  C   UNL     1       0.153  13.616  20.057  0.00  0.00    +0.000 A 
ATOM      8  C   UNL     1      -0.923  13.114  19.082  0.00  0.00    +0.000 C 
ATOM      9  N   UNL     1      -0.649  11.745  18.620  0.00  0.00    +0.000 N 
ATOM     10  C   UNL     1      -1.522  10.913  17.929  0.00  0.00    +0.000 C 
ATOM     11  O   UNL     1      -1.334   9.704  17.837  0.00  0.00    +0.000 OA
ATOM     12  C   UNL     1       0.690  11.239  18.907  0.00  0.00    +0.000 C 
ATOM     13  C   UNL     1       1.758  12.319  18.642  0.00  0.00    +0.000 C 
ENDROOT
BRANCH   1  19
ATOM     14  C   UNL     1      -1.187  12.306  22.868  0.00  0.00    +0.000 A 
ATOM     15  C   UNL     1      -2.343  11.914  23.576  0.00  0.00    +0.000 A 
ATOM     16  C   UNL     1      -3.418  12.783  23.783  0.00  0.00    +0.000 A 
ATOM     17  C   UNL     1      -3.284  14.095  23.335  0.00  0.00    +0.000 A 
ATOM     18  C   UNL     1      -2.132  14.503  22.639  0.00  0.00    +0.000 A 
ATOM     19  C   UNL     1      -1.050  13.633  22.365  0.00  0.00    +0.000 A 
BRANCH  14  21
ATOM     20  C   UNL     1      -0.518  10.078  22.298  0.00  0.00    +0.000 C 
ATOM     21  O   UNL     1      -0.156  11.413  22.662  0.00  0.00    +0.000 OA
ENDBRANCH  14  21
BRANCH  16  22
ATOM     22  C   UNL     1      -4.657  12.332  24.538  0.00  0.00    +0.000 C 
BRANCH  22  23
ATOM     23  C   UNL     1      -5.974  12.777  23.969  0.00  0.00    +0.000 C 
ATOM     24  O   UNL     1      -6.635  12.115  23.177  0.00  0.00    +0.000 OA
BRANCH  23  25
ATOM     25  O   UNL     1      -6.415  13.975  24.425  0.00  0.00    +0.000 OA
ATOM     26  H   UNL     1      -5.827  14.726  24.173  0.00  0.00    +0.000 HD
ENDBRANCH  23  25
ENDBRANCH  22  23
ENDBRANCH  16  22
ENDBRANCH   1  19
BRANCH  10  27
ATOM     27  O   UNL     1      -2.588  11.543  17.357  0.00  0.00    +0.000 OA
BRANCH  27  28
ATOM     28  C   UNL     1      -3.880  11.051  17.796  0.00  0.00    +0.000 C 
BRANCH  28  29
ATOM     29  C   UNL     1      -4.836  12.034  18.464  0.00  0.00    +0.000 A 
ATOM     30  C   UNL     1      -6.094  12.280  17.877  0.00  0.00    +0.000 A 
ATOM     31  C   UNL     1      -7.045  13.099  18.503  0.00  0.00    +0.000 A 
ATOM     32  C   UNL     1      -6.755  13.681  19.732  0.00  0.00    +0.000 A 
ATOM     33  C   UNL     1      -5.519  13.435  20.334  0.00  0.00    +0.000 A 
ATOM     34  C   UNL     1      -4.568  12.618  19.707  0.00  0.00    +0.000 A 
ENDBRANCH  28  29
ENDBRANCH  27  28
ENDBRANCH  10  27
TORSDOF 8
ENDMDL
