MODEL 1
REMARK VINA RESULT:      -8.8      0.000      0.000
REMARK  Name = 
REMARK  6 active torsions:
REMARK  status: ('A' for Active; 'I' for Inactive)
REMARK    1  A    between atoms: C_4  and  C_5
REMARK    2  A    between atoms: C_14  and  O_15
REMARK    3  A    between atoms: O_15  and  C_16
REMARK    4  A    between atoms: C_16  and  C_17
REMARK    5  A    between atoms: C_17  and  C_18
REMARK    6  A    between atoms: C_18  and  N_19
REMARK                            x       y       z     vdW  Elec       q    Type
REMARK                         _______ _______ _______ _____ _____    ______ ____
ROOT
ATOM      1  C   UNL     1       5.038   5.126  18.440  0.00  0.00    +0.000 C 
ATOM      2  C   UNL     1       4.816   3.839  19.298  0.00  0.00    +0.000 C 
ATOM      3  N   UNL     1       3.421   3.639  19.679  0.00  0.00    +0.000 NA
ATOM      4  C   UNL     1       3.190   2.537  20.604  0.00  0.00    +0.000 C 
ATOM      5  C   UNL     1       1.734   2.774  20.987  0.00  0.00    +0.000 C 
ATOM      6  C   UNL     1       1.510   4.277  20.792  0.00  0.00    +0.000 C 
ATOM      7  C   UNL     1       2.875   4.819  20.359  0.00  0.00    +0.000 C 
ATOM      8  C   UNL     1       2.879   6.019  19.452  0.00  0.00    +0.000 A 
ATOM      9  C   UNL     1       1.965   7.069  19.633  0.00  0.00    +0.000 A 
ATOM     10  C   UNL     1       1.989   8.197  18.817  0.00  0.00    +0.000 A 
ATOM     11  C   UNL     1       2.923   8.269  17.786  0.00  0.00    +0.000 A 
ATOM     12  C   UNL     1       3.872   7.255  17.622  0.00  0.00    +0.000 A 
ATOM     13  C   UNL     1       3.882   6.135  18.464  0.00  0.00    +0.000 A 
ENDROOT
BRANCH   1  17
ATOM     14  C   UNL     1       6.352   4.267  14.473  0.00  0.00    +0.000 A 
ATOM     15  C   UNL     1       7.216   4.956  15.320  0.00  0.00    +0.000 A 
ATOM     16  C   UNL     1       6.839   5.196  16.639  0.00  0.00    +0.000 A 
ATOM     17  C   UNL     1       5.588   4.757  17.071  0.00  0.00    +0.000 A 
ATOM     18  N   UNL     1       4.748   4.064  16.255  0.00  0.00    +0.000 NA
ATOM     19  C   UNL     1       5.147   3.831  14.988  0.00  0.00    +0.000 A 
ENDBRANCH   1  17
BRANCH  10  20
ATOM     20  O   UNL     1       1.070   9.159  19.147  0.00  0.00    +0.000 OA
BRANCH  20  21
ATOM     21  C   UNL     1       1.280  10.461  18.601  0.00  0.00    +0.000 C 
BRANCH  21  22
ATOM     22  C   UNL     1      -0.054  11.200  18.625  0.00  0.00    +0.000 C 
BRANCH  22  23
ATOM     23  C   UNL     1      -1.206  10.318  19.118  0.00  0.00    +0.000 C 
BRANCH  23  24
ATOM     24  N   UNL     1      -2.343  10.222  18.183  0.00  0.00    +0.000 NA
ATOM     25  C   UNL     1      -3.134  11.465  18.157  0.00  0.00    +0.000 C 
ATOM     26  C   UNL     1      -4.312  11.374  17.187  0.00  0.00    +0.000 C 
ATOM     27  C   UNL     1      -3.845  11.007  15.785  0.00  0.00    +0.000 C 
ATOM     28  C   UNL     1      -3.003   9.740  15.833  0.00  0.00    +0.000 C 
ATOM     29  C   UNL     1      -1.856   9.877  16.836  0.00  0.00    +0.000 C 
ENDBRANCH  23  24
ENDBRANCH  22  23
ENDBRANCH  21  22
ENDBRANCH  20  21
ENDBRANCH  10  20
TORSDOF 6
ENDMDL
MODEL 2
REMARK VINA RESULT:      -8.4      2.249      2.925
REMARK  Name = 
REMARK  6 active torsions:
REMARK  status: ('A' for Active; 'I' for Inactive)
REMARK    1  A    between atoms: C_4  and  C_5
REMARK    2  A    between atoms: C_14  and  O_15
REMARK    3  A    between atoms: O_15  and  C_16
REMARK    4  A    between atoms: C_16  and  C_17
REMARK    5  A    between atoms: C_17  and  C_18
REMARK    6  A    between atoms: C_18  and  N_19
REMARK                            x       y       z     vdW  Elec       q    Type
REMARK                         _______ _______ _______ _____ _____    ______ ____
ROOT
ATOM      1  C   UNL     1       5.138   5.150  18.316  0.00  0.00    +0.000 C 
ATOM      2  C   UNL     1       4.930   3.876  19.196  0.00  0.00    +0.000 C 
ATOM      3  N   UNL     1       3.540   3.674  19.593  0.00  0.00    +0.000 NA
ATOM      4  C   UNL     1       3.323   2.586  20.537  0.00  0.00    +0.000 C 
ATOM      5  C   UNL     1       1.869   2.822  20.928  0.00  0.00    +0.000 C 
ATOM      6  C   UNL     1       1.635   4.320  20.710  0.00  0.00    +0.000 C 
ATOM      7  C   UNL     1       2.993   4.863  20.257  0.00  0.00    +0.000 C 
ATOM      8  C   UNL     1       2.982   6.047  19.331  0.00  0.00    +0.000 A 
ATOM      9  C   UNL     1       2.065   7.095  19.503  0.00  0.00    +0.000 A 
ATOM     10  C   UNL     1       2.076   8.210  18.668  0.00  0.00    +0.000 A 
ATOM     11  C   UNL     1       3.000   8.271  17.629  0.00  0.00    +0.000 A 
ATOM     12  C   UNL     1       3.954   7.258  17.473  0.00  0.00    +0.000 A 
ATOM     13  C   UNL     1       3.977   6.153  18.333  0.00  0.00    +0.000 A 
ENDROOT
BRANCH   1  17
ATOM     14  C   UNL     1       6.457   4.271  14.355  0.00  0.00    +0.000 A 
ATOM     15  C   UNL     1       7.376   4.805  15.253  0.00  0.00    +0.000 A 
ATOM     16  C   UNL     1       6.991   5.045  16.570  0.00  0.00    +0.000 A 
ATOM     17  C   UNL     1       5.680   4.761  16.948  0.00  0.00    +0.000 A 
ATOM     18  N   UNL     1       4.782   4.218  16.082  0.00  0.00    +0.000 NA
ATOM     19  C   UNL     1       5.188   3.982  14.818  0.00  0.00    +0.000 A 
ENDBRANCH   1  17
BRANCH  10  20
ATOM     20  O   UNL     1       1.154   9.172  18.990  0.00  0.00    +0.000 OA
BRANCH  20  21
ATOM     21  C   UNL     1       1.279  10.429  18.325  0.00  0.00    +0.000 C 
BRANCH  21  22
ATOM     22  C   UNL     1       0.722  11.506  19.250  0.00  0.00    +0.000 C 
BRANCH  22  23
ATOM     23  C   UNL     1       1.472  11.579  20.584  0.00  0.00    +0.000 C 
BRANCH  23  24
ATOM     24  N   UNL     1       0.598  11.671  21.769  0.00  0.00    +0.000 NA
ATOM     25  C   UNL     1      -0.338  12.805  21.671  0.00  0.00    +0.000 C 
ATOM     26  C   UNL     1      -1.249  12.903  22.895  0.00  0.00    +0.000 C 
ATOM     27  C   UNL     1      -2.006  11.602  23.124  0.00  0.00    +0.000 C 
ATOM     28  C   UNL     1      -1.028  10.437  23.191  0.00  0.00    +0.000 C 
ATOM     29  C   UNL     1      -0.126  10.401  21.956  0.00  0.00    +0.000 C 
ENDBRANCH  23  24
ENDBRANCH  22  23
ENDBRANCH  21  22
ENDBRANCH  20  21
ENDBRANCH  10  20
TORSDOF 6
ENDMDL
MODEL 3
REMARK VINA RESULT:      -8.4      1.772      2.709
REMARK  Name = 
REMARK  6 active torsions:
REMARK  status: ('A' for Active; 'I' for Inactive)
REMARK    1  A    between atoms: C_4  and  C_5
REMARK    2  A    between atoms: C_14  and  O_15
REMARK    3  A    between atoms: O_15  and  C_16
REMARK    4  A    between atoms: C_16  and  C_17
REMARK    5  A    between atoms: C_17  and  C_18
REMARK    6  A    between atoms: C_18  and  N_19
REMARK                            x       y       z     vdW  Elec       q    Type
REMARK                         _______ _______ _______ _____ _____    ______ ____
ROOT
ATOM      1  C   UNL     1       5.009   5.289  18.259  0.00  0.00    +0.000 C 
ATOM      2  C   UNL     1       4.842   3.964  19.072  0.00  0.00    +0.000 C 
ATOM      3  N   UNL     1       3.470   3.731  19.512  0.00  0.00    +0.000 NA
ATOM      4  C   UNL     1       3.296   2.589  20.399  0.00  0.00    +0.000 C 
ATOM      5  C   UNL     1       1.859   2.792  20.862  0.00  0.00    +0.000 C 
ATOM      6  C   UNL     1       1.610   4.299  20.742  0.00  0.00    +0.000 C 
ATOM      7  C   UNL     1       2.946   4.875  20.267  0.00  0.00    +0.000 C 
ATOM      8  C   UNL     1       2.893   6.111  19.412  0.00  0.00    +0.000 A 
ATOM      9  C   UNL     1       1.979   7.142  19.682  0.00  0.00    +0.000 A 
ATOM     10  C   UNL     1       1.951   8.303  18.915  0.00  0.00    +0.000 A 
ATOM     11  C   UNL     1       2.832   8.431  17.844  0.00  0.00    +0.000 A 
ATOM     12  C   UNL     1       3.783   7.435  17.591  0.00  0.00    +0.000 A 
ATOM     13  C   UNL     1       3.846   6.281  18.382  0.00  0.00    +0.000 A 
ENDROOT
BRANCH   1  17
ATOM     14  C   UNL     1       6.599   4.255  14.437  0.00  0.00    +0.000 A 
ATOM     15  C   UNL     1       5.302   3.854  14.743  0.00  0.00    +0.000 A 
ATOM     16  C   UNL     1       4.734   4.230  15.959  0.00  0.00    +0.000 A 
ATOM     17  C   UNL     1       5.495   4.984  16.850  0.00  0.00    +0.000 A 
ATOM     18  N   UNL     1       6.755   5.399  16.550  0.00  0.00    +0.000 NA
ATOM     19  C   UNL     1       7.272   5.034  15.359  0.00  0.00    +0.000 A 
ENDBRANCH   1  17
BRANCH  10  20
ATOM     20  O   UNL     1       1.040   9.239  19.330  0.00  0.00    +0.000 OA
BRANCH  20  21
ATOM     21  C   UNL     1       0.336   9.946  18.309  0.00  0.00    +0.000 C 
BRANCH  21  22
ATOM     22  C   UNL     1      -0.961  10.474  18.913  0.00  0.00    +0.000 C 
BRANCH  22  23
ATOM     23  C   UNL     1      -0.941  11.993  19.111  0.00  0.00    +0.000 C 
BRANCH  23  24
ATOM     24  N   UNL     1      -1.336  12.436  20.462  0.00  0.00    +0.000 NA
ATOM     25  C   UNL     1      -2.797  12.593  20.579  0.00  0.00    +0.000 C 
ATOM     26  C   UNL     1      -3.212  13.049  21.979  0.00  0.00    +0.000 C 
ATOM     27  C   UNL     1      -2.688  12.099  23.046  0.00  0.00    +0.000 C 
ATOM     28  C   UNL     1      -1.183  11.923  22.891  0.00  0.00    +0.000 C 
ATOM     29  C   UNL     1      -0.822  11.491  21.469  0.00  0.00    +0.000 C 
ENDBRANCH  23  24
ENDBRANCH  22  23
ENDBRANCH  21  22
ENDBRANCH  20  21
ENDBRANCH  10  20
TORSDOF 6
ENDMDL
MODEL 4
REMARK VINA RESULT:      -8.3      2.281      3.168
REMARK  Name = 
REMARK  6 active torsions:
REMARK  status: ('A' for Active; 'I' for Inactive)
REMARK    1  A    between atoms: C_4  and  C_5
REMARK    2  A    between atoms: C_14  and  O_15
REMARK    3  A    between atoms: O_15  and  C_16
REMARK    4  A    between atoms: C_16  and  C_17
REMARK    5  A    between atoms: C_17  and  C_18
REMARK    6  A    between atoms: C_18  and  N_19
REMARK                            x       y       z     vdW  Elec       q    Type
REMARK                         _______ _______ _______ _____ _____    ______ ____
ROOT
ATOM      1  C   UNL     1       4.921   5.297  18.277  0.00  0.00    +0.000 C 
ATOM      2  C   UNL     1       4.707   3.997  19.118  0.00  0.00    +0.000 C 
ATOM      3  N   UNL     1       3.321   3.802  19.529  0.00  0.00    +0.000 NA
ATOM      4  C   UNL     1       3.101   2.687  20.440  0.00  0.00    +0.000 C 
ATOM      5  C   UNL     1       1.657   2.930  20.860  0.00  0.00    +0.000 C 
ATOM      6  C   UNL     1       1.442   4.438  20.696  0.00  0.00    +0.000 C 
ATOM      7  C   UNL     1       2.801   4.976  20.241  0.00  0.00    +0.000 C 
ATOM      8  C   UNL     1       2.794   6.190  19.355  0.00  0.00    +0.000 A 
ATOM      9  C   UNL     1       1.894   7.245  19.575  0.00  0.00    +0.000 A 
ATOM     10  C   UNL     1       1.909   8.387  18.779  0.00  0.00    +0.000 A 
ATOM     11  C   UNL     1       2.819   8.469  17.727  0.00  0.00    +0.000 A 
ATOM     12  C   UNL     1       3.755   7.449  17.524  0.00  0.00    +0.000 A 
ATOM     13  C   UNL     1       3.775   6.315  18.346  0.00  0.00    +0.000 A 
ENDROOT
BRANCH   1  17
ATOM     14  C   UNL     1       6.585   4.135  14.524  0.00  0.00    +0.000 A 
ATOM     15  C   UNL     1       5.272   3.769  14.806  0.00  0.00    +0.000 A 
ATOM     16  C   UNL     1       4.682   4.187  15.997  0.00  0.00    +0.000 A 
ATOM     17  C   UNL     1       5.436   4.947  16.889  0.00  0.00    +0.000 A 
ATOM     18  N   UNL     1       6.713   5.327  16.611  0.00  0.00    +0.000 NA
ATOM     19  C   UNL     1       7.251   4.922  15.444  0.00  0.00    +0.000 A 
ENDBRANCH   1  17
BRANCH  10  20
ATOM     20  O   UNL     1       1.007   9.350  19.146  0.00  0.00    +0.000 OA
BRANCH  20  21
ATOM     21  C   UNL     1       1.348  10.701  18.836  0.00  0.00    +0.000 C 
BRANCH  21  22
ATOM     22  C   UNL     1       0.294  11.608  19.463  0.00  0.00    +0.000 C 
BRANCH  22  23
ATOM     23  C   UNL     1       0.873  12.515  20.553  0.00  0.00    +0.000 C 
BRANCH  23  24
ATOM     24  N   UNL     1       0.137  12.479  21.831  0.00  0.00    +0.000 NA
ATOM     25  C   UNL     1      -0.561  13.750  22.095  0.00  0.00    +0.000 C 
ATOM     26  C   UNL     1      -1.329  13.717  23.417  0.00  0.00    +0.000 C 
ATOM     27  C   UNL     1      -2.306  12.551  23.458  0.00  0.00    +0.000 C 
ATOM     28  C   UNL     1      -1.576  11.250  23.152  0.00  0.00    +0.000 C 
ATOM     29  C   UNL     1      -0.806  11.346  21.834  0.00  0.00    +0.000 C 
ENDBRANCH  23  24
ENDBRANCH  22  23
ENDBRANCH  21  22
ENDBRANCH  20  21
ENDBRANCH  10  20
TORSDOF 6
ENDMDL
MODEL 5
REMARK VINA RESULT:      -8.2      0.758      1.271
REMARK  Name = 
REMARK  6 active torsions:
REMARK  status: ('A' for Active; 'I' for Inactive)
REMARK    1  A    between atoms: C_4  and  C_5
REMARK    2  A    between atoms: C_14  and  O_15
REMARK    3  A    between atoms: O_15  and  C_16
REMARK    4  A    between atoms: C_16  and  C_17
REMARK    5  A    between atoms: C_17  and  C_18
REMARK    6  A    between atoms: C_18  and  N_19
REMARK                            x       y       z     vdW  Elec       q    Type
REMARK                         _______ _______ _______ _____ _____    ______ ____
ROOT
ATOM      1  C   UNL     1       4.965   5.278  18.531  0.00  0.00    +0.000 C 
ATOM      2  C   UNL     1       4.698   4.019  19.418  0.00  0.00    +0.000 C 
ATOM      3  N   UNL     1       3.284   3.822  19.722  0.00  0.00    +0.000 NA
ATOM      4  C   UNL     1       3.002   2.751  20.668  0.00  0.00    +0.000 C 
ATOM      5  C   UNL     1       1.525   2.992  20.955  0.00  0.00    +0.000 C 
ATOM      6  C   UNL     1       1.306   4.486  20.695  0.00  0.00    +0.000 C 
ATOM      7  C   UNL     1       2.693   5.022  20.327  0.00  0.00    +0.000 C 
ATOM      8  C   UNL     1       2.745   6.190  19.381  0.00  0.00    +0.000 A 
ATOM      9  C   UNL     1       1.818   7.240  19.471  0.00  0.00    +0.000 A 
ATOM     10  C   UNL     1       1.886   8.340  18.620  0.00  0.00    +0.000 A 
ATOM     11  C   UNL     1       2.880   8.383  17.645  0.00  0.00    +0.000 A 
ATOM     12  C   UNL     1       3.841   7.369  17.573  0.00  0.00    +0.000 A 
ATOM     13  C   UNL     1       3.806   6.279  18.451  0.00  0.00    +0.000 A 
ENDROOT
BRANCH   1  17
ATOM     14  C   UNL     1       6.523   4.298  14.682  0.00  0.00    +0.000 A 
ATOM     15  C   UNL     1       7.339   4.999  15.565  0.00  0.00    +0.000 A 
ATOM     16  C   UNL     1       6.880   5.279  16.850  0.00  0.00    +0.000 A 
ATOM     17  C   UNL     1       5.599   4.865  17.211  0.00  0.00    +0.000 A 
ATOM     18  N   UNL     1       4.804   4.160  16.361  0.00  0.00    +0.000 NA
ATOM     19  C   UNL     1       5.282   3.889  15.129  0.00  0.00    +0.000 A 
ENDBRANCH   1  17
BRANCH  10  20
ATOM     20  O   UNL     1       0.945   9.306  18.861  0.00  0.00    +0.000 OA
BRANCH  20  21
ATOM     21  C   UNL     1       0.973   9.922  20.149  0.00  0.00    +0.000 C 
BRANCH  21  22
ATOM     22  C   UNL     1      -0.235  10.848  20.253  0.00  0.00    +0.000 C 
BRANCH  22  23
ATOM     23  C   UNL     1      -0.350  11.799  19.057  0.00  0.00    +0.000 C 
BRANCH  23  24
ATOM     24  N   UNL     1      -1.636  11.721  18.338  0.00  0.00    +0.000 NA
ATOM     25  C   UNL     1      -1.768  10.457  17.592  0.00  0.00    +0.000 C 
ATOM     26  C   UNL     1      -3.101  10.370  16.848  0.00  0.00    +0.000 C 
ATOM     27  C   UNL     1      -4.276  10.557  17.797  0.00  0.00    +0.000 C 
ATOM     28  C   UNL     1      -4.108  11.850  18.583  0.00  0.00    +0.000 C 
ATOM     29  C   UNL     1      -2.750  11.896  19.286  0.00  0.00    +0.000 C 
ENDBRANCH  23  24
ENDBRANCH  22  23
ENDBRANCH  21  22
ENDBRANCH  20  21
ENDBRANCH  10  20
TORSDOF 6
ENDMDL
MODEL 6
REMARK VINA RESULT:      -8.2      2.036      2.694
REMARK  Name = 
REMARK  6 active torsions:
REMARK  status: ('A' for Active; 'I' for Inactive)
REMARK    1  A    between atoms: C_4  and  C_5
REMARK    2  A    between atoms: C_14  and  O_15
REMARK    3  A    between atoms: O_15  and  C_16
REMARK    4  A    between atoms: C_16  and  C_17
REMARK    5  A    between atoms: C_17  and  C_18
REMARK    6  A    between atoms: C_18  and  N_19
REMARK                            x       y       z     vdW  Elec       q    Type
REMARK                         _______ _______ _______ _____ _____    ______ ____
ROOT
ATOM      1  C   UNL     1       5.032   5.172  18.401  0.00  0.00    +0.000 C 
ATOM      2  C   UNL     1       4.773   3.905  19.278  0.00  0.00    +0.000 C 
ATOM      3  N   UNL     1       3.370   3.735  19.639  0.00  0.00    +0.000 NA
ATOM      4  C   UNL     1       3.104   2.654  20.580  0.00  0.00    +0.000 C 
ATOM      5  C   UNL     1       1.646   2.923  20.933  0.00  0.00    +0.000 C 
ATOM      6  C   UNL     1       1.451   4.426  20.707  0.00  0.00    +0.000 C 
ATOM      7  C   UNL     1       2.832   4.937  20.288  0.00  0.00    +0.000 C 
ATOM      8  C   UNL     1       2.872   6.119  19.360  0.00  0.00    +0.000 A 
ATOM      9  C   UNL     1       1.973   7.188  19.507  0.00  0.00    +0.000 A 
ATOM     10  C   UNL     1       2.030   8.300  18.672  0.00  0.00    +0.000 A 
ATOM     11  C   UNL     1       2.982   8.338  17.656  0.00  0.00    +0.000 A 
ATOM     12  C   UNL     1       3.917   7.305  17.526  0.00  0.00    +0.000 A 
ATOM     13  C   UNL     1       3.893   6.201  18.388  0.00  0.00    +0.000 A 
ENDROOT
BRANCH   1  17
ATOM     14  C   UNL     1       6.408   4.232  14.474  0.00  0.00    +0.000 A 
ATOM     15  C   UNL     1       7.288   4.865  15.348  0.00  0.00    +0.000 A 
ATOM     16  C   UNL     1       6.887   5.128  16.656  0.00  0.00    +0.000 A 
ATOM     17  C   UNL     1       5.599   4.769  17.048  0.00  0.00    +0.000 A 
ATOM     18  N   UNL     1       4.741   4.131  16.207  0.00  0.00    +0.000 NA
ATOM     19  C   UNL     1       5.163   3.874  14.952  0.00  0.00    +0.000 A 
ENDBRANCH   1  17
BRANCH  10  20
ATOM     20  O   UNL     1       1.122   9.283  18.969  0.00  0.00    +0.000 OA
BRANCH  20  21
ATOM     21  C   UNL     1       1.468  10.614  18.585  0.00  0.00    +0.000 C 
BRANCH  21  22
ATOM     22  C   UNL     1       1.163  11.536  19.760  0.00  0.00    +0.000 C 
BRANCH  22  23
ATOM     23  C   UNL     1      -0.198  12.227  19.626  0.00  0.00    +0.000 C 
BRANCH  23  24
ATOM     24  N   UNL     1      -1.170  11.869  20.677  0.00  0.00    +0.000 NA
ATOM     25  C   UNL     1      -0.507  11.621  21.970  0.00  0.00    +0.000 C 
ATOM     26  C   UNL     1      -1.510  11.253  23.065  0.00  0.00    +0.000 C 
ATOM     27  C   UNL     1      -2.585  12.321  23.210  0.00  0.00    +0.000 C 
ATOM     28  C   UNL     1      -3.237  12.588  21.859  0.00  0.00    +0.000 C 
ATOM     29  C   UNL     1      -2.189  12.926  20.798  0.00  0.00    +0.000 C 
ENDBRANCH  23  24
ENDBRANCH  22  23
ENDBRANCH  21  22
ENDBRANCH  20  21
ENDBRANCH  10  20
TORSDOF 6
ENDMDL
MODEL 7
REMARK VINA RESULT:      -8.1      1.023      1.668
REMARK  Name = 
REMARK  6 active torsions:
REMARK  status: ('A' for Active; 'I' for Inactive)
REMARK    1  A    between atoms: C_4  and  C_5
REMARK    2  A    between atoms: C_14  and  O_15
REMARK    3  A    between atoms: O_15  and  C_16
REMARK    4  A    between atoms: C_16  and  C_17
REMARK    5  A    between atoms: C_17  and  C_18
REMARK    6  A    between atoms: C_18  and  N_19
REMARK                            x       y       z     vdW  Elec       q    Type
REMARK                         _______ _______ _______ _____ _____    ______ ____
ROOT
ATOM      1  C   UNL     1       5.028   5.117  18.420  0.00  0.00    +0.000 C 
ATOM      2  C   UNL     1       4.754   3.832  19.266  0.00  0.00    +0.000 C 
ATOM      3  N   UNL     1       3.349   3.670  19.625  0.00  0.00    +0.000 NA
ATOM      4  C   UNL     1       3.070   2.571  20.539  0.00  0.00    +0.000 C 
ATOM      5  C   UNL     1       1.616   2.849  20.900  0.00  0.00    +0.000 C 
ATOM      6  C   UNL     1       1.440   4.359  20.711  0.00  0.00    +0.000 C 
ATOM      7  C   UNL     1       2.827   4.863  20.303  0.00  0.00    +0.000 C 
ATOM      8  C   UNL     1       2.880   6.067  19.404  0.00  0.00    +0.000 A 
ATOM      9  C   UNL     1       1.995   7.142  19.577  0.00  0.00    +0.000 A 
ATOM     10  C   UNL     1       2.066   8.274  18.769  0.00  0.00    +0.000 A 
ATOM     11  C   UNL     1       3.017   8.325  17.753  0.00  0.00    +0.000 A 
ATOM     12  C   UNL     1       3.939   7.283  17.598  0.00  0.00    +0.000 A 
ATOM     13  C   UNL     1       3.902   6.159  18.432  0.00  0.00    +0.000 A 
ENDROOT
BRANCH   1  17
ATOM     14  C   UNL     1       6.392   4.256  14.470  0.00  0.00    +0.000 A 
ATOM     15  C   UNL     1       7.282   4.849  15.361  0.00  0.00    +0.000 A 
ATOM     16  C   UNL     1       6.884   5.085  16.676  0.00  0.00    +0.000 A 
ATOM     17  C   UNL     1       5.589   4.739  17.058  0.00  0.00    +0.000 A 
ATOM     18  N   UNL     1       4.721   4.139  16.199  0.00  0.00    +0.000 NA
ATOM     19  C   UNL     1       5.140   3.908  14.938  0.00  0.00    +0.000 A 
ENDBRANCH   1  17
BRANCH  10  20
ATOM     20  O   UNL     1       1.170   9.261  19.090  0.00  0.00    +0.000 OA
BRANCH  20  21
ATOM     21  C   UNL     1       0.301   9.702  18.047  0.00  0.00    +0.000 C 
BRANCH  21  22
ATOM     22  C   UNL     1      -0.850  10.470  18.690  0.00  0.00    +0.000 C 
BRANCH  22  23
ATOM     23  C   UNL     1      -1.834  11.027  17.656  0.00  0.00    +0.000 C 
BRANCH  23  24
ATOM     24  N   UNL     1      -2.919  11.848  18.228  0.00  0.00    +0.000 NA
ATOM     25  C   UNL     1      -4.237  11.219  18.035  0.00  0.00    +0.000 C 
ATOM     26  C   UNL     1      -5.366  12.064  18.629  0.00  0.00    +0.000 C 
ATOM     27  C   UNL     1      -5.120  12.354  20.103  0.00  0.00    +0.000 C 
ATOM     28  C   UNL     1      -3.741  12.973  20.288  0.00  0.00    +0.000 C 
ATOM     29  C   UNL     1      -2.656  12.101  19.655  0.00  0.00    +0.000 C 
ENDBRANCH  23  24
ENDBRANCH  22  23
ENDBRANCH  21  22
ENDBRANCH  20  21
ENDBRANCH  10  20
TORSDOF 6
ENDMDL
MODEL 8
REMARK VINA RESULT:      -8.1      1.149      1.881
REMARK  Name = 
REMARK  6 active torsions:
REMARK  status: ('A' for Active; 'I' for Inactive)
REMARK    1  A    between atoms: C_4  and  C_5
REMARK    2  A    between atoms: C_14  and  O_15
REMARK    3  A    between atoms: O_15  and  C_16
REMARK    4  A    between atoms: C_16  and  C_17
REMARK    5  A    between atoms: C_17  and  C_18
REMARK    6  A    between atoms: C_18  and  N_19
REMARK                            x       y       z     vdW  Elec       q    Type
REMARK                         _______ _______ _______ _____ _____    ______ ____
ROOT
ATOM      1  C   UNL     1       5.231   5.314  18.077  0.00  0.00    +0.000 C 
ATOM      2  C   UNL     1       5.157   3.989  18.902  0.00  0.00    +0.000 C 
ATOM      3  N   UNL     1       3.816   3.697  19.397  0.00  0.00    +0.000 NA
ATOM      4  C   UNL     1       3.728   2.554  20.297  0.00  0.00    +0.000 C 
ATOM      5  C   UNL     1       2.302   2.695  20.815  0.00  0.00    +0.000 C 
ATOM      6  C   UNL     1       1.981   4.188  20.698  0.00  0.00    +0.000 C 
ATOM      7  C   UNL     1       3.270   4.821  20.167  0.00  0.00    +0.000 C 
ATOM      8  C   UNL     1       3.127   6.048  19.309  0.00  0.00    +0.000 A 
ATOM      9  C   UNL     1       2.178   7.038  19.610  0.00  0.00    +0.000 A 
ATOM     10  C   UNL     1       2.068   8.192  18.839  0.00  0.00    +0.000 A 
ATOM     11  C   UNL     1       2.899   8.351  17.733  0.00  0.00    +0.000 A 
ATOM     12  C   UNL     1       3.883   7.398  17.447  0.00  0.00    +0.000 A 
ATOM     13  C   UNL     1       4.030   6.254  18.241  0.00  0.00    +0.000 A 
ENDROOT
BRANCH   1  17
ATOM     14  C   UNL     1       6.696   4.303  14.199  0.00  0.00    +0.000 A 
ATOM     15  C   UNL     1       5.388   3.953  14.523  0.00  0.00    +0.000 A 
ATOM     16  C   UNL     1       4.862   4.325  15.759  0.00  0.00    +0.000 A 
ATOM     17  C   UNL     1       5.674   5.022  16.651  0.00  0.00    +0.000 A 
ATOM     18  N   UNL     1       6.946   5.387  16.334  0.00  0.00    +0.000 NA
ATOM     19  C   UNL     1       7.422   5.028  15.124  0.00  0.00    +0.000 A 
ENDBRANCH   1  17
BRANCH  10  20
ATOM     20  O   UNL     1       1.132   9.088  19.285  0.00  0.00    +0.000 OA
BRANCH  20  21
ATOM     21  C   UNL     1       0.721  10.099  18.364  0.00  0.00    +0.000 C 
BRANCH  21  22
ATOM     22  C   UNL     1      -0.771  10.339  18.566  0.00  0.00    +0.000 C 
BRANCH  22  23
ATOM     23  C   UNL     1      -1.066  11.699  19.209  0.00  0.00    +0.000 C 
BRANCH  23  24
ATOM     24  N   UNL     1      -2.442  12.186  19.000  0.00  0.00    +0.000 NA
ATOM     25  C   UNL     1      -3.238  11.244  18.193  0.00  0.00    +0.000 C 
ATOM     26  C   UNL     1      -4.668  11.742  17.977  0.00  0.00    +0.000 C 
ATOM     27  C   UNL     1      -5.358  12.028  19.302  0.00  0.00    +0.000 C 
ATOM     28  C   UNL     1      -4.508  12.977  20.137  0.00  0.00    +0.000 C 
ATOM     29  C   UNL     1      -3.085  12.443  20.301  0.00  0.00    +0.000 C 
ENDBRANCH  23  24
ENDBRANCH  22  23
ENDBRANCH  21  22
ENDBRANCH  20  21
ENDBRANCH  10  20
TORSDOF 6
ENDMDL
MODEL 9
REMARK VINA RESULT:      -8.1      2.049      2.670
REMARK  Name = 
REMARK  6 active torsions:
REMARK  status: ('A' for Active; 'I' for Inactive)
REMARK    1  A    between atoms: C_4  and  C_5
REMARK    2  A    between atoms: C_14  and  O_15
REMARK    3  A    between atoms: O_15  and  C_16
REMARK    4  A    between atoms: C_16  and  C_17
REMARK    5  A    between atoms: C_17  and  C_18
REMARK    6  A    between atoms: C_18  and  N_19
REMARK                            x       y       z     vdW  Elec       q    Type
REMARK                         _______ _______ _______ _____ _____    ______ ____
ROOT
ATOM      1  C   UNL     1       5.018   5.145  18.413  0.00  0.00    +0.000 C 
ATOM      2  C   UNL     1       4.759   3.862  19.267  0.00  0.00    +0.000 C 
ATOM      3  N   UNL     1       3.356   3.689  19.630  0.00  0.00    +0.000 NA
ATOM      4  C   UNL     1       3.091   2.592  20.550  0.00  0.00    +0.000 C 
ATOM      5  C   UNL     1       1.635   2.858  20.915  0.00  0.00    +0.000 C 
ATOM      6  C   UNL     1       1.444   4.366  20.719  0.00  0.00    +0.000 C 
ATOM      7  C   UNL     1       2.826   4.880  20.304  0.00  0.00    +0.000 C 
ATOM      8  C   UNL     1       2.865   6.080  19.400  0.00  0.00    +0.000 A 
ATOM      9  C   UNL     1       1.971   7.149  19.571  0.00  0.00    +0.000 A 
ATOM     10  C   UNL     1       2.028   8.277  18.757  0.00  0.00    +0.000 A 
ATOM     11  C   UNL     1       2.976   8.332  17.738  0.00  0.00    +0.000 A 
ATOM     12  C   UNL     1       3.907   7.298  17.584  0.00  0.00    +0.000 A 
ATOM     13  C   UNL     1       3.883   6.177  18.424  0.00  0.00    +0.000 A 
ENDROOT
BRANCH   1  17
ATOM     14  C   UNL     1       6.370   4.270  14.463  0.00  0.00    +0.000 A 
ATOM     15  C   UNL     1       7.245   4.915  15.332  0.00  0.00    +0.000 A 
ATOM     16  C   UNL     1       6.854   5.158  16.647  0.00  0.00    +0.000 A 
ATOM     17  C   UNL     1       5.578   4.766  17.051  0.00  0.00    +0.000 A 
ATOM     18  N   UNL     1       4.726   4.116  16.213  0.00  0.00    +0.000 NA
ATOM     19  C   UNL     1       5.139   3.880  14.952  0.00  0.00    +0.000 A 
ENDBRANCH   1  17
BRANCH  10  20
ATOM     20  O   UNL     1       1.125   9.257  19.077  0.00  0.00    +0.000 OA
BRANCH  20  21
ATOM     21  C   UNL     1       0.566   9.210  20.389  0.00  0.00    +0.000 C 
BRANCH  21  22
ATOM     22  C   UNL     1       0.914  10.518  21.094  0.00  0.00    +0.000 C 
BRANCH  22  23
ATOM     23  C   UNL     1       0.414  11.748  20.329  0.00  0.00    +0.000 C 
BRANCH  23  24
ATOM     24  N   UNL     1      -0.703  12.458  20.980  0.00  0.00    +0.000 NA
ATOM     25  C   UNL     1      -1.981  12.211  20.290  0.00  0.00    +0.000 C 
ATOM     26  C   UNL     1      -3.144  12.942  20.963  0.00  0.00    +0.000 C 
ATOM     27  C   UNL     1      -3.250  12.573  22.436  0.00  0.00    +0.000 C 
ATOM     28  C   UNL     1      -1.912  12.804  23.126  0.00  0.00    +0.000 C 
ATOM     29  C   UNL     1      -0.783  12.071  22.399  0.00  0.00    +0.000 C 
ENDBRANCH  23  24
ENDBRANCH  22  23
ENDBRANCH  21  22
ENDBRANCH  20  21
ENDBRANCH  10  20
TORSDOF 6
ENDMDL
