MODEL 1
REMARK VINA RESULT:      -8.1      0.000      0.000
REMARK  Name = 
REMARK  4 active torsions:
REMARK  status: ('A' for Active; 'I' for Inactive)
REMARK    1  A    between atoms: C_2  and  C_18
REMARK    2  A    between atoms: C_7  and  C_8
REMARK    3  A    between atoms: C_8  and  O_9
REMARK    4  A    between atoms: O_9  and  C_10
REMARK                            x       y       z     vdW  Elec       q    Type
REMARK                         _______ _______ _______ _____ _____    ______ ____
ROOT
ATOM      1  O   UNL     1       7.426   9.166  17.293  0.00  0.00    +0.000 OA
ATOM      2  C   UNL     1       8.251   8.964  18.180  0.00  0.00    +0.000 C 
ATOM      3  N   UNL     1       8.467   7.748  18.791  0.00  0.00    +0.000 N 
ATOM      4  C   UNL     1       7.835   6.577  18.430  0.00  0.00    +0.000 A 
ATOM      5  N   UNL     1       7.762   5.514  19.201  0.00  0.00    +0.000 NA
ATOM      6  N   UNL     1       7.002   4.505  18.625  0.00  0.00    +0.000 NA
ATOM      7  C   UNL     1       6.593   4.822  17.412  0.00  0.00    +0.000 A 
ATOM      8  S   UNL     1       7.139   6.358  16.884  0.00  0.00    +0.000 S 
ATOM      9  H   UNL     1       8.983   7.726  19.658  0.00  0.00    +0.000 HD
ENDROOT
BRANCH   2  10
ATOM     10  C   UNL     1       9.047  10.064  18.690  0.00  0.00    +0.000 A 
ATOM     11  C   UNL     1       9.750  11.025  17.988  0.00  0.00    +0.000 A 
ATOM     12  C   UNL     1      10.421  11.823  18.936  0.00  0.00    +0.000 A 
ATOM     13  C   UNL     1      10.079  11.309  20.169  0.00  0.00    +0.000 A 
ATOM     14  O   UNL     1       9.230  10.252  20.034  0.00  0.00    +0.000 OA
ENDBRANCH   2  10
BRANCH   7  15
ATOM     15  C   UNL     1       5.666   4.019  16.558  0.00  0.00    +0.000 C 
BRANCH  15  16
ATOM     16  O   UNL     1       4.340   4.524  16.737  0.00  0.00    +0.000 OA
BRANCH  16  17
ATOM     17  C   UNL     1       3.641   4.023  17.805  0.00  0.00    +0.000 A 
ATOM     18  C   UNL     1       3.748   2.729  18.319  0.00  0.00    +0.000 A 
ATOM     19  C   UNL     1       2.980   2.342  19.423  0.00  0.00    +0.000 A 
ATOM     20  C   UNL     1       2.102   3.248  20.014  0.00  0.00    +0.000 A 
ATOM     21 CL   UNL     1       1.167   2.766  21.374  0.00  0.00    +0.000 Cl
ATOM     22  C   UNL     1       1.983   4.538  19.507  0.00  0.00    +0.000 A 
ATOM     23  C   UNL     1       2.752   4.923  18.403  0.00  0.00    +0.000 A 
ENDBRANCH  16  17
ENDBRANCH  15  16
ENDBRANCH   7  15
TORSDOF 4
ENDMDL
MODEL 2
REMARK VINA RESULT:      -7.9      0.668      1.330
REMARK  Name = 
REMARK  4 active torsions:
REMARK  status: ('A' for Active; 'I' for Inactive)
REMARK    1  A    between atoms: C_2  and  C_18
REMARK    2  A    between atoms: C_7  and  C_8
REMARK    3  A    between atoms: C_8  and  O_9
REMARK    4  A    between atoms: O_9  and  C_10
REMARK                            x       y       z     vdW  Elec       q    Type
REMARK                         _______ _______ _______ _____ _____    ______ ____
ROOT
ATOM      1  O   UNL     1       7.484   9.129  17.260  0.00  0.00    +0.000 OA
ATOM      2  C   UNL     1       8.268   8.940  18.186  0.00  0.00    +0.000 C 
ATOM      3  N   UNL     1       8.461   7.732  18.820  0.00  0.00    +0.000 N 
ATOM      4  C   UNL     1       7.851   6.554  18.443  0.00  0.00    +0.000 A 
ATOM      5  N   UNL     1       7.746   5.500  19.222  0.00  0.00    +0.000 NA
ATOM      6  N   UNL     1       7.018   4.480  18.623  0.00  0.00    +0.000 NA
ATOM      7  C   UNL     1       6.666   4.782  17.388  0.00  0.00    +0.000 A 
ATOM      8  S   UNL     1       7.229   6.314  16.870  0.00  0.00    +0.000 S 
ATOM      9  H   UNL     1       8.936   7.722  19.711  0.00  0.00    +0.000 HD
ENDROOT
BRANCH   2  10
ATOM     10  C   UNL     1       9.034  10.049  18.720  0.00  0.00    +0.000 A 
ATOM     11  C   UNL     1       9.389  10.307  20.031  0.00  0.00    +0.000 A 
ATOM     12  C   UNL     1      10.063  11.545  20.043  0.00  0.00    +0.000 A 
ATOM     13  C   UNL     1      10.092  11.969  18.731  0.00  0.00    +0.000 A 
ATOM     14  O   UNL     1       9.487  11.061  17.916  0.00  0.00    +0.000 OA
ENDBRANCH   2  10
BRANCH   7  15
ATOM     15  C   UNL     1       5.782   3.965  16.502  0.00  0.00    +0.000 C 
BRANCH  15  16
ATOM     16  O   UNL     1       4.501   4.597  16.439  0.00  0.00    +0.000 OA
BRANCH  16  17
ATOM     17  C   UNL     1       3.646   4.334  17.478  0.00  0.00    +0.000 A 
ATOM     18  C   UNL     1       3.007   5.287  18.274  0.00  0.00    +0.000 A 
ATOM     19  C   UNL     1       2.148   4.887  19.304  0.00  0.00    +0.000 A 
ATOM     20  C   UNL     1       1.927   3.532  19.540  0.00  0.00    +0.000 A 
ATOM     21 CL   UNL     1       0.865   3.048  20.802  0.00  0.00    +0.000 Cl
ATOM     22  C   UNL     1       2.562   2.573  18.756  0.00  0.00    +0.000 A 
ATOM     23  C   UNL     1       3.420   2.976  17.727  0.00  0.00    +0.000 A 
ENDBRANCH  16  17
ENDBRANCH  15  16
ENDBRANCH   7  15
TORSDOF 4
ENDMDL
MODEL 3
REMARK VINA RESULT:      -7.4      1.420      1.709
REMARK  Name = 
REMARK  4 active torsions:
REMARK  status: ('A' for Active; 'I' for Inactive)
REMARK    1  A    between atoms: C_2  and  C_18
REMARK    2  A    between atoms: C_7  and  C_8
REMARK    3  A    between atoms: C_8  and  O_9
REMARK    4  A    between atoms: O_9  and  C_10
REMARK                            x       y       z     vdW  Elec       q    Type
REMARK                         _______ _______ _______ _____ _____    ______ ____
ROOT
ATOM      1  O   UNL     1       7.423   9.279  17.534  0.00  0.00    +0.000 OA
ATOM      2  C   UNL     1       8.321   9.035  18.335  0.00  0.00    +0.000 C 
ATOM      3  N   UNL     1       8.584   7.793  18.870  0.00  0.00    +0.000 N 
ATOM      4  C   UNL     1       7.916   6.640  18.514  0.00  0.00    +0.000 A 
ATOM      5  N   UNL     1       7.905   5.544  19.240  0.00  0.00    +0.000 NA
ATOM      6  N   UNL     1       7.092   4.563  18.689  0.00  0.00    +0.000 NA
ATOM      7  C   UNL     1       6.580   4.935  17.532  0.00  0.00    +0.000 A 
ATOM      8  S   UNL     1       7.086   6.492  17.027  0.00  0.00    +0.000 S 
ATOM      9  H   UNL     1       9.174   7.731  19.686  0.00  0.00    +0.000 HD
ENDROOT
BRANCH   2  10
ATOM     10  C   UNL     1       9.165  10.110  18.822  0.00  0.00    +0.000 A 
ATOM     11  C   UNL     1       9.957  10.985  18.102  0.00  0.00    +0.000 A 
ATOM     12  C   UNL     1      10.639  11.791  19.036  0.00  0.00    +0.000 A 
ATOM     13  C   UNL     1      10.214  11.369  20.277  0.00  0.00    +0.000 A 
ATOM     14  O   UNL     1       9.304  10.361  20.160  0.00  0.00    +0.000 OA
ENDBRANCH   2  10
BRANCH   7  15
ATOM     15  C   UNL     1       5.577   4.172  16.729  0.00  0.00    +0.000 C 
BRANCH  15  16
ATOM     16  O   UNL     1       4.600   3.634  17.624  0.00  0.00    +0.000 OA
BRANCH  16  17
ATOM     17  C   UNL     1       3.883   4.546  18.355  0.00  0.00    +0.000 A 
ATOM     18  C   UNL     1       3.527   4.419  19.700  0.00  0.00    +0.000 A 
ATOM     19  C   UNL     1       2.796   5.429  20.335  0.00  0.00    +0.000 A 
ATOM     20  C   UNL     1       2.418   6.568  19.626  0.00  0.00    +0.000 A 
ATOM     21 CL   UNL     1       1.526   7.807  20.416  0.00  0.00    +0.000 Cl
ATOM     22  C   UNL     1       2.763   6.703  18.285  0.00  0.00    +0.000 A 
ATOM     23  C   UNL     1       3.494   5.692  17.652  0.00  0.00    +0.000 A 
ENDBRANCH  16  17
ENDBRANCH  15  16
ENDBRANCH   7  15
TORSDOF 4
ENDMDL
MODEL 4
REMARK VINA RESULT:      -7.3      0.957      1.169
REMARK  Name = 
REMARK  4 active torsions:
REMARK  status: ('A' for Active; 'I' for Inactive)
REMARK    1  A    between atoms: C_2  and  C_18
REMARK    2  A    between atoms: C_7  and  C_8
REMARK    3  A    between atoms: C_8  and  O_9
REMARK    4  A    between atoms: O_9  and  C_10
REMARK                            x       y       z     vdW  Elec       q    Type
REMARK                         _______ _______ _______ _____ _____    ______ ____
ROOT
ATOM      1  O   UNL     1       7.679   9.668  17.789  0.00  0.00    +0.000 OA
ATOM      2  C   UNL     1       8.537   9.309  18.591  0.00  0.00    +0.000 C 
ATOM      3  N   UNL     1       8.726   8.012  19.015  0.00  0.00    +0.000 N 
ATOM      4  C   UNL     1       8.020   6.930  18.533  0.00  0.00    +0.000 A 
ATOM      5  N   UNL     1       7.935   5.773  19.153  0.00  0.00    +0.000 NA
ATOM      6  N   UNL     1       7.099   4.887  18.488  0.00  0.00    +0.000 NA
ATOM      7  C   UNL     1       6.646   5.387  17.355  0.00  0.00    +0.000 A 
ATOM      8  S   UNL     1       7.237   6.958  17.014  0.00  0.00    +0.000 S 
ATOM      9  H   UNL     1       9.283   7.847  19.840  0.00  0.00    +0.000 HD
ENDROOT
BRANCH   2  10
ATOM     10  C   UNL     1       9.410  10.294  19.202  0.00  0.00    +0.000 A 
ATOM     11  C   UNL     1       9.458  10.712  20.519  0.00  0.00    +0.000 A 
ATOM     12  C   UNL     1      10.421  11.739  20.592  0.00  0.00    +0.000 A 
ATOM     13  C   UNL     1      10.917  11.881  19.314  0.00  0.00    +0.000 A 
ATOM     14  O   UNL     1      10.324  10.997  18.464  0.00  0.00    +0.000 OA
ENDBRANCH   2  10
BRANCH   7  15
ATOM     15  C   UNL     1       5.638   4.750  16.453  0.00  0.00    +0.000 C 
BRANCH  15  16
ATOM     16  O   UNL     1       5.316   3.460  16.980  0.00  0.00    +0.000 OA
BRANCH  16  17
ATOM     17  C   UNL     1       4.259   3.411  17.853  0.00  0.00    +0.000 A 
ATOM     18  C   UNL     1       4.307   2.950  19.171  0.00  0.00    +0.000 A 
ATOM     19  C   UNL     1       3.154   2.958  19.964  0.00  0.00    +0.000 A 
ATOM     20  C   UNL     1       1.951   3.426  19.440  0.00  0.00    +0.000 A 
ATOM     21 CL   UNL     1       0.541   3.438  20.423  0.00  0.00    +0.000 Cl
ATOM     22  C   UNL     1       1.891   3.882  18.127  0.00  0.00    +0.000 A 
ATOM     23  C   UNL     1       3.044   3.873  17.336  0.00  0.00    +0.000 A 
ENDBRANCH  16  17
ENDBRANCH  15  16
ENDBRANCH   7  15
TORSDOF 4
ENDMDL
MODEL 5
REMARK VINA RESULT:      -7.3      0.826      1.302
REMARK  Name = 
REMARK  4 active torsions:
REMARK  status: ('A' for Active; 'I' for Inactive)
REMARK    1  A    between atoms: C_2  and  C_18
REMARK    2  A    between atoms: C_7  and  C_8
REMARK    3  A    between atoms: C_8  and  O_9
REMARK    4  A    between atoms: O_9  and  C_10
REMARK                            x       y       z     vdW  Elec       q    Type
REMARK                         _______ _______ _______ _____ _____    ______ ____
ROOT
ATOM      1  O   UNL     1       7.758   9.806  17.729  0.00  0.00    +0.000 OA
ATOM      2  C   UNL     1       8.585   9.453  18.565  0.00  0.00    +0.000 C 
ATOM      3  N   UNL     1       8.752   8.160  19.009  0.00  0.00    +0.000 N 
ATOM      4  C   UNL     1       8.060   7.075  18.513  0.00  0.00    +0.000 A 
ATOM      5  N   UNL     1       7.947   5.926  19.141  0.00  0.00    +0.000 NA
ATOM      6  N   UNL     1       7.132   5.035  18.456  0.00  0.00    +0.000 NA
ATOM      7  C   UNL     1       6.721   5.526  17.302  0.00  0.00    +0.000 A 
ATOM      8  S   UNL     1       7.332   7.091  16.967  0.00  0.00    +0.000 S 
ATOM      9  H   UNL     1       9.279   8.002  19.856  0.00  0.00    +0.000 HD
ENDROOT
BRANCH   2  10
ATOM     10  C   UNL     1       9.439  10.441  19.197  0.00  0.00    +0.000 A 
ATOM     11  C   UNL     1      10.498  11.146  18.655  0.00  0.00    +0.000 A 
ATOM     12  C   UNL     1      11.053  11.922  19.692  0.00  0.00    +0.000 A 
ATOM     13  C   UNL     1      10.291  11.655  20.810  0.00  0.00    +0.000 A 
ATOM     14  O   UNL     1       9.296  10.771  20.518  0.00  0.00    +0.000 OA
ENDBRANCH   2  10
BRANCH   7  15
ATOM     15  C   UNL     1       5.745   4.883  16.371  0.00  0.00    +0.000 C 
BRANCH  15  16
ATOM     16  O   UNL     1       5.339   3.634  16.937  0.00  0.00    +0.000 OA
BRANCH  16  17
ATOM     17  C   UNL     1       4.165   3.644  17.646  0.00  0.00    +0.000 A 
ATOM     18  C   UNL     1       3.215   4.669  17.642  0.00  0.00    +0.000 A 
ATOM     19  C   UNL     1       2.049   4.554  18.407  0.00  0.00    +0.000 A 
ATOM     20  C   UNL     1       1.831   3.415  19.178  0.00  0.00    +0.000 A 
ATOM     21 CL   UNL     1       0.392   3.278  20.110  0.00  0.00    +0.000 Cl
ATOM     22  C   UNL     1       2.772   2.390  19.193  0.00  0.00    +0.000 A 
ATOM     23  C   UNL     1       3.937   2.507  18.427  0.00  0.00    +0.000 A 
ENDBRANCH  16  17
ENDBRANCH  15  16
ENDBRANCH   7  15
TORSDOF 4
ENDMDL
MODEL 6
REMARK VINA RESULT:      -7.0      4.287      6.808
REMARK  Name = 
REMARK  4 active torsions:
REMARK  status: ('A' for Active; 'I' for Inactive)
REMARK    1  A    between atoms: C_2  and  C_18
REMARK    2  A    between atoms: C_7  and  C_8
REMARK    3  A    between atoms: C_8  and  O_9
REMARK    4  A    between atoms: O_9  and  C_10
REMARK                            x       y       z     vdW  Elec       q    Type
REMARK                         _______ _______ _______ _____ _____    ______ ____
ROOT
ATOM      1  O   UNL     1       1.833   8.069  19.126  0.00  0.00    +0.000 OA
ATOM      2  C   UNL     1       1.724   7.549  20.233  0.00  0.00    +0.000 C 
ATOM      3  N   UNL     1       2.184   6.293  20.563  0.00  0.00    +0.000 N 
ATOM      4  C   UNL     1       2.900   5.483  19.707  0.00  0.00    +0.000 A 
ATOM      5  N   UNL     1       3.040   4.185  19.869  0.00  0.00    +0.000 NA
ATOM      6  N   UNL     1       3.740   3.602  18.823  0.00  0.00    +0.000 NA
ATOM      7  C   UNL     1       4.163   4.495  17.950  0.00  0.00    +0.000 A 
ATOM      8  S   UNL     1       3.761   6.107  18.369  0.00  0.00    +0.000 S 
ATOM      9  H   UNL     1       1.846   5.858  21.408  0.00  0.00    +0.000 HD
ENDROOT
BRANCH   2  10
ATOM     10  C   UNL     1       1.023   8.250  21.293  0.00  0.00    +0.000 A 
ATOM     11  C   UNL     1      -0.338   8.369  21.501  0.00  0.00    +0.000 A 
ATOM     12  C   UNL     1      -0.514   9.211  22.618  0.00  0.00    +0.000 A 
ATOM     13  C   UNL     1       0.755   9.550  23.037  0.00  0.00    +0.000 A 
ATOM     14  O   UNL     1       1.698   8.957  22.252  0.00  0.00    +0.000 OA
ENDBRANCH   2  10
BRANCH   7  15
ATOM     15  C   UNL     1       4.845   4.203  16.652  0.00  0.00    +0.000 C 
BRANCH  15  16
ATOM     16  O   UNL     1       6.248   4.084  16.899  0.00  0.00    +0.000 OA
BRANCH  16  17
ATOM     17  C   UNL     1       6.867   5.192  17.418  0.00  0.00    +0.000 A 
ATOM     18  C   UNL     1       7.490   5.273  18.666  0.00  0.00    +0.000 A 
ATOM     19  C   UNL     1       8.095   6.467  19.077  0.00  0.00    +0.000 A 
ATOM     20  C   UNL     1       8.075   7.582  18.242  0.00  0.00    +0.000 A 
ATOM     21 CL   UNL     1       8.825   9.042  18.752  0.00  0.00    +0.000 Cl
ATOM     22  C   UNL     1       7.453   7.514  16.999  0.00  0.00    +0.000 A 
ATOM     23  C   UNL     1       6.850   6.320  16.590  0.00  0.00    +0.000 A 
ENDBRANCH  16  17
ENDBRANCH  15  16
ENDBRANCH   7  15
TORSDOF 4
ENDMDL
MODEL 7
REMARK VINA RESULT:      -6.9      5.028      6.823
REMARK  Name = 
REMARK  4 active torsions:
REMARK  status: ('A' for Active; 'I' for Inactive)
REMARK    1  A    between atoms: C_2  and  C_18
REMARK    2  A    between atoms: C_7  and  C_8
REMARK    3  A    between atoms: C_8  and  O_9
REMARK    4  A    between atoms: O_9  and  C_10
REMARK                            x       y       z     vdW  Elec       q    Type
REMARK                         _______ _______ _______ _____ _____    ______ ____
ROOT
ATOM      1  O   UNL     1       5.207   6.607  16.101  0.00  0.00    +0.000 OA
ATOM      2  C   UNL     1       5.231   5.413  15.815  0.00  0.00    +0.000 C 
ATOM      3  N   UNL     1       4.653   4.412  16.565  0.00  0.00    +0.000 N 
ATOM      4  C   UNL     1       3.903   4.631  17.700  0.00  0.00    +0.000 A 
ATOM      5  N   UNL     1       3.648   3.708  18.601  0.00  0.00    +0.000 NA
ATOM      6  N   UNL     1       2.939   4.215  19.681  0.00  0.00    +0.000 NA
ATOM      7  C   UNL     1       2.626   5.486  19.516  0.00  0.00    +0.000 A 
ATOM      8  S   UNL     1       3.148   6.131  18.018  0.00  0.00    +0.000 S 
ATOM      9  H   UNL     1       4.923   3.456  16.387  0.00  0.00    +0.000 HD
ENDROOT
BRANCH   2  10
ATOM     10  C   UNL     1       5.949   4.968  14.636  0.00  0.00    +0.000 A 
ATOM     11  C   UNL     1       5.629   3.950  13.758  0.00  0.00    +0.000 A 
ATOM     12  C   UNL     1       6.681   3.862  12.823  0.00  0.00    +0.000 A 
ATOM     13  C   UNL     1       7.582   4.843  13.179  0.00  0.00    +0.000 A 
ATOM     14  O   UNL     1       7.140   5.535  14.266  0.00  0.00    +0.000 OA
ENDBRANCH   2  10
BRANCH   7  15
ATOM     15  C   UNL     1       1.969   6.368  20.528  0.00  0.00    +0.000 C 
BRANCH  15  16
ATOM     16  O   UNL     1       2.019   7.715  20.049  0.00  0.00    +0.000 OA
BRANCH  16  17
ATOM     17  C   UNL     1       1.233   8.622  20.713  0.00  0.00    +0.000 A 
ATOM     18  C   UNL     1       1.034   8.676  22.095  0.00  0.00    +0.000 A 
ATOM     19  C   UNL     1       0.208   9.659  22.651  0.00  0.00    +0.000 A 
ATOM     20  C   UNL     1      -0.420  10.590  21.827  0.00  0.00    +0.000 A 
ATOM     21 CL   UNL     1      -1.428  11.799  22.519  0.00  0.00    +0.000 Cl
ATOM     22  C   UNL     1      -0.233  10.543  20.449  0.00  0.00    +0.000 A 
ATOM     23  C   UNL     1       0.593   9.559  19.895  0.00  0.00    +0.000 A 
ENDBRANCH  16  17
ENDBRANCH  15  16
ENDBRANCH   7  15
TORSDOF 4
ENDMDL
MODEL 8
REMARK VINA RESULT:      -6.9      5.054      6.849
REMARK  Name = 
REMARK  4 active torsions:
REMARK  status: ('A' for Active; 'I' for Inactive)
REMARK    1  A    between atoms: C_2  and  C_18
REMARK    2  A    between atoms: C_7  and  C_8
REMARK    3  A    between atoms: C_8  and  O_9
REMARK    4  A    between atoms: O_9  and  C_10
REMARK                            x       y       z     vdW  Elec       q    Type
REMARK                         _______ _______ _______ _____ _____    ______ ____
ROOT
ATOM      1  O   UNL     1       5.145   6.715  15.651  0.00  0.00    +0.000 OA
ATOM      2  C   UNL     1       5.309   5.503  15.537  0.00  0.00    +0.000 C 
ATOM      3  N   UNL     1       4.931   4.566  16.474  0.00  0.00    +0.000 N 
ATOM      4  C   UNL     1       4.246   4.863  17.633  0.00  0.00    +0.000 A 
ATOM      5  N   UNL     1       4.187   4.066  18.677  0.00  0.00    +0.000 NA
ATOM      6  N   UNL     1       3.500   4.643  19.736  0.00  0.00    +0.000 NA
ATOM      7  C   UNL     1       3.006   5.825  19.421  0.00  0.00    +0.000 A 
ATOM      8  S   UNL     1       3.321   6.291  17.803  0.00  0.00    +0.000 S 
ATOM      9  H   UNL     1       5.313   3.634  16.410  0.00  0.00    +0.000 HD
ENDROOT
BRANCH   2  10
ATOM     10  C   UNL     1       5.990   4.974  14.371  0.00  0.00    +0.000 A 
ATOM     11  C   UNL     1       5.626   3.914  13.562  0.00  0.00    +0.000 A 
ATOM     12  C   UNL     1       6.654   3.746  12.611  0.00  0.00    +0.000 A 
ATOM     13  C   UNL     1       7.584   4.725  12.889  0.00  0.00    +0.000 A 
ATOM     14  O   UNL     1       7.184   5.489  13.943  0.00  0.00    +0.000 OA
ENDBRANCH   2  10
BRANCH   7  15
ATOM     15  C   UNL     1       2.314   6.765  20.354  0.00  0.00    +0.000 C 
BRANCH  15  16
ATOM     16  O   UNL     1       1.863   7.895  19.602  0.00  0.00    +0.000 OA
BRANCH  16  17
ATOM     17  C   UNL     1       1.159   8.843  20.299  0.00  0.00    +0.000 A 
ATOM     18  C   UNL     1       0.840  10.125  19.844  0.00  0.00    +0.000 A 
ATOM     19  C   UNL     1       0.106  10.999  20.653  0.00  0.00    +0.000 A 
ATOM     20  C   UNL     1      -0.309  10.594  21.919  0.00  0.00    +0.000 A 
ATOM     21 CL   UNL     1      -1.216  11.672  22.905  0.00  0.00    +0.000 Cl
ATOM     22  C   UNL     1       0.007   9.321  22.385  0.00  0.00    +0.000 A 
ATOM     23  C   UNL     1       0.741   8.449  21.574  0.00  0.00    +0.000 A 
ENDBRANCH  16  17
ENDBRANCH  15  16
ENDBRANCH   7  15
TORSDOF 4
ENDMDL
MODEL 9
REMARK VINA RESULT:      -6.8      5.058      6.625
REMARK  Name = 
REMARK  4 active torsions:
REMARK  status: ('A' for Active; 'I' for Inactive)
REMARK    1  A    between atoms: C_2  and  C_18
REMARK    2  A    between atoms: C_7  and  C_8
REMARK    3  A    between atoms: C_8  and  O_9
REMARK    4  A    between atoms: O_9  and  C_10
REMARK                            x       y       z     vdW  Elec       q    Type
REMARK                         _______ _______ _______ _____ _____    ______ ____
ROOT
ATOM      1  O   UNL     1       5.928   6.144  16.042  0.00  0.00    +0.000 OA
ATOM      2  C   UNL     1       5.649   5.113  15.438  0.00  0.00    +0.000 C 
ATOM      3  N   UNL     1       4.741   4.169  15.867  0.00  0.00    +0.000 N 
ATOM      4  C   UNL     1       3.967   4.300  17.001  0.00  0.00    +0.000 A 
ATOM      5  N   UNL     1       3.373   3.294  17.605  0.00  0.00    +0.000 NA
ATOM      6  N   UNL     1       2.726   3.692  18.766  0.00  0.00    +0.000 NA
ATOM      7  C   UNL     1       2.797   4.996  18.952  0.00  0.00    +0.000 A 
ATOM      8  S   UNL     1       3.631   5.822  17.703  0.00  0.00    +0.000 S 
ATOM      9  H   UNL     1       4.750   3.256  15.438  0.00  0.00    +0.000 HD
ENDROOT
BRANCH   2  10
ATOM     10  C   UNL     1       6.333   4.795  14.199  0.00  0.00    +0.000 A 
ATOM     11  C   UNL     1       6.068   3.781  13.297  0.00  0.00    +0.000 A 
ATOM     12  C   UNL     1       7.061   3.845  12.298  0.00  0.00    +0.000 A 
ATOM     13  C   UNL     1       7.872   4.905  12.642  0.00  0.00    +0.000 A 
ATOM     14  O   UNL     1       7.430   5.502  13.785  0.00  0.00    +0.000 OA
ENDBRANCH   2  10
BRANCH   7  15
ATOM     15  C   UNL     1       2.311   5.742  20.152  0.00  0.00    +0.000 C 
BRANCH  15  16
ATOM     16  O   UNL     1       2.733   7.103  20.037  0.00  0.00    +0.000 OA
BRANCH  16  17
ATOM     17  C   UNL     1       1.744   8.051  20.119  0.00  0.00    +0.000 A 
ATOM     18  C   UNL     1       0.935   8.296  21.231  0.00  0.00    +0.000 A 
ATOM     19  C   UNL     1      -0.037   9.302  21.188  0.00  0.00    +0.000 A 
ATOM     20  C   UNL     1      -0.203  10.062  20.033  0.00  0.00    +0.000 A 
ATOM     21 CL   UNL     1      -1.396  11.300  19.991  0.00  0.00    +0.000 Cl
ATOM     22  C   UNL     1       0.593   9.823  18.918  0.00  0.00    +0.000 A 
ATOM     23  C   UNL     1       1.565   8.818  18.963  0.00  0.00    +0.000 A 
ENDBRANCH  16  17
ENDBRANCH  15  16
ENDBRANCH   7  15
TORSDOF 4
ENDMDL
