MODEL 1
REMARK VINA RESULT:      -9.3      0.000      0.000
REMARK  Name = 
REMARK  6 active torsions:
REMARK  status: ('A' for Active; 'I' for Inactive)
REMARK    1  A    between atoms: C_2  and  C_25
REMARK    2  A    between atoms: N_7  and  C_8
REMARK    3  A    between atoms: C_8  and  C_9
REMARK    4  A    between atoms: C_15  and  O_16
REMARK    5  A    between atoms: O_16  and  C_17
REMARK    6  A    between atoms: C_17  and  C_18
REMARK                            x       y       z     vdW  Elec       q    Type
REMARK                         _______ _______ _______ _____ _____    ______ ____
ROOT
ATOM      1  C   UNL     1       2.720   5.880  18.131  0.00  0.00    +0.000 C 
ENDROOT
BRANCH   1   8
ATOM      2  O   UNL     1      -0.692  10.622  18.556  0.00  0.00    +0.000 OA
ATOM      3  C   UNL     1      -0.238  10.511  19.689  0.00  0.00    +0.000 C 
ATOM      4  N   UNL     1       0.855   9.757  20.064  0.00  0.00    +0.000 N 
ATOM      5  C   UNL     1       1.583   9.024  19.160  0.00  0.00    +0.000 A 
ATOM      6  C   UNL     1       2.011   9.403  17.869  0.00  0.00    +0.000 A 
ATOM      7  C   UNL     1       2.698   8.312  17.392  0.00  0.00    +0.000 A 
ATOM      8  N   UNL     1       2.501   7.321  18.319  0.00  0.00    +0.000 N 
ATOM      9  N   UNL     1       2.010   7.801  19.484  0.00  0.00    +0.000 NA
ATOM     10  H   UNL     1       0.888   9.388  21.003  0.00  0.00    +0.000 HD
BRANCH   3  11
ATOM     11  C   UNL     1      -0.950  11.154  20.824  0.00  0.00    +0.000 A 
ATOM     12  C   UNL     1      -0.703  10.714  22.129  0.00  0.00    +0.000 A 
ATOM     13  C   UNL     1      -1.371  11.311  23.201  0.00  0.00    +0.000 A 
ATOM     14  C   UNL     1      -2.289  12.337  22.967  0.00  0.00    +0.000 A 
ATOM     15  C   UNL     1      -2.537  12.771  21.666  0.00  0.00    +0.000 A 
ATOM     16  C   UNL     1      -1.873  12.182  20.592  0.00  0.00    +0.000 A 
ENDBRANCH   3  11
ENDBRANCH   1   8
BRANCH   1  17
ATOM     17  C   UNL     1       4.108   5.579  17.583  0.00  0.00    +0.000 A 
ATOM     18  C   UNL     1       5.151   6.509  17.817  0.00  0.00    +0.000 A 
ATOM     19  C   UNL     1       6.432   6.312  17.308  0.00  0.00    +0.000 A 
ATOM     20 CL   UNL     1       7.668   7.464  17.623  0.00  0.00    +0.000 Cl
ATOM     21  C   UNL     1       6.711   5.192  16.548  0.00  0.00    +0.000 A 
ATOM     22  C   UNL     1       5.711   4.244  16.333  0.00  0.00    +0.000 A 
ATOM     23  C   UNL     1       4.427   4.393  16.892  0.00  0.00    +0.000 A 
BRANCH  23  24
ATOM     24  O   UNL     1       3.471   3.400  16.816  0.00  0.00    +0.000 OA
BRANCH  24  25
ATOM     25  C   UNL     1       3.627   2.345  17.784  0.00  0.00    +0.000 C 
BRANCH  25  26
ATOM     26  C   UNL     1       2.818   2.552  19.041  0.00  0.00    +0.000 A 
ATOM     27  C   UNL     1       1.421   2.603  19.017  0.00  0.00    +0.000 A 
ATOM     28  C   UNL     1       0.701   2.751  20.205  0.00  0.00    +0.000 A 
ATOM     29  C   UNL     1       1.368   2.833  21.428  0.00  0.00    +0.000 A 
ATOM     30  C   UNL     1       2.756   2.752  21.469  0.00  0.00    +0.000 A 
ATOM     31  C   UNL     1       3.477   2.603  20.284  0.00  0.00    +0.000 A 
ENDBRANCH  25  26
ENDBRANCH  24  25
ENDBRANCH  23  24
ENDBRANCH   1  17
TORSDOF 6
ENDMDL
MODEL 2
REMARK VINA RESULT:      -9.1      0.160      1.256
REMARK  Name = 
REMARK  6 active torsions:
REMARK  status: ('A' for Active; 'I' for Inactive)
REMARK    1  A    between atoms: C_2  and  C_25
REMARK    2  A    between atoms: N_7  and  C_8
REMARK    3  A    between atoms: C_8  and  C_9
REMARK    4  A    between atoms: C_15  and  O_16
REMARK    5  A    between atoms: O_16  and  C_17
REMARK    6  A    between atoms: C_17  and  C_18
REMARK                            x       y       z     vdW  Elec       q    Type
REMARK                         _______ _______ _______ _____ _____    ______ ____
ROOT
ATOM      1  C   UNL     1       2.607   6.003  17.971  0.00  0.00    +0.000 C 
ENDROOT
BRANCH   1   8
ATOM      2  O   UNL     1      -0.682  10.814  18.558  0.00  0.00    +0.000 OA
ATOM      3  C   UNL     1      -0.277  10.620  19.699  0.00  0.00    +0.000 C 
ATOM      4  N   UNL     1       0.777   9.812  20.067  0.00  0.00    +0.000 N 
ATOM      5  C   UNL     1       1.520   9.113  19.148  0.00  0.00    +0.000 A 
ATOM      6  C   UNL     1       2.009   9.556  17.900  0.00  0.00    +0.000 A 
ATOM      7  C   UNL     1       2.684   8.475  17.383  0.00  0.00    +0.000 A 
ATOM      8  N   UNL     1       2.421   7.436  18.239  0.00  0.00    +0.000 N 
ATOM      9  N   UNL     1       1.898   7.860  19.412  0.00  0.00    +0.000 NA
ATOM     10  H   UNL     1       0.763   9.385  20.983  0.00  0.00    +0.000 HD
BRANCH   3  11
ATOM     11  C   UNL     1      -1.015  11.215  20.844  0.00  0.00    +0.000 A 
ATOM     12  C   UNL     1      -2.013  12.165  20.602  0.00  0.00    +0.000 A 
ATOM     13  C   UNL     1      -2.708  12.731  21.673  0.00  0.00    +0.000 A 
ATOM     14  C   UNL     1      -2.398  12.355  22.982  0.00  0.00    +0.000 A 
ATOM     15  C   UNL     1      -1.400  11.412  23.223  0.00  0.00    +0.000 A 
ATOM     16  C   UNL     1      -0.705  10.841  22.158  0.00  0.00    +0.000 A 
ENDBRANCH   3  11
ENDBRANCH   1   8
BRANCH   1  17
ATOM     17  C   UNL     1       4.009   5.692  17.468  0.00  0.00    +0.000 A 
ATOM     18  C   UNL     1       5.043   6.630  17.704  0.00  0.00    +0.000 A 
ATOM     19  C   UNL     1       6.338   6.424  17.235  0.00  0.00    +0.000 A 
ATOM     20 CL   UNL     1       7.562   7.588  17.551  0.00  0.00    +0.000 Cl
ATOM     21  C   UNL     1       6.639   5.284  16.513  0.00  0.00    +0.000 A 
ATOM     22  C   UNL     1       5.648   4.328  16.297  0.00  0.00    +0.000 A 
ATOM     23  C   UNL     1       4.349   4.488  16.818  0.00  0.00    +0.000 A 
BRANCH  23  24
ATOM     24  O   UNL     1       3.398   3.491  16.744  0.00  0.00    +0.000 OA
BRANCH  24  25
ATOM     25  C   UNL     1       3.596   2.406  17.670  0.00  0.00    +0.000 C 
BRANCH  25  26
ATOM     26  C   UNL     1       2.857   2.581  18.975  0.00  0.00    +0.000 A 
ATOM     27  C   UNL     1       3.524   2.586  20.203  0.00  0.00    +0.000 A 
ATOM     28  C   UNL     1       2.815   2.795  21.388  0.00  0.00    +0.000 A 
ATOM     29  C   UNL     1       1.438   3.017  21.357  0.00  0.00    +0.000 A 
ATOM     30  C   UNL     1       0.767   3.046  20.138  0.00  0.00    +0.000 A 
ATOM     31  C   UNL     1       1.474   2.839  18.954  0.00  0.00    +0.000 A 
ENDBRANCH  25  26
ENDBRANCH  24  25
ENDBRANCH  23  24
ENDBRANCH   1  17
TORSDOF 6
ENDMDL
MODEL 3
REMARK VINA RESULT:      -9.0      1.416      1.843
REMARK  Name = 
REMARK  6 active torsions:
REMARK  status: ('A' for Active; 'I' for Inactive)
REMARK    1  A    between atoms: C_2  and  C_25
REMARK    2  A    between atoms: N_7  and  C_8
REMARK    3  A    between atoms: C_8  and  C_9
REMARK    4  A    between atoms: C_15  and  O_16
REMARK    5  A    between atoms: O_16  and  C_17
REMARK    6  A    between atoms: C_17  and  C_18
REMARK                            x       y       z     vdW  Elec       q    Type
REMARK                         _______ _______ _______ _____ _____    ______ ____
ROOT
ATOM      1  C   UNL     1       3.538   7.234  17.128  0.00  0.00    +0.000 C 
ENDROOT
BRANCH   1   8
ATOM      2  O   UNL     1       1.894   9.422  22.307  0.00  0.00    +0.000 OA
ATOM      3  C   UNL     1       0.954   9.714  21.577  0.00  0.00    +0.000 C 
ATOM      4  N   UNL     1       0.678   9.171  20.339  0.00  0.00    +0.000 N 
ATOM      5  C   UNL     1       1.465   8.198  19.775  0.00  0.00    +0.000 A 
ATOM      6  C   UNL     1       2.025   7.059  20.393  0.00  0.00    +0.000 A 
ATOM      7  C   UNL     1       2.718   6.420  19.392  0.00  0.00    +0.000 A 
ATOM      8  N   UNL     1       2.677   7.272  18.318  0.00  0.00    +0.000 N 
ATOM      9  N   UNL     1       1.750   8.244  18.471  0.00  0.00    +0.000 NA
ATOM     10  H   UNL     1       0.188   9.737  19.661  0.00  0.00    +0.000 HD
BRANCH   3  11
ATOM     11  C   UNL     1       0.043  10.820  21.971  0.00  0.00    +0.000 A 
ATOM     12  C   UNL     1      -0.941  10.590  22.938  0.00  0.00    +0.000 A 
ATOM     13  C   UNL     1      -1.803  11.624  23.311  0.00  0.00    +0.000 A 
ATOM     14  C   UNL     1      -1.687  12.880  22.711  0.00  0.00    +0.000 A 
ATOM     15  C   UNL     1      -0.709  13.107  21.744  0.00  0.00    +0.000 A 
ATOM     16  C   UNL     1       0.156  12.081  21.369  0.00  0.00    +0.000 A 
ENDBRANCH   3  11
ENDBRANCH   1   8
BRANCH   1  17
ATOM     17  C   UNL     1       4.833   6.474  17.382  0.00  0.00    +0.000 A 
ATOM     18  C   UNL     1       5.957   7.184  17.869  0.00  0.00    +0.000 A 
ATOM     19  C   UNL     1       7.181   6.556  18.083  0.00  0.00    +0.000 A 
ATOM     20 CL   UNL     1       8.517   7.456  18.681  0.00  0.00    +0.000 Cl
ATOM     21  C   UNL     1       7.324   5.208  17.812  0.00  0.00    +0.000 A 
ATOM     22  C   UNL     1       6.223   4.478  17.366  0.00  0.00    +0.000 A 
ATOM     23  C   UNL     1       4.960   5.081  17.204  0.00  0.00    +0.000 A 
BRANCH  23  24
ATOM     24  O   UNL     1       3.828   4.351  16.906  0.00  0.00    +0.000 OA
BRANCH  24  25
ATOM     25  C   UNL     1       3.789   3.040  17.501  0.00  0.00    +0.000 C 
BRANCH  25  26
ATOM     26  C   UNL     1       2.935   2.964  18.744  0.00  0.00    +0.000 A 
ATOM     27  C   UNL     1       3.498   2.824  20.016  0.00  0.00    +0.000 A 
ATOM     28  C   UNL     1       2.681   2.801  21.148  0.00  0.00    +0.000 A 
ATOM     29  C   UNL     1       1.298   2.934  21.023  0.00  0.00    +0.000 A 
ATOM     30  C   UNL     1       0.728   3.105  19.766  0.00  0.00    +0.000 A 
ATOM     31  C   UNL     1       1.542   3.129  18.634  0.00  0.00    +0.000 A 
ENDBRANCH  25  26
ENDBRANCH  24  25
ENDBRANCH  23  24
ENDBRANCH   1  17
TORSDOF 6
ENDMDL
MODEL 4
REMARK VINA RESULT:      -8.9      0.949      1.579
REMARK  Name = 
REMARK  6 active torsions:
REMARK  status: ('A' for Active; 'I' for Inactive)
REMARK    1  A    between atoms: C_2  and  C_25
REMARK    2  A    between atoms: N_7  and  C_8
REMARK    3  A    between atoms: C_8  and  C_9
REMARK    4  A    between atoms: C_15  and  O_16
REMARK    5  A    between atoms: O_16  and  C_17
REMARK    6  A    between atoms: C_17  and  C_18
REMARK                            x       y       z     vdW  Elec       q    Type
REMARK                         _______ _______ _______ _____ _____    ______ ____
ROOT
ATOM      1  C   UNL     1       2.788   6.019  19.251  0.00  0.00    +0.000 C 
ENDROOT
BRANCH   1   8
ATOM      2  O   UNL     1      -0.957  10.312  17.890  0.00  0.00    +0.000 OA
ATOM      3  C   UNL     1      -0.620  10.597  19.033  0.00  0.00    +0.000 C 
ATOM      4  N   UNL     1       0.475  10.103  19.712  0.00  0.00    +0.000 N 
ATOM      5  C   UNL     1       1.341   9.202  19.145  0.00  0.00    +0.000 A 
ATOM      6  C   UNL     1       1.878   9.206  17.839  0.00  0.00    +0.000 A 
ATOM      7  C   UNL     1       2.683   8.093  17.786  0.00  0.00    +0.000 A 
ATOM      8  N   UNL     1       2.454   7.420  18.959  0.00  0.00    +0.000 N 
ATOM      9  N   UNL     1       1.812   8.184  19.871  0.00  0.00    +0.000 NA
ATOM     10  H   UNL     1       0.432  10.045  20.719  0.00  0.00    +0.000 HD
BRANCH   3  11
ATOM     11  C   UNL     1      -1.489  11.486  19.848  0.00  0.00    +0.000 A 
ATOM     12  C   UNL     1      -2.698  11.945  19.314  0.00  0.00    +0.000 A 
ATOM     13  C   UNL     1      -3.519  12.783  20.072  0.00  0.00    +0.000 A 
ATOM     14  C   UNL     1      -3.126  13.168  21.356  0.00  0.00    +0.000 A 
ATOM     15  C   UNL     1      -1.918  12.714  21.886  0.00  0.00    +0.000 A 
ATOM     16  C   UNL     1      -1.096  11.875  21.135  0.00  0.00    +0.000 A 
ENDBRANCH   3  11
ENDBRANCH   1   8
BRANCH   1  17
ATOM     17  C   UNL     1       4.019   5.552  18.487  0.00  0.00    +0.000 A 
ATOM     18  C   UNL     1       5.296   5.981  18.923  0.00  0.00    +0.000 A 
ATOM     19  C   UNL     1       6.458   5.622  18.244  0.00  0.00    +0.000 A 
ATOM     20 CL   UNL     1       7.987   6.160  18.813  0.00  0.00    +0.000 Cl
ATOM     21  C   UNL     1       6.382   4.835  17.110  0.00  0.00    +0.000 A 
ATOM     22  C   UNL     1       5.139   4.370  16.680  0.00  0.00    +0.000 A 
ATOM     23  C   UNL     1       3.960   4.669  17.390  0.00  0.00    +0.000 A 
BRANCH  23  24
ATOM     24  O   UNL     1       2.744   4.101  17.069  0.00  0.00    +0.000 OA
BRANCH  24  25
ATOM     25  C   UNL     1       2.572   2.751  17.539  0.00  0.00    +0.000 C 
BRANCH  25  26
ATOM     26  C   UNL     1       2.317   2.654  19.024  0.00  0.00    +0.000 A 
ATOM     27  C   UNL     1       3.344   2.380  19.931  0.00  0.00    +0.000 A 
ATOM     28  C   UNL     1       3.081   2.342  21.302  0.00  0.00    +0.000 A 
ATOM     29  C   UNL     1       1.794   2.593  21.780  0.00  0.00    +0.000 A 
ATOM     30  C   UNL     1       0.769   2.897  20.890  0.00  0.00    +0.000 A 
ATOM     31  C   UNL     1       1.031   2.937  19.521  0.00  0.00    +0.000 A 
ENDBRANCH  25  26
ENDBRANCH  24  25
ENDBRANCH  23  24
ENDBRANCH   1  17
TORSDOF 6
ENDMDL
MODEL 5
REMARK VINA RESULT:      -8.7      4.494      6.859
REMARK  Name = 
REMARK  6 active torsions:
REMARK  status: ('A' for Active; 'I' for Inactive)
REMARK    1  A    between atoms: C_2  and  C_25
REMARK    2  A    between atoms: N_7  and  C_8
REMARK    3  A    between atoms: C_8  and  C_9
REMARK    4  A    between atoms: C_15  and  O_16
REMARK    5  A    between atoms: O_16  and  C_17
REMARK    6  A    between atoms: C_17  and  C_18
REMARK                            x       y       z     vdW  Elec       q    Type
REMARK                         _______ _______ _______ _____ _____    ______ ____
ROOT
ATOM      1  C   UNL     1       5.740   4.706  18.968  0.00  0.00    +0.000 C 
ENDROOT
BRANCH   1   8
ATOM      2  O   UNL     1       7.851   9.985  17.561  0.00  0.00    +0.000 OA
ATOM      3  C   UNL     1       8.652   9.586  18.399  0.00  0.00    +0.000 C 
ATOM      4  N   UNL     1       8.809   8.285  18.828  0.00  0.00    +0.000 N 
ATOM      5  C   UNL     1       8.050   7.254  18.331  0.00  0.00    +0.000 A 
ATOM      6  C   UNL     1       7.690   7.001  16.989  0.00  0.00    +0.000 A 
ATOM      7  C   UNL     1       6.933   5.854  17.039  0.00  0.00    +0.000 A 
ATOM      8  N   UNL     1       6.746   5.596  18.373  0.00  0.00    +0.000 N 
ATOM      9  N   UNL     1       7.589   6.310  19.155  0.00  0.00    +0.000 NA
ATOM     10  H   UNL     1       9.146   8.122  19.766  0.00  0.00    +0.000 HD
BRANCH   3  11
ATOM     11  C   UNL     1       9.498  10.570  19.124  0.00  0.00    +0.000 A 
ATOM     12  C   UNL     1       9.235  10.843  20.471  0.00  0.00    +0.000 A 
ATOM     13  C   UNL     1      10.023  11.769  21.158  0.00  0.00    +0.000 A 
ATOM     14  C   UNL     1      11.064  12.426  20.498  0.00  0.00    +0.000 A 
ATOM     15  C   UNL     1      11.322  12.156  19.154  0.00  0.00    +0.000 A 
ATOM     16  C   UNL     1      10.541  11.232  18.463  0.00  0.00    +0.000 A 
ENDBRANCH   3  11
ENDBRANCH   1   8
BRANCH   1  17
ATOM     17  C   UNL     1       4.328   5.060  18.522  0.00  0.00    +0.000 A 
ATOM     18  C   UNL     1       3.820   6.347  18.821  0.00  0.00    +0.000 A 
ATOM     19  C   UNL     1       2.523   6.718  18.476  0.00  0.00    +0.000 A 
ATOM     20 CL   UNL     1       1.951   8.294  18.853  0.00  0.00    +0.000 Cl
ATOM     21  C   UNL     1       1.692   5.819  17.834  0.00  0.00    +0.000 A 
ATOM     22  C   UNL     1       2.180   4.556  17.497  0.00  0.00    +0.000 A 
ATOM     23  C   UNL     1       3.509   4.185  17.779  0.00  0.00    +0.000 A 
BRANCH  23  24
ATOM     24  O   UNL     1       4.055   3.001  17.326  0.00  0.00    +0.000 OA
BRANCH  24  25
ATOM     25  C   UNL     1       3.645   1.833  18.062  0.00  0.00    +0.000 C 
BRANCH  25  26
ATOM     26  C   UNL     1       2.820   2.149  19.287  0.00  0.00    +0.000 A 
ATOM     27  C   UNL     1       3.412   2.390  20.530  0.00  0.00    +0.000 A 
ATOM     28  C   UNL     1       2.622   2.723  21.633  0.00  0.00    +0.000 A 
ATOM     29  C   UNL     1       1.237   2.833  21.501  0.00  0.00    +0.000 A 
ATOM     30  C   UNL     1       0.639   2.626  20.263  0.00  0.00    +0.000 A 
ATOM     31  C   UNL     1       1.427   2.295  19.160  0.00  0.00    +0.000 A 
ENDBRANCH  25  26
ENDBRANCH  24  25
ENDBRANCH  23  24
ENDBRANCH   1  17
TORSDOF 6
ENDMDL
MODEL 6
REMARK VINA RESULT:      -8.7      1.327      1.688
REMARK  Name = 
REMARK  6 active torsions:
REMARK  status: ('A' for Active; 'I' for Inactive)
REMARK    1  A    between atoms: C_2  and  C_25
REMARK    2  A    between atoms: N_7  and  C_8
REMARK    3  A    between atoms: C_8  and  C_9
REMARK    4  A    between atoms: C_15  and  O_16
REMARK    5  A    between atoms: O_16  and  C_17
REMARK    6  A    between atoms: C_17  and  C_18
REMARK                            x       y       z     vdW  Elec       q    Type
REMARK                         _______ _______ _______ _____ _____    ______ ____
ROOT
ATOM      1  C   UNL     1       3.437   7.506  17.173  0.00  0.00    +0.000 C 
ENDROOT
BRANCH   1   8
ATOM      2  O   UNL     1       1.668   9.860  22.237  0.00  0.00    +0.000 OA
ATOM      3  C   UNL     1       0.704  10.039  21.502  0.00  0.00    +0.000 C 
ATOM      4  N   UNL     1       0.461   9.407  20.300  0.00  0.00    +0.000 N 
ATOM      5  C   UNL     1       1.314   8.464  19.784  0.00  0.00    +0.000 A 
ATOM      6  C   UNL     1       1.963   7.407  20.460  0.00  0.00    +0.000 A 
ATOM      7  C   UNL     1       2.694   6.765  19.489  0.00  0.00    +0.000 A 
ATOM      8  N   UNL     1       2.583   7.548  18.368  0.00  0.00    +0.000 N 
ATOM      9  N   UNL     1       1.586   8.456  18.476  0.00  0.00    +0.000 NA
ATOM     10  H   UNL     1      -0.074   9.896  19.597  0.00  0.00    +0.000 HD
BRANCH   3  11
ATOM     11  C   UNL     1      -0.284  11.095  21.842  0.00  0.00    +0.000 A 
ATOM     12  C   UNL     1      -0.361  12.247  21.052  0.00  0.00    +0.000 A 
ATOM     13  C   UNL     1      -1.285  13.246  21.368  0.00  0.00    +0.000 A 
ATOM     14  C   UNL     1      -2.122  13.097  22.476  0.00  0.00    +0.000 A 
ATOM     15  C   UNL     1      -2.042  11.951  23.266  0.00  0.00    +0.000 A 
ATOM     16  C   UNL     1      -1.124  10.949  22.955  0.00  0.00    +0.000 A 
ENDBRANCH   3  11
ENDBRANCH   1   8
BRANCH   1  17
ATOM     17  C   UNL     1       4.642   6.595  17.363  0.00  0.00    +0.000 A 
ATOM     18  C   UNL     1       5.850   7.153  17.847  0.00  0.00    +0.000 A 
ATOM     19  C   UNL     1       6.999   6.382  18.004  0.00  0.00    +0.000 A 
ATOM     20 CL   UNL     1       8.441   7.101  18.603  0.00  0.00    +0.000 Cl
ATOM     21  C   UNL     1       6.982   5.040  17.676  0.00  0.00    +0.000 A 
ATOM     22  C   UNL     1       5.796   4.458  17.229  0.00  0.00    +0.000 A 
ATOM     23  C   UNL     1       4.607   5.206  17.125  0.00  0.00    +0.000 A 
BRANCH  23  24
ATOM     24  O   UNL     1       3.392   4.621  16.828  0.00  0.00    +0.000 OA
BRANCH  24  25
ATOM     25  C   UNL     1       3.229   3.288  17.348  0.00  0.00    +0.000 C 
BRANCH  25  26
ATOM     26  C   UNL     1       2.611   3.246  18.725  0.00  0.00    +0.000 A 
ATOM     27  C   UNL     1       1.243   3.452  18.924  0.00  0.00    +0.000 A 
ATOM     28  C   UNL     1       0.697   3.362  20.206  0.00  0.00    +0.000 A 
ATOM     29  C   UNL     1       1.508   3.050  21.298  0.00  0.00    +0.000 A 
ATOM     30  C   UNL     1       2.866   2.811  21.109  0.00  0.00    +0.000 A 
ATOM     31  C   UNL     1       3.412   2.899  19.828  0.00  0.00    +0.000 A 
ENDBRANCH  25  26
ENDBRANCH  24  25
ENDBRANCH  23  24
ENDBRANCH   1  17
TORSDOF 6
ENDMDL
MODEL 7
REMARK VINA RESULT:      -8.6      1.359      1.874
REMARK  Name = 
REMARK  6 active torsions:
REMARK  status: ('A' for Active; 'I' for Inactive)
REMARK    1  A    between atoms: C_2  and  C_25
REMARK    2  A    between atoms: N_7  and  C_8
REMARK    3  A    between atoms: C_8  and  C_9
REMARK    4  A    between atoms: C_15  and  O_16
REMARK    5  A    between atoms: O_16  and  C_17
REMARK    6  A    between atoms: C_17  and  C_18
REMARK                            x       y       z     vdW  Elec       q    Type
REMARK                         _______ _______ _______ _____ _____    ______ ____
ROOT
ATOM      1  C   UNL     1       2.795   6.458  19.584  0.00  0.00    +0.000 C 
ENDROOT
BRANCH   1   8
ATOM      2  O   UNL     1      -1.248  10.033  17.307  0.00  0.00    +0.000 OA
ATOM      3  C   UNL     1      -1.091  10.483  18.436  0.00  0.00    +0.000 C 
ATOM      4  N   UNL     1      -0.037  10.218  19.285  0.00  0.00    +0.000 N 
ATOM      5  C   UNL     1       0.996   9.387  18.931  0.00  0.00    +0.000 A 
ATOM      6  C   UNL     1       1.685   9.322  17.700  0.00  0.00    +0.000 A 
ATOM      7  C   UNL     1       2.620   8.328  17.872  0.00  0.00    +0.000 A 
ATOM      8  N   UNL     1       2.332   7.761  19.087  0.00  0.00    +0.000 N 
ATOM      9  N   UNL     1       1.494   8.526  19.823  0.00  0.00    +0.000 NA
ATOM     10  H   UNL     1      -0.195  10.264  20.281  0.00  0.00    +0.000 HD
BRANCH   3  11
ATOM     11  C   UNL     1      -2.155  11.329  19.036  0.00  0.00    +0.000 A 
ATOM     12  C   UNL     1      -3.432  11.339  18.464  0.00  0.00    +0.000 A 
ATOM     13  C   UNL     1      -4.437  12.134  19.020  0.00  0.00    +0.000 A 
ATOM     14  C   UNL     1      -4.162  12.924  20.140  0.00  0.00    +0.000 A 
ATOM     15  C   UNL     1      -2.888  12.917  20.707  0.00  0.00    +0.000 A 
ATOM     16  C   UNL     1      -1.882  12.124  20.158  0.00  0.00    +0.000 A 
ENDBRANCH   3  11
ENDBRANCH   1   8
BRANCH   1  17
ATOM     17  C   UNL     1       3.826   5.825  18.660  0.00  0.00    +0.000 A 
ATOM     18  C   UNL     1       5.201   6.020  18.936  0.00  0.00    +0.000 A 
ATOM     19  C   UNL     1       6.192   5.503  18.107  0.00  0.00    +0.000 A 
ATOM     20 CL   UNL     1       7.849   5.758  18.485  0.00  0.00    +0.000 Cl
ATOM     21  C   UNL     1       5.846   4.785  16.977  0.00  0.00    +0.000 A 
ATOM     22  C   UNL     1       4.499   4.549  16.702  0.00  0.00    +0.000 A 
ATOM     23  C   UNL     1       3.484   5.009  17.563  0.00  0.00    +0.000 A 
BRANCH  23  24
ATOM     24  O   UNL     1       2.159   4.663  17.390  0.00  0.00    +0.000 OA
BRANCH  24  25
ATOM     25  C   UNL     1       1.844   3.305  17.754  0.00  0.00    +0.000 C 
BRANCH  25  26
ATOM     26  C   UNL     1       2.013   3.019  19.227  0.00  0.00    +0.000 A 
ATOM     27  C   UNL     1       0.967   3.199  20.136  0.00  0.00    +0.000 A 
ATOM     28  C   UNL     1       1.144   2.882  21.485  0.00  0.00    +0.000 A 
ATOM     29  C   UNL     1       2.362   2.369  21.935  0.00  0.00    +0.000 A 
ATOM     30  C   UNL     1       3.401   2.157  21.035  0.00  0.00    +0.000 A 
ATOM     31  C   UNL     1       3.225   2.471  19.687  0.00  0.00    +0.000 A 
ENDBRANCH  25  26
ENDBRANCH  24  25
ENDBRANCH  23  24
ENDBRANCH   1  17
TORSDOF 6
ENDMDL
MODEL 8
REMARK VINA RESULT:      -8.6      1.422      1.985
REMARK  Name = 
REMARK  6 active torsions:
REMARK  status: ('A' for Active; 'I' for Inactive)
REMARK    1  A    between atoms: C_2  and  C_25
REMARK    2  A    between atoms: N_7  and  C_8
REMARK    3  A    between atoms: C_8  and  C_9
REMARK    4  A    between atoms: C_15  and  O_16
REMARK    5  A    between atoms: O_16  and  C_17
REMARK    6  A    between atoms: C_17  and  C_18
REMARK                            x       y       z     vdW  Elec       q    Type
REMARK                         _______ _______ _______ _____ _____    ______ ____
ROOT
ATOM      1  C   UNL     1       3.186   5.418  17.527  0.00  0.00    +0.000 C 
ENDROOT
BRANCH   1   8
ATOM      2  O   UNL     1      -0.156  10.108  18.595  0.00  0.00    +0.000 OA
ATOM      3  C   UNL     1       0.313   9.851  19.698  0.00  0.00    +0.000 C 
ATOM      4  N   UNL     1       1.401   9.045  19.958  0.00  0.00    +0.000 N 
ATOM      5  C   UNL     1       2.106   8.422  18.957  0.00  0.00    +0.000 A 
ATOM      6  C   UNL     1       2.519   8.954  17.716  0.00  0.00    +0.000 A 
ATOM      7  C   UNL     1       3.185   7.924  17.096  0.00  0.00    +0.000 A 
ATOM      8  N   UNL     1       2.988   6.827  17.896  0.00  0.00    +0.000 N 
ATOM      9  N   UNL     1       2.522   7.164  19.120  0.00  0.00    +0.000 NA
ATOM     10  H   UNL     1       1.444   8.561  20.843  0.00  0.00    +0.000 HD
BRANCH   3  11
ATOM     11  C   UNL     1      -0.373  10.356  20.916  0.00  0.00    +0.000 A 
ATOM     12  C   UNL     1      -1.131  11.530  20.843  0.00  0.00    +0.000 A 
ATOM     13  C   UNL     1      -1.775  12.012  21.985  0.00  0.00    +0.000 A 
ATOM     14  C   UNL     1      -1.654  11.328  23.196  0.00  0.00    +0.000 A 
ATOM     15  C   UNL     1      -0.895  10.160  23.269  0.00  0.00    +0.000 A 
ATOM     16  C   UNL     1      -0.251   9.672  22.133  0.00  0.00    +0.000 A 
ENDBRANCH   3  11
ENDBRANCH   1   8
BRANCH   1  17
ATOM     17  C   UNL     1       4.647   5.103  17.235  0.00  0.00    +0.000 A 
ATOM     18  C   UNL     1       5.118   5.221  15.905  0.00  0.00    +0.000 A 
ATOM     19  C   UNL     1       6.431   4.908  15.565  0.00  0.00    +0.000 A 
ATOM     20 CL   UNL     1       6.961   5.073  13.938  0.00  0.00    +0.000 Cl
ATOM     21  C   UNL     1       7.310   4.462  16.534  0.00  0.00    +0.000 A 
ATOM     22  C   UNL     1       6.881   4.370  17.858  0.00  0.00    +0.000 A 
ATOM     23  C   UNL     1       5.575   4.743  18.233  0.00  0.00    +0.000 A 
BRANCH  23  24
ATOM     24  O   UNL     1       5.176   4.801  19.552  0.00  0.00    +0.000 OA
BRANCH  24  25
ATOM     25  C   UNL     1       4.804   3.530  20.120  0.00  0.00    +0.000 C 
BRANCH  25  26
ATOM     26  C   UNL     1       3.330   3.225  20.009  0.00  0.00    +0.000 A 
ATOM     27  C   UNL     1       2.375   3.929  20.748  0.00  0.00    +0.000 A 
ATOM     28  C   UNL     1       1.016   3.651  20.587  0.00  0.00    +0.000 A 
ATOM     29  C   UNL     1       0.597   2.680  19.677  0.00  0.00    +0.000 A 
ATOM     30  C   UNL     1       1.535   1.994  18.913  0.00  0.00    +0.000 A 
ATOM     31  C   UNL     1       2.893   2.271  19.071  0.00  0.00    +0.000 A 
ENDBRANCH  25  26
ENDBRANCH  24  25
ENDBRANCH  23  24
ENDBRANCH   1  17
TORSDOF 6
ENDMDL
MODEL 9
REMARK VINA RESULT:      -8.6      4.479      6.841
REMARK  Name = 
REMARK  6 active torsions:
REMARK  status: ('A' for Active; 'I' for Inactive)
REMARK    1  A    between atoms: C_2  and  C_25
REMARK    2  A    between atoms: N_7  and  C_8
REMARK    3  A    between atoms: C_8  and  C_9
REMARK    4  A    between atoms: C_15  and  O_16
REMARK    5  A    between atoms: O_16  and  C_17
REMARK    6  A    between atoms: C_17  and  C_18
REMARK                            x       y       z     vdW  Elec       q    Type
REMARK                         _______ _______ _______ _____ _____    ______ ____
ROOT
ATOM      1  C   UNL     1       5.751   4.803  18.827  0.00  0.00    +0.000 C 
ENDROOT
BRANCH   1   8
ATOM      2  O   UNL     1       7.831  10.158  17.683  0.00  0.00    +0.000 OA
ATOM      3  C   UNL     1       8.668   9.699  18.452  0.00  0.00    +0.000 C 
ATOM      4  N   UNL     1       8.836   8.370  18.782  0.00  0.00    +0.000 N 
ATOM      5  C   UNL     1       8.047   7.380  18.254  0.00  0.00    +0.000 A 
ATOM      6  C   UNL     1       7.620   7.220  16.917  0.00  0.00    +0.000 A 
ATOM      7  C   UNL     1       6.858   6.076  16.925  0.00  0.00    +0.000 A 
ATOM      8  N   UNL     1       6.734   5.728  18.246  0.00  0.00    +0.000 N 
ATOM      9  N   UNL     1       7.619   6.383  19.033  0.00  0.00    +0.000 NA
ATOM     10  H   UNL     1       9.217   8.142  19.689  0.00  0.00    +0.000 HD
BRANCH   3  11
ATOM     11  C   UNL     1       9.555  10.627  19.200  0.00  0.00    +0.000 A 
ATOM     12  C   UNL     1      10.739  11.077  18.606  0.00  0.00    +0.000 A 
ATOM     13  C   UNL     1      11.580  11.947  19.305  0.00  0.00    +0.000 A 
ATOM     14  C   UNL     1      11.242  12.356  20.596  0.00  0.00    +0.000 A 
ATOM     15  C   UNL     1      10.064  11.903  21.189  0.00  0.00    +0.000 A 
ATOM     16  C   UNL     1       9.220  11.038  20.497  0.00  0.00    +0.000 A 
ENDBRANCH   3  11
ENDBRANCH   1   8
BRANCH   1  17
ATOM     17  C   UNL     1       4.328   5.144  18.409  0.00  0.00    +0.000 A 
ATOM     18  C   UNL     1       3.839   6.451  18.654  0.00  0.00    +0.000 A 
ATOM     19  C   UNL     1       2.534   6.814  18.333  0.00  0.00    +0.000 A 
ATOM     20 CL   UNL     1       1.986   8.414  18.642  0.00  0.00    +0.000 Cl
ATOM     21  C   UNL     1       1.676   5.889  17.769  0.00  0.00    +0.000 A 
ATOM     22  C   UNL     1       2.143   4.606  17.485  0.00  0.00    +0.000 A 
ATOM     23  C   UNL     1       3.478   4.238  17.743  0.00  0.00    +0.000 A 
BRANCH  23  24
ATOM     24  O   UNL     1       4.000   3.026  17.337  0.00  0.00    +0.000 OA
BRANCH  24  25
ATOM     25  C   UNL     1       3.463   1.883  18.029  0.00  0.00    +0.000 C 
BRANCH  25  26
ATOM     26  C   UNL     1       2.698   2.238  19.282  0.00  0.00    +0.000 A 
ATOM     27  C   UNL     1       1.304   2.329  19.292  0.00  0.00    +0.000 A 
ATOM     28  C   UNL     1       0.625   2.615  20.478  0.00  0.00    +0.000 A 
ATOM     29  C   UNL     1       1.331   2.798  21.668  0.00  0.00    +0.000 A 
ATOM     30  C   UNL     1       2.717   2.679  21.678  0.00  0.00    +0.000 A 
ATOM     31  C   UNL     1       3.396   2.391  20.494  0.00  0.00    +0.000 A 
ENDBRANCH  25  26
ENDBRANCH  24  25
ENDBRANCH  23  24
ENDBRANCH   1  17
TORSDOF 6
ENDMDL
