MODEL 1
REMARK VINA RESULT:      -8.1      0.000      0.000
REMARK  Name = 
REMARK  6 active torsions:
REMARK  status: ('A' for Active; 'I' for Inactive)
REMARK    1  A    between atoms: C_2  and  C_7
REMARK    2  A    between atoms: N_3  and  C_4
REMARK    3  A    between atoms: C_10  and  C_11
REMARK    4  A    between atoms: N_16  and  C_17
REMARK    5  A    between atoms: C_17  and  C_18
REMARK    6  A    between atoms: C_18  and  C_19
REMARK                            x       y       z     vdW  Elec       q    Type
REMARK                         _______ _______ _______ _____ _____    ______ ____
ROOT
ATOM      1  C   UNL     1       1.187   8.768  20.925  0.00  0.00    +0.000 A 
ATOM      2  C   UNL     1       1.372   8.970  22.291  0.00  0.00    +0.000 A 
ATOM      3  N   UNL     1       0.701  10.070  22.760  0.00  0.00    +0.000 NA
ATOM      4  C   UNL     1       0.087  10.540  21.696  0.00  0.00    +0.000 A 
ATOM      5  C   UNL     1      -0.795  11.700  21.632  0.00  0.00    +0.000 A 
ATOM      6  N   UNL     1      -0.993  12.500  22.739  0.00  0.00    +0.000 N 
ATOM      7  N   UNL     1      -1.406  11.978  20.500  0.00  0.00    +0.000 NA
ATOM      8  C   UNL     1      -1.171  11.175  19.400  0.00  0.00    +0.000 A 
ATOM      9  C   UNL     1      -0.363  10.105  19.403  0.00  0.00    +0.000 A 
ATOM     10  N   UNL     1       0.297   9.773  20.575  0.00  0.00    +0.000 N 
ATOM     11  H   UNL     1      -0.507  12.176  23.572  0.00  0.00    +0.000 HD
ENDROOT
BRANCH   1  15
ATOM     12  C   UNL     1       2.959   5.754  18.419  0.00  0.00    +0.000 A 
ATOM     13  C   UNL     1       2.448   5.424  19.677  0.00  0.00    +0.000 A 
ATOM     14  C   UNL     1       1.858   6.413  20.480  0.00  0.00    +0.000 A 
ATOM     15  C   UNL     1       1.769   7.746  20.046  0.00  0.00    +0.000 A 
ATOM     16  C   UNL     1       2.299   8.064  18.789  0.00  0.00    +0.000 A 
ATOM     17  C   UNL     1       2.867   7.077  17.974  0.00  0.00    +0.000 A 
BRANCH  12  19
ATOM     18  O   UNL     1       2.959   3.732  17.213  0.00  0.00    +0.000 OA
ATOM     19  C   UNL     1       3.580   4.749  17.509  0.00  0.00    +0.000 C 
ATOM     20  N   UNL     1       4.842   5.045  17.028  0.00  0.00    +0.000 N 
ATOM     21  H   UNL     1       5.255   5.947  17.219  0.00  0.00    +0.000 HD
BRANCH  20  22
ATOM     22  C   UNL     1       5.550   4.155  16.162  0.00  0.00    +0.000 C 
ATOM     23  C   UNL     1       5.552   4.356  14.673  0.00  0.00    +0.000 C 
ATOM     24  C   UNL     1       6.803   4.608  15.463  0.00  0.00    +0.000 C 
ENDBRANCH  20  22
ENDBRANCH  12  19
ENDBRANCH   1  15
BRANCH   6  25
ATOM     25  C   UNL     1      -2.202  13.275  22.946  0.00  0.00    +0.000 C 
BRANCH  25  26
ATOM     26  C   UNL     1      -3.324  12.379  23.442  0.00  0.00    +0.000 C 
BRANCH  26  27
ATOM     27  C   UNL     1      -4.154  13.069  24.500  0.00  0.00    +0.000 C 
ATOM     28  F   UNL     1      -3.443  13.942  25.241  0.00  0.00    +0.000 F 
ATOM     29  F   UNL     1      -5.180  13.748  23.941  0.00  0.00    +0.000 F 
ATOM     30  F   UNL     1      -4.690  12.162  25.349  0.00  0.00    +0.000 F 
ENDBRANCH  26  27
ENDBRANCH  25  26
ENDBRANCH   6  25
TORSDOF 6
ENDMDL
MODEL 2
REMARK VINA RESULT:      -8.0      0.090      1.165
REMARK  Name = 
REMARK  6 active torsions:
REMARK  status: ('A' for Active; 'I' for Inactive)
REMARK    1  A    between atoms: C_2  and  C_7
REMARK    2  A    between atoms: N_3  and  C_4
REMARK    3  A    between atoms: C_10  and  C_11
REMARK    4  A    between atoms: N_16  and  C_17
REMARK    5  A    between atoms: C_17  and  C_18
REMARK    6  A    between atoms: C_18  and  C_19
REMARK                            x       y       z     vdW  Elec       q    Type
REMARK                         _______ _______ _______ _____ _____    ______ ____
ROOT
ATOM      1  C   UNL     1       1.215   8.773  20.975  0.00  0.00    +0.000 A 
ATOM      2  C   UNL     1       1.371   8.964  22.346  0.00  0.00    +0.000 A 
ATOM      3  N   UNL     1       0.685  10.058  22.810  0.00  0.00    +0.000 NA
ATOM      4  C   UNL     1       0.090  10.533  21.737  0.00  0.00    +0.000 A 
ATOM      5  C   UNL     1      -0.795  11.689  21.663  0.00  0.00    +0.000 A 
ATOM      6  N   UNL     1      -1.020  12.480  22.773  0.00  0.00    +0.000 N 
ATOM      7  N   UNL     1      -1.384  11.973  20.522  0.00  0.00    +0.000 NA
ATOM      8  C   UNL     1      -1.123  11.180  19.420  0.00  0.00    +0.000 A 
ATOM      9  C   UNL     1      -0.310  10.115  19.432  0.00  0.00    +0.000 A 
ATOM     10  N   UNL     1       0.328   9.776  20.615  0.00  0.00    +0.000 N 
ATOM     11  H   UNL     1      -0.549  12.152  23.613  0.00  0.00    +0.000 HD
ENDROOT
BRANCH   1  15
ATOM     12  C   UNL     1       2.919   5.824  18.346  0.00  0.00    +0.000 A 
ATOM     13  C   UNL     1       2.847   7.166  17.960  0.00  0.00    +0.000 A 
ATOM     14  C   UNL     1       2.303   8.122  18.833  0.00  0.00    +0.000 A 
ATOM     15  C   UNL     1       1.820   7.760  20.101  0.00  0.00    +0.000 A 
ATOM     16  C   UNL     1       1.887   6.409  20.468  0.00  0.00    +0.000 A 
ATOM     17  C   UNL     1       2.450   5.455  19.611  0.00  0.00    +0.000 A 
BRANCH  12  19
ATOM     18  O   UNL     1       2.880   3.722  17.287  0.00  0.00    +0.000 OA
ATOM     19  C   UNL     1       3.503   4.763  17.476  0.00  0.00    +0.000 C 
ATOM     20  N   UNL     1       4.732   5.036  16.906  0.00  0.00    +0.000 N 
ATOM     21  H   UNL     1       5.143   5.953  17.010  0.00  0.00    +0.000 HD
BRANCH  20  22
ATOM     22  C   UNL     1       5.403   4.093  16.067  0.00  0.00    +0.000 C 
ATOM     23  C   UNL     1       5.565   4.341  14.593  0.00  0.00    +0.000 C 
ATOM     24  C   UNL     1       6.760   4.411  15.499  0.00  0.00    +0.000 C 
ENDBRANCH  20  22
ENDBRANCH  12  19
ENDBRANCH   1  15
BRANCH   6  25
ATOM     25  C   UNL     1      -2.236  13.248  22.961  0.00  0.00    +0.000 C 
BRANCH  25  26
ATOM     26  C   UNL     1      -3.361  12.344  23.436  0.00  0.00    +0.000 C 
BRANCH  26  27
ATOM     27  C   UNL     1      -4.221  13.032  24.472  0.00  0.00    +0.000 C 
ATOM     28  F   UNL     1      -5.278  13.674  23.937  0.00  0.00    +0.000 F 
ATOM     29  F   UNL     1      -4.695  12.143  25.373  0.00  0.00    +0.000 F 
ATOM     30  F   UNL     1      -3.497  13.947  25.157  0.00  0.00    +0.000 F 
ENDBRANCH  26  27
ENDBRANCH  25  26
ENDBRANCH   6  25
TORSDOF 6
ENDMDL
MODEL 3
REMARK VINA RESULT:      -7.8      1.039      1.816
REMARK  Name = 
REMARK  6 active torsions:
REMARK  status: ('A' for Active; 'I' for Inactive)
REMARK    1  A    between atoms: C_2  and  C_7
REMARK    2  A    between atoms: N_3  and  C_4
REMARK    3  A    between atoms: C_10  and  C_11
REMARK    4  A    between atoms: N_16  and  C_17
REMARK    5  A    between atoms: C_17  and  C_18
REMARK    6  A    between atoms: C_18  and  C_19
REMARK                            x       y       z     vdW  Elec       q    Type
REMARK                         _______ _______ _______ _____ _____    ______ ____
ROOT
ATOM      1  C   UNL     1       1.140   9.237  19.482  0.00  0.00    +0.000 A 
ATOM      2  C   UNL     1       0.473  10.226  18.764  0.00  0.00    +0.000 A 
ATOM      3  N   UNL     1      -0.324  11.012  19.557  0.00  0.00    +0.000 NA
ATOM      4  C   UNL     1      -0.137  10.527  20.766  0.00  0.00    +0.000 A 
ATOM      5  C   UNL     1      -0.731  11.010  22.007  0.00  0.00    +0.000 A 
ATOM      6  N   UNL     1      -1.667  12.025  21.995  0.00  0.00    +0.000 N 
ATOM      7  N   UNL     1      -0.362  10.467  23.147  0.00  0.00    +0.000 NA
ATOM      8  C   UNL     1       0.559   9.437  23.130  0.00  0.00    +0.000 A 
ATOM      9  C   UNL     1       1.126   8.949  22.017  0.00  0.00    +0.000 A 
ATOM     10  N   UNL     1       0.770   9.495  20.793  0.00  0.00    +0.000 N 
ATOM     11  H   UNL     1      -1.853  12.402  21.068  0.00  0.00    +0.000 HD
ENDROOT
BRANCH   1  15
ATOM     12  C   UNL     1       3.810   6.138  18.148  0.00  0.00    +0.000 A 
ATOM     13  C   UNL     1       3.095   5.998  19.341  0.00  0.00    +0.000 A 
ATOM     14  C   UNL     1       2.215   7.008  19.758  0.00  0.00    +0.000 A 
ATOM     15  C   UNL     1       2.033   8.176  18.999  0.00  0.00    +0.000 A 
ATOM     16  C   UNL     1       2.768   8.309  17.813  0.00  0.00    +0.000 A 
ATOM     17  C   UNL     1       3.629   7.293  17.380  0.00  0.00    +0.000 A 
BRANCH  12  19
ATOM     18  O   UNL     1       5.100   4.183  18.379  0.00  0.00    +0.000 OA
ATOM     19  C   UNL     1       4.745   5.095  17.638  0.00  0.00    +0.000 C 
ATOM     20  N   UNL     1       5.145   5.213  16.320  0.00  0.00    +0.000 N 
ATOM     21  H   UNL     1       4.732   5.921  15.730  0.00  0.00    +0.000 HD
BRANCH  20  22
ATOM     22  C   UNL     1       6.053   4.287  15.719  0.00  0.00    +0.000 C 
ATOM     23  C   UNL     1       5.929   3.907  14.270  0.00  0.00    +0.000 C 
ATOM     24  C   UNL     1       7.077   4.760  14.723  0.00  0.00    +0.000 C 
ENDBRANCH  20  22
ENDBRANCH  12  19
ENDBRANCH   1  15
BRANCH   6  25
ATOM     25  C   UNL     1      -1.877  12.918  23.119  0.00  0.00    +0.000 C 
BRANCH  25  26
ATOM     26  C   UNL     1      -3.263  13.537  23.048  0.00  0.00    +0.000 C 
BRANCH  26  27
ATOM     27  C   UNL     1      -4.034  13.311  24.328  0.00  0.00    +0.000 C 
ATOM     28  F   UNL     1      -3.499  13.954  25.385  0.00  0.00    +0.000 F 
ATOM     29  F   UNL     1      -5.314  13.727  24.201  0.00  0.00    +0.000 F 
ATOM     30  F   UNL     1      -4.070  11.994  24.634  0.00  0.00    +0.000 F 
ENDBRANCH  26  27
ENDBRANCH  25  26
ENDBRANCH   6  25
TORSDOF 6
ENDMDL
MODEL 4
REMARK VINA RESULT:      -7.7      1.106      2.092
REMARK  Name = 
REMARK  6 active torsions:
REMARK  status: ('A' for Active; 'I' for Inactive)
REMARK    1  A    between atoms: C_2  and  C_7
REMARK    2  A    between atoms: N_3  and  C_4
REMARK    3  A    between atoms: C_10  and  C_11
REMARK    4  A    between atoms: N_16  and  C_17
REMARK    5  A    between atoms: C_17  and  C_18
REMARK    6  A    between atoms: C_18  and  C_19
REMARK                            x       y       z     vdW  Elec       q    Type
REMARK                         _______ _______ _______ _____ _____    ______ ____
ROOT
ATOM      1  C   UNL     1       1.053   9.319  19.590  0.00  0.00    +0.000 A 
ATOM      2  C   UNL     1       0.373  10.309  18.885  0.00  0.00    +0.000 A 
ATOM      3  N   UNL     1      -0.431  11.076  19.689  0.00  0.00    +0.000 NA
ATOM      4  C   UNL     1      -0.236  10.578  20.892  0.00  0.00    +0.000 A 
ATOM      5  C   UNL     1      -0.833  11.039  22.140  0.00  0.00    +0.000 A 
ATOM      6  N   UNL     1      -1.781  12.043  22.142  0.00  0.00    +0.000 N 
ATOM      7  N   UNL     1      -0.456  10.486  23.272  0.00  0.00    +0.000 NA
ATOM      8  C   UNL     1       0.476   9.466  23.240  0.00  0.00    +0.000 A 
ATOM      9  C   UNL     1       1.046   8.999  22.121  0.00  0.00    +0.000 A 
ATOM     10  N   UNL     1       0.682   9.556  20.905  0.00  0.00    +0.000 N 
ATOM     11  H   UNL     1      -1.973  12.429  21.220  0.00  0.00    +0.000 HD
ENDROOT
BRANCH   1  15
ATOM     12  C   UNL     1       3.646   6.250  18.051  0.00  0.00    +0.000 A 
ATOM     13  C   UNL     1       3.462   7.445  17.350  0.00  0.00    +0.000 A 
ATOM     14  C   UNL     1       2.626   8.446  17.869  0.00  0.00    +0.000 A 
ATOM     15  C   UNL     1       1.957   8.274  19.092  0.00  0.00    +0.000 A 
ATOM     16  C   UNL     1       2.140   7.066  19.777  0.00  0.00    +0.000 A 
ATOM     17  C   UNL     1       2.992   6.074  19.275  0.00  0.00    +0.000 A 
BRANCH  12  19
ATOM     18  O   UNL     1       4.771   4.196  18.294  0.00  0.00    +0.000 OA
ATOM     19  C   UNL     1       4.535   5.156  17.566  0.00  0.00    +0.000 C 
ATOM     20  N   UNL     1       5.034   5.286  16.283  0.00  0.00    +0.000 N 
ATOM     21  H   UNL     1       4.716   6.043  15.693  0.00  0.00    +0.000 HD
BRANCH  20  22
ATOM     22  C   UNL     1       5.910   4.314  15.709  0.00  0.00    +0.000 C 
ATOM     23  C   UNL     1       5.867   3.998  14.240  0.00  0.00    +0.000 C 
ATOM     24  C   UNL     1       7.039   4.742  14.810  0.00  0.00    +0.000 C 
ENDBRANCH  20  22
ENDBRANCH  12  19
ENDBRANCH   1  15
BRANCH   6  25
ATOM     25  C   UNL     1      -1.999  12.919  23.278  0.00  0.00    +0.000 C 
BRANCH  25  26
ATOM     26  C   UNL     1      -3.224  13.788  23.045  0.00  0.00    +0.000 C 
BRANCH  26  27
ATOM     27  C   UNL     1      -4.484  13.105  23.524  0.00  0.00    +0.000 C 
ATOM     28  F   UNL     1      -5.338  13.946  24.140  0.00  0.00    +0.000 F 
ATOM     29  F   UNL     1      -5.145  12.534  22.492  0.00  0.00    +0.000 F 
ATOM     30  F   UNL     1      -4.185  12.119  24.401  0.00  0.00    +0.000 F 
ENDBRANCH  26  27
ENDBRANCH  25  26
ENDBRANCH   6  25
TORSDOF 6
ENDMDL
MODEL 5
REMARK VINA RESULT:      -7.7      1.977      2.905
REMARK  Name = 
REMARK  6 active torsions:
REMARK  status: ('A' for Active; 'I' for Inactive)
REMARK    1  A    between atoms: C_2  and  C_7
REMARK    2  A    between atoms: N_3  and  C_4
REMARK    3  A    between atoms: C_10  and  C_11
REMARK    4  A    between atoms: N_16  and  C_17
REMARK    5  A    between atoms: C_17  and  C_18
REMARK    6  A    between atoms: C_18  and  C_19
REMARK                            x       y       z     vdW  Elec       q    Type
REMARK                         _______ _______ _______ _____ _____    ______ ____
ROOT
ATOM      1  C   UNL     1       2.481   7.089  19.112  0.00  0.00    +0.000 A 
ATOM      2  C   UNL     1       1.973   6.665  20.337  0.00  0.00    +0.000 A 
ATOM      3  N   UNL     1       1.258   7.642  20.982  0.00  0.00    +0.000 NA
ATOM      4  C   UNL     1       1.305   8.663  20.153  0.00  0.00    +0.000 A 
ATOM      5  C   UNL     1       0.683   9.969  20.333  0.00  0.00    +0.000 A 
ATOM      6  N   UNL     1       0.028  10.285  21.507  0.00  0.00    +0.000 N 
ATOM      7  N   UNL     1       0.751  10.850  19.358  0.00  0.00    +0.000 NA
ATOM      8  C   UNL     1       1.433  10.518  18.203  0.00  0.00    +0.000 A 
ATOM      9  C   UNL     1       2.031   9.337  17.992  0.00  0.00    +0.000 A 
ATOM     10  N   UNL     1       1.981   8.377  18.991  0.00  0.00    +0.000 N 
ATOM     11  H   UNL     1      -0.001   9.522  22.180  0.00  0.00    +0.000 HD
ENDROOT
BRANCH   1  15
ATOM     12  C   UNL     1       5.011   4.928  16.384  0.00  0.00    +0.000 A 
ATOM     13  C   UNL     1       4.083   4.253  17.183  0.00  0.00    +0.000 A 
ATOM     14  C   UNL     1       3.252   4.970  18.058  0.00  0.00    +0.000 A 
ATOM     15  C   UNL     1       3.331   6.368  18.155  0.00  0.00    +0.000 A 
ATOM     16  C   UNL     1       4.275   7.030  17.359  0.00  0.00    +0.000 A 
ATOM     17  C   UNL     1       5.090   6.322  16.467  0.00  0.00    +0.000 A 
BRANCH  12  19
ATOM     18  O   UNL     1       7.007   3.829  15.794  0.00  0.00    +0.000 OA
ATOM     19  C   UNL     1       5.909   4.229  15.420  0.00  0.00    +0.000 C 
ATOM     20  N   UNL     1       5.424   4.055  14.137  0.00  0.00    +0.000 N 
ATOM     21  H   UNL     1       4.471   4.308  13.920  0.00  0.00    +0.000 HD
BRANCH  20  22
ATOM     22  C   UNL     1       6.195   3.416  13.118  0.00  0.00    +0.000 C 
ATOM     23  C   UNL     1       5.623   3.168  11.750  0.00  0.00    +0.000 C 
ATOM     24  C   UNL     1       6.695   4.202  11.935  0.00  0.00    +0.000 C 
ENDBRANCH  20  22
ENDBRANCH  12  19
ENDBRANCH   1  15
BRANCH   6  25
ATOM     25  C   UNL     1      -1.046  11.258  21.573  0.00  0.00    +0.000 C 
BRANCH  25  26
ATOM     26  C   UNL     1      -1.416  11.536  23.021  0.00  0.00    +0.000 C 
BRANCH  26  27
ATOM     27  C   UNL     1      -2.579  12.497  23.118  0.00  0.00    +0.000 C 
ATOM     28  F   UNL     1      -2.261  13.647  23.746  0.00  0.00    +0.000 F 
ATOM     29  F   UNL     1      -3.044  12.817  21.890  0.00  0.00    +0.000 F 
ATOM     30  F   UNL     1      -3.603  11.935  23.800  0.00  0.00    +0.000 F 
ENDBRANCH  26  27
ENDBRANCH  25  26
ENDBRANCH   6  25
TORSDOF 6
ENDMDL
MODEL 6
REMARK VINA RESULT:      -7.6      1.050      1.483
REMARK  Name = 
REMARK  6 active torsions:
REMARK  status: ('A' for Active; 'I' for Inactive)
REMARK    1  A    between atoms: C_2  and  C_7
REMARK    2  A    between atoms: N_3  and  C_4
REMARK    3  A    between atoms: C_10  and  C_11
REMARK    4  A    between atoms: N_16  and  C_17
REMARK    5  A    between atoms: C_17  and  C_18
REMARK    6  A    between atoms: C_18  and  C_19
REMARK                            x       y       z     vdW  Elec       q    Type
REMARK                         _______ _______ _______ _____ _____    ______ ____
ROOT
ATOM      1  C   UNL     1       0.976   9.360  20.322  0.00  0.00    +0.000 A 
ATOM      2  C   UNL     1       1.118   9.825  21.627  0.00  0.00    +0.000 A 
ATOM      3  N   UNL     1       0.297  10.889  21.903  0.00  0.00    +0.000 NA
ATOM      4  C   UNL     1      -0.367  11.072  20.782  0.00  0.00    +0.000 A 
ATOM      5  C   UNL     1      -1.399  12.069  20.525  0.00  0.00    +0.000 A 
ATOM      6  N   UNL     1      -1.716  13.019  21.475  0.00  0.00    +0.000 N 
ATOM      7  N   UNL     1      -2.032  12.054  19.372  0.00  0.00    +0.000 NA
ATOM      8  C   UNL     1      -1.678  11.107  18.428  0.00  0.00    +0.000 A 
ATOM      9  C   UNL     1      -0.730  10.177  18.610  0.00  0.00    +0.000 A 
ATOM     10  N   UNL     1      -0.041  10.153  19.812  0.00  0.00    +0.000 N 
ATOM     11  H   UNL     1      -1.198  12.920  22.345  0.00  0.00    +0.000 HD
ENDROOT
BRANCH   1  15
ATOM     12  C   UNL     1       3.037   6.220  18.225  0.00  0.00    +0.000 A 
ATOM     13  C   UNL     1       2.884   7.482  17.645  0.00  0.00    +0.000 A 
ATOM     14  C   UNL     1       2.223   8.504  18.345  0.00  0.00    +0.000 A 
ATOM     15  C   UNL     1       1.701   8.287  19.631  0.00  0.00    +0.000 A 
ATOM     16  C   UNL     1       1.850   7.012  20.193  0.00  0.00    +0.000 A 
ATOM     17  C   UNL     1       2.529   5.996  19.509  0.00  0.00    +0.000 A 
BRANCH  12  19
ATOM     18  O   UNL     1       3.357   3.945  17.710  0.00  0.00    +0.000 OA
ATOM     19  C   UNL     1       3.745   5.097  17.544  0.00  0.00    +0.000 C 
ATOM     20  N   UNL     1       4.809   5.439  16.731  0.00  0.00    +0.000 N 
ATOM     21  H   UNL     1       5.011   6.412  16.548  0.00  0.00    +0.000 HD
BRANCH  20  22
ATOM     22  C   UNL     1       5.579   4.454  16.038  0.00  0.00    +0.000 C 
ATOM     23  C   UNL     1       5.653   4.440  14.537  0.00  0.00    +0.000 C 
ATOM     24  C   UNL     1       6.856   4.838  15.340  0.00  0.00    +0.000 C 
ENDBRANCH  20  22
ENDBRANCH  12  19
ENDBRANCH   1  15
BRANCH   6  25
ATOM     25  C   UNL     1      -3.023  13.645  21.560  0.00  0.00    +0.000 C 
BRANCH  25  26
ATOM     26  C   UNL     1      -3.984  12.757  22.331  0.00  0.00    +0.000 C 
BRANCH  26  27
ATOM     27  C   UNL     1      -3.461  12.451  23.716  0.00  0.00    +0.000 C 
ATOM     28  F   UNL     1      -2.598  11.416  23.737  0.00  0.00    +0.000 F 
ATOM     29  F   UNL     1      -2.826  13.524  24.240  0.00  0.00    +0.000 F 
ATOM     30  F   UNL     1      -4.481  12.144  24.550  0.00  0.00    +0.000 F 
ENDBRANCH  26  27
ENDBRANCH  25  26
ENDBRANCH   6  25
TORSDOF 6
ENDMDL
MODEL 7
REMARK VINA RESULT:      -7.6      1.044      1.280
REMARK  Name = 
REMARK  6 active torsions:
REMARK  status: ('A' for Active; 'I' for Inactive)
REMARK    1  A    between atoms: C_2  and  C_7
REMARK    2  A    between atoms: N_3  and  C_4
REMARK    3  A    between atoms: C_10  and  C_11
REMARK    4  A    between atoms: N_16  and  C_17
REMARK    5  A    between atoms: C_17  and  C_18
REMARK    6  A    between atoms: C_18  and  C_19
REMARK                            x       y       z     vdW  Elec       q    Type
REMARK                         _______ _______ _______ _____ _____    ______ ____
ROOT
ATOM      1  C   UNL     1       0.852   9.460  20.383  0.00  0.00    +0.000 A 
ATOM      2  C   UNL     1       1.054   9.954  21.670  0.00  0.00    +0.000 A 
ATOM      3  N   UNL     1       0.244  11.022  21.962  0.00  0.00    +0.000 NA
ATOM      4  C   UNL     1      -0.473  11.179  20.870  0.00  0.00    +0.000 A 
ATOM      5  C   UNL     1      -1.520  12.167  20.641  0.00  0.00    +0.000 A 
ATOM      6  N   UNL     1      -1.795  13.137  21.585  0.00  0.00    +0.000 N 
ATOM      7  N   UNL     1      -2.206  12.126  19.519  0.00  0.00    +0.000 NA
ATOM      8  C   UNL     1      -1.894  11.160  18.581  0.00  0.00    +0.000 A 
ATOM      9  C   UNL     1      -0.935  10.237  18.737  0.00  0.00    +0.000 A 
ATOM     10  N   UNL     1      -0.190  10.240  19.906  0.00  0.00    +0.000 N 
ATOM     11  H   UNL     1      -1.235  13.058  22.431  0.00  0.00    +0.000 HD
ENDROOT
BRANCH   1  15
ATOM     12  C   UNL     1       2.958   6.278  18.398  0.00  0.00    +0.000 A 
ATOM     13  C   UNL     1       2.446   6.098  19.686  0.00  0.00    +0.000 A 
ATOM     14  C   UNL     1       1.747   7.138  20.318  0.00  0.00    +0.000 A 
ATOM     15  C   UNL     1       1.548   8.374  19.682  0.00  0.00    +0.000 A 
ATOM     16  C   UNL     1       2.080   8.544  18.397  0.00  0.00    +0.000 A 
ATOM     17  C   UNL     1       2.757   7.502  17.752  0.00  0.00    +0.000 A 
BRANCH  12  19
ATOM     18  O   UNL     1       3.218   4.077  17.603  0.00  0.00    +0.000 OA
ATOM     19  C   UNL     1       3.693   5.208  17.663  0.00  0.00    +0.000 C 
ATOM     20  N   UNL     1       4.883   5.573  17.063  0.00  0.00    +0.000 N 
ATOM     21  H   UNL     1       5.166   6.543  17.055  0.00  0.00    +0.000 HD
BRANCH  20  22
ATOM     22  C   UNL     1       5.688   4.636  16.345  0.00  0.00    +0.000 C 
ATOM     23  C   UNL     1       5.625   4.545  14.846  0.00  0.00    +0.000 C 
ATOM     24  C   UNL     1       6.847   5.109  15.510  0.00  0.00    +0.000 C 
ENDBRANCH  20  22
ENDBRANCH  12  19
ENDBRANCH   1  15
BRANCH   6  25
ATOM     25  C   UNL     1      -3.098  13.762  21.717  0.00  0.00    +0.000 C 
BRANCH  25  26
ATOM     26  C   UNL     1      -4.062  12.823  22.423  0.00  0.00    +0.000 C 
BRANCH  26  27
ATOM     27  C   UNL     1      -3.580  12.482  23.815  0.00  0.00    +0.000 C 
ATOM     28  F   UNL     1      -4.579  12.124  24.645  0.00  0.00    +0.000 F 
ATOM     29  F   UNL     1      -2.691  11.464  23.781  0.00  0.00    +0.000 F 
ATOM     30  F   UNL     1      -2.952  13.543  24.372  0.00  0.00    +0.000 F 
ENDBRANCH  26  27
ENDBRANCH  25  26
ENDBRANCH   6  25
TORSDOF 6
ENDMDL
MODEL 8
REMARK VINA RESULT:      -7.6      1.085      1.891
REMARK  Name = 
REMARK  6 active torsions:
REMARK  status: ('A' for Active; 'I' for Inactive)
REMARK    1  A    between atoms: C_2  and  C_7
REMARK    2  A    between atoms: N_3  and  C_4
REMARK    3  A    between atoms: C_10  and  C_11
REMARK    4  A    between atoms: N_16  and  C_17
REMARK    5  A    between atoms: C_17  and  C_18
REMARK    6  A    between atoms: C_18  and  C_19
REMARK                            x       y       z     vdW  Elec       q    Type
REMARK                         _______ _______ _______ _____ _____    ______ ____
ROOT
ATOM      1  C   UNL     1       1.040   9.866  19.719  0.00  0.00    +0.000 A 
ATOM      2  C   UNL     1       0.798  11.102  19.126  0.00  0.00    +0.000 A 
ATOM      3  N   UNL     1       0.052  11.935  19.921  0.00  0.00    +0.000 NA
ATOM      4  C   UNL     1      -0.152  11.227  21.011  0.00  0.00    +0.000 A 
ATOM      5  C   UNL     1      -0.876  11.644  22.206  0.00  0.00    +0.000 A 
ATOM      6  N   UNL     1      -1.524  12.863  22.251  0.00  0.00    +0.000 N 
ATOM      7  N   UNL     1      -0.907  10.842  23.249  0.00  0.00    +0.000 NA
ATOM      8  C   UNL     1      -0.272   9.618  23.169  0.00  0.00    +0.000 A 
ATOM      9  C   UNL     1       0.398   9.182  22.092  0.00  0.00    +0.000 A 
ATOM     10  N   UNL     1       0.459   9.996  20.972  0.00  0.00    +0.000 N 
ATOM     11  H   UNL     1      -1.406  13.422  21.410  0.00  0.00    +0.000 HD
ENDROOT
BRANCH   1  15
ATOM     12  C   UNL     1       3.171   6.446  18.212  0.00  0.00    +0.000 A 
ATOM     13  C   UNL     1       2.647   6.444  19.507  0.00  0.00    +0.000 A 
ATOM     14  C   UNL     1       1.940   7.559  19.983  0.00  0.00    +0.000 A 
ATOM     15  C   UNL     1       1.745   8.695  19.180  0.00  0.00    +0.000 A 
ATOM     16  C   UNL     1       2.288   8.688  17.889  0.00  0.00    +0.000 A 
ATOM     17  C   UNL     1       2.974   7.569  17.401  0.00  0.00    +0.000 A 
BRANCH  12  19
ATOM     18  O   UNL     1       3.434   4.160  17.714  0.00  0.00    +0.000 OA
ATOM     19  C   UNL     1       3.914   5.287  17.638  0.00  0.00    +0.000 C 
ATOM     20  N   UNL     1       5.120   5.568  17.023  0.00  0.00    +0.000 N 
ATOM     21  H   UNL     1       5.409   6.528  16.895  0.00  0.00    +0.000 HD
BRANCH  20  22
ATOM     22  C   UNL     1       5.934   4.542  16.450  0.00  0.00    +0.000 C 
ATOM     23  C   UNL     1       5.747   4.106  15.024  0.00  0.00    +0.000 C 
ATOM     24  C   UNL     1       6.971   4.882  15.414  0.00  0.00    +0.000 C 
ENDBRANCH  20  22
ENDBRANCH  12  19
ENDBRANCH   1  15
BRANCH   6  25
ATOM     25  C   UNL     1      -1.763  13.583  23.488  0.00  0.00    +0.000 C 
BRANCH  25  26
ATOM     26  C   UNL     1      -3.189  14.106  23.525  0.00  0.00    +0.000 C 
BRANCH  26  27
ATOM     27  C   UNL     1      -4.188  12.977  23.636  0.00  0.00    +0.000 C 
ATOM     28  F   UNL     1      -4.518  12.446  22.442  0.00  0.00    +0.000 F 
ATOM     29  F   UNL     1      -3.704  11.979  24.408  0.00  0.00    +0.000 F 
ATOM     30  F   UNL     1      -5.332  13.411  24.214  0.00  0.00    +0.000 F 
ENDBRANCH  26  27
ENDBRANCH  25  26
ENDBRANCH   6  25
TORSDOF 6
ENDMDL
MODEL 9
REMARK VINA RESULT:      -7.5      6.155     10.784
REMARK  Name = 
REMARK  6 active torsions:
REMARK  status: ('A' for Active; 'I' for Inactive)
REMARK    1  A    between atoms: C_2  and  C_7
REMARK    2  A    between atoms: N_3  and  C_4
REMARK    3  A    between atoms: C_10  and  C_11
REMARK    4  A    between atoms: N_16  and  C_17
REMARK    5  A    between atoms: C_17  and  C_18
REMARK    6  A    between atoms: C_18  and  C_19
REMARK                            x       y       z     vdW  Elec       q    Type
REMARK                         _______ _______ _______ _____ _____    ______ ____
ROOT
ATOM      1  C   UNL     1       1.336   9.052  19.465  0.00  0.00    +0.000 A 
ATOM      2  C   UNL     1       1.809   9.373  18.195  0.00  0.00    +0.000 A 
ATOM      3  N   UNL     1       2.570   8.374  17.644  0.00  0.00    +0.000 NA
ATOM      4  C   UNL     1       2.555   7.428  18.559  0.00  0.00    +0.000 A 
ATOM      5  C   UNL     1       3.194   6.120  18.480  0.00  0.00    +0.000 A 
ATOM      6  N   UNL     1       3.993   5.787  17.404  0.00  0.00    +0.000 N 
ATOM      7  N   UNL     1       3.000   5.253  19.450  0.00  0.00    +0.000 NA
ATOM      8  C   UNL     1       2.215   5.620  20.527  0.00  0.00    +0.000 A 
ATOM      9  C   UNL     1       1.615   6.812  20.653  0.00  0.00    +0.000 A 
ATOM     10  N   UNL     1       1.789   7.755  19.652  0.00  0.00    +0.000 N 
ATOM     11  H   UNL     1       4.046   6.511  16.692  0.00  0.00    +0.000 HD
ENDROOT
BRANCH   1  15
ATOM     12  C   UNL     1      -0.930  11.502  22.180  0.00  0.00    +0.000 A 
ATOM     13  C   UNL     1      -0.758  11.887  20.847  0.00  0.00    +0.000 A 
ATOM     14  C   UNL     1      -0.030  11.072  19.966  0.00  0.00    +0.000 A 
ATOM     15  C   UNL     1       0.541   9.863  20.396  0.00  0.00    +0.000 A 
ATOM     16  C   UNL     1       0.372   9.497  21.738  0.00  0.00    +0.000 A 
ATOM     17  C   UNL     1      -0.374  10.295  22.615  0.00  0.00    +0.000 A 
BRANCH  12  19
ATOM     18  O   UNL     1      -1.190  13.290  23.688  0.00  0.00    +0.000 OA
ATOM     19  C   UNL     1      -1.708  12.311  23.161  0.00  0.00    +0.000 C 
ATOM     20  N   UNL     1      -3.008  11.906  23.406  0.00  0.00    +0.000 N 
ATOM     21  H   UNL     1      -3.413  11.159  22.860  0.00  0.00    +0.000 HD
BRANCH  20  22
ATOM     22  C   UNL     1      -3.850  12.587  24.338  0.00  0.00    +0.000 C 
ATOM     23  C   UNL     1      -4.590  13.836  23.948  0.00  0.00    +0.000 C 
ATOM     24  C   UNL     1      -5.346  12.559  24.175  0.00  0.00    +0.000 C 
ENDBRANCH  20  22
ENDBRANCH  12  19
ENDBRANCH   1  15
BRANCH   6  25
ATOM     25  C   UNL     1       4.192   4.419  16.963  0.00  0.00    +0.000 C 
BRANCH  25  26
ATOM     26  C   UNL     1       5.634   4.208  16.534  0.00  0.00    +0.000 C 
BRANCH  26  27
ATOM     27  C   UNL     1       5.839   4.584  15.084  0.00  0.00    +0.000 C 
ATOM     28  F   UNL     1       4.920   4.037  14.263  0.00  0.00    +0.000 F 
ATOM     29  F   UNL     1       5.786   5.925  14.921  0.00  0.00    +0.000 F 
ATOM     30  F   UNL     1       7.056   4.177  14.656  0.00  0.00    +0.000 F 
ENDBRANCH  26  27
ENDBRANCH  25  26
ENDBRANCH   6  25
TORSDOF 6
ENDMDL
