MODEL 1
REMARK VINA RESULT:      -7.3      0.000      0.000
REMARK  Name = 
REMARK  11 active torsions:
REMARK  status: ('A' for Active; 'I' for Inactive)
REMARK    1  A    between atoms: C_1  and  C_2
REMARK    2  A    between atoms: C_2  and  C_3
REMARK    3  A    between atoms: C_2  and  C_4
REMARK    4  A    between atoms: C_4  and  C_5
REMARK    5  A    between atoms: C_5  and  N_6
REMARK    6  A    between atoms: C_5  and  C_24
REMARK    7  A    between atoms: N_9  and  C_10
REMARK    8  A    between atoms: C_10  and  C_11
REMARK    9  A    between atoms: N_13  and  C_14
REMARK   10  A    between atoms: C_14  and  C_15
REMARK   11  A    between atoms: N_26  and  O_27
REMARK                            x       y       z     vdW  Elec       q    Type
REMARK                         _______ _______ _______ _____ _____    ______ ____
ROOT
ATOM      1  N   UNL     1       3.325   5.058  19.644  0.00  0.00    +0.000 N 
ATOM      2  C   UNL     1       2.191   5.613  20.164  0.00  0.00    +0.000 C 
ATOM      3  O   UNL     1       1.124   5.012  20.240  0.00  0.00    +0.000 OA
ATOM      4  N   UNL     1       2.370   6.908  20.559  0.00  0.00    +0.000 N 
ATOM      5  H   UNL     1       4.222   5.462  19.895  0.00  0.00    +0.000 HD
ATOM      6  H   UNL     1       3.136   7.411  20.138  0.00  0.00    +0.000 HD
ENDROOT
BRANCH   1   7
ATOM      7  C   UNL     1       3.332   3.683  19.130  0.00  0.00    +0.000 C 
BRANCH   7   8
ATOM      8  C   UNL     1       3.760   2.747  20.272  0.00  0.00    +0.000 C 
ATOM      9  O   UNL     1       3.052   2.508  21.252  0.00  0.00    +0.000 OA
ATOM     10  N   UNL     1       5.014   2.206  20.139  0.00  0.00    +0.000 N 
ATOM     11  H   UNL     1       5.655   2.377  19.374  0.00  0.00    +0.000 HD
BRANCH  10  12
ATOM     12  O   UNL     1       5.480   1.380  21.182  0.00  0.00    +0.000 OA
ATOM     13  H   UNL     1       5.071   1.789  21.975  0.00  0.00    +0.000 HD
ENDBRANCH  10  12
ENDBRANCH   7   8
BRANCH   7  14
ATOM     14  C   UNL     1       4.285   3.588  17.924  0.00  0.00    +0.000 C 
BRANCH  14  16
ATOM     15  C   UNL     1       6.681   4.472  17.728  0.00  0.00    +0.000 C 
ATOM     16  C   UNL     1       5.191   4.808  17.657  0.00  0.00    +0.000 C 
ATOM     17  C   UNL     1       4.873   5.394  16.278  0.00  0.00    +0.000 C 
ENDBRANCH  14  16
ENDBRANCH   7  14
ENDBRANCH   1   7
BRANCH   4  18
ATOM     18  C   UNL     1       1.248   7.700  21.033  0.00  0.00    +0.000 C 
BRANCH  18  19
ATOM     19  C   UNL     1       0.948   8.794  20.077  0.00  0.00    +0.000 A 
ATOM     20  C   UNL     1       0.011   9.803  20.156  0.00  0.00    +0.000 A 
ATOM     21  N   UNL     1       0.170  10.499  18.995  0.00  0.00    +0.000 N 
ATOM     22  N   UNL     1       1.143   9.960  18.234  0.00  0.00    +0.000 NA
ATOM     23  N   UNL     1       1.625   8.910  18.887  0.00  0.00    +0.000 NA
BRANCH  21  24
ATOM     24  C   UNL     1      -0.501  11.720  18.587  0.00  0.00    +0.000 C 
BRANCH  24  25
ATOM     25  C   UNL     1      -1.935  11.464  18.195  0.00  0.00    +0.000 A 
ATOM     26  C   UNL     1      -2.243  10.824  16.984  0.00  0.00    +0.000 A 
ATOM     27  C   UNL     1      -3.572  10.649  16.590  0.00  0.00    +0.000 A 
ATOM     28  C   UNL     1      -4.608  11.103  17.405  0.00  0.00    +0.000 A 
ATOM     29  C   UNL     1      -4.312  11.718  18.619  0.00  0.00    +0.000 A 
ATOM     30 CL   UNL     1      -5.592  12.266  19.631  0.00  0.00    +0.000 Cl
ATOM     31  C   UNL     1      -2.987  11.900  19.017  0.00  0.00    +0.000 A 
ENDBRANCH  24  25
ENDBRANCH  21  24
ENDBRANCH  18  19
ENDBRANCH   4  18
TORSDOF 9
ENDMDL
MODEL 2
REMARK VINA RESULT:      -7.3      3.863      5.924
REMARK  Name = 
REMARK  11 active torsions:
REMARK  status: ('A' for Active; 'I' for Inactive)
REMARK    1  A    between atoms: C_1  and  C_2
REMARK    2  A    between atoms: C_2  and  C_3
REMARK    3  A    between atoms: C_2  and  C_4
REMARK    4  A    between atoms: C_4  and  C_5
REMARK    5  A    between atoms: C_5  and  N_6
REMARK    6  A    between atoms: C_5  and  C_24
REMARK    7  A    between atoms: N_9  and  C_10
REMARK    8  A    between atoms: C_10  and  C_11
REMARK    9  A    between atoms: N_13  and  C_14
REMARK   10  A    between atoms: C_14  and  C_15
REMARK   11  A    between atoms: N_26  and  O_27
REMARK                            x       y       z     vdW  Elec       q    Type
REMARK                         _______ _______ _______ _____ _____    ______ ____
ROOT
ATOM      1  N   UNL     1       5.882   3.759  16.463  0.00  0.00    +0.000 N 
ATOM      2  C   UNL     1       4.594   3.487  16.828  0.00  0.00    +0.000 C 
ATOM      3  O   UNL     1       3.652   4.228  16.567  0.00  0.00    +0.000 OA
ATOM      4  N   UNL     1       4.482   2.325  17.536  0.00  0.00    +0.000 N 
ATOM      5  H   UNL     1       6.545   2.992  16.414  0.00  0.00    +0.000 HD
ATOM      6  H   UNL     1       5.312   1.991  18.001  0.00  0.00    +0.000 HD
ENDROOT
BRANCH   1   7
ATOM      7  C   UNL     1       6.220   4.982  15.724  0.00  0.00    +0.000 C 
BRANCH   7   8
ATOM      8  C   UNL     1       6.642   4.581  14.301  0.00  0.00    +0.000 C 
ATOM      9  O   UNL     1       7.432   5.238  13.620  0.00  0.00    +0.000 OA
ATOM     10  N   UNL     1       6.054   3.439  13.821  0.00  0.00    +0.000 N 
ATOM     11  H   UNL     1       5.382   2.865  14.317  0.00  0.00    +0.000 HD
BRANCH  10  12
ATOM     12  O   UNL     1       6.365   3.051  12.501  0.00  0.00    +0.000 OA
ATOM     13  H   UNL     1       7.254   2.649  12.604  0.00  0.00    +0.000 HD
ENDBRANCH  10  12
ENDBRANCH   7   8
BRANCH   7  14
ATOM     14  C   UNL     1       7.341   5.737  16.462  0.00  0.00    +0.000 C 
BRANCH  14  16
ATOM     15  C   UNL     1       7.174   5.790  19.018  0.00  0.00    +0.000 C 
ATOM     16  C   UNL     1       6.930   6.545  17.710  0.00  0.00    +0.000 C 
ATOM     17  C   UNL     1       7.697   7.870  17.743  0.00  0.00    +0.000 C 
ENDBRANCH  14  16
ENDBRANCH   7  14
ENDBRANCH   1   7
BRANCH   4  18
ATOM     18  C   UNL     1       3.207   1.927  18.108  0.00  0.00    +0.000 C 
BRANCH  18  19
ATOM     19  C   UNL     1       2.606   3.054  18.863  0.00  0.00    +0.000 A 
ATOM     20  C   UNL     1       3.214   4.034  19.619  0.00  0.00    +0.000 A 
ATOM     21  N   UNL     1       2.178   4.783  20.092  0.00  0.00    +0.000 N 
ATOM     22  N   UNL     1       0.995   4.303  19.663  0.00  0.00    +0.000 NA
ATOM     23  N   UNL     1       1.245   3.238  18.910  0.00  0.00    +0.000 NA
BRANCH  21  24
ATOM     24  C   UNL     1       2.244   6.004  20.875  0.00  0.00    +0.000 C 
BRANCH  24  25
ATOM     25  C   UNL     1       1.950   7.221  20.034  0.00  0.00    +0.000 A 
ATOM     26  C   UNL     1       2.419   7.310  18.714  0.00  0.00    +0.000 A 
ATOM     27  C   UNL     1       2.205   8.466  17.960  0.00  0.00    +0.000 A 
ATOM     28  C   UNL     1       1.514   9.543  18.512  0.00  0.00    +0.000 A 
ATOM     29  C   UNL     1       1.026   9.456  19.814  0.00  0.00    +0.000 A 
ATOM     30 CL   UNL     1       0.160  10.780  20.490  0.00  0.00    +0.000 Cl
ATOM     31  C   UNL     1       1.238   8.305  20.574  0.00  0.00    +0.000 A 
ENDBRANCH  24  25
ENDBRANCH  21  24
ENDBRANCH  18  19
ENDBRANCH   4  18
TORSDOF 9
ENDMDL
MODEL 3
REMARK VINA RESULT:      -7.1      2.022      2.668
REMARK  Name = 
REMARK  11 active torsions:
REMARK  status: ('A' for Active; 'I' for Inactive)
REMARK    1  A    between atoms: C_1  and  C_2
REMARK    2  A    between atoms: C_2  and  C_3
REMARK    3  A    between atoms: C_2  and  C_4
REMARK    4  A    between atoms: C_4  and  C_5
REMARK    5  A    between atoms: C_5  and  N_6
REMARK    6  A    between atoms: C_5  and  C_24
REMARK    7  A    between atoms: N_9  and  C_10
REMARK    8  A    between atoms: C_10  and  C_11
REMARK    9  A    between atoms: N_13  and  C_14
REMARK   10  A    between atoms: C_14  and  C_15
REMARK   11  A    between atoms: N_26  and  O_27
REMARK                            x       y       z     vdW  Elec       q    Type
REMARK                         _______ _______ _______ _____ _____    ______ ____
ROOT
ATOM      1  N   UNL     1       3.750   5.877  19.693  0.00  0.00    +0.000 N 
ATOM      2  C   UNL     1       2.647   6.071  20.474  0.00  0.00    +0.000 C 
ATOM      3  O   UNL     1       2.082   5.163  21.077  0.00  0.00    +0.000 OA
ATOM      4  N   UNL     1       2.230   7.372  20.484  0.00  0.00    +0.000 N 
ATOM      5  H   UNL     1       4.348   6.672  19.492  0.00  0.00    +0.000 HD
ATOM      6  H   UNL     1       2.514   7.947  19.707  0.00  0.00    +0.000 HD
ENDROOT
BRANCH   1   7
ATOM      7  C   UNL     1       4.334   4.541  19.523  0.00  0.00    +0.000 C 
BRANCH   7   8
ATOM      8  C   UNL     1       5.824   4.709  19.182  0.00  0.00    +0.000 C 
ATOM      9  O   UNL     1       6.582   5.449  19.812  0.00  0.00    +0.000 OA
ATOM     10  N   UNL     1       6.256   3.990  18.097  0.00  0.00    +0.000 N 
ATOM     11  H   UNL     1       5.684   3.382  17.523  0.00  0.00    +0.000 HD
BRANCH  10  12
ATOM     12  O   UNL     1       7.602   4.145  17.707  0.00  0.00    +0.000 OA
ATOM     13  H   UNL     1       7.672   5.114  17.571  0.00  0.00    +0.000 HD
ENDBRANCH  10  12
ENDBRANCH   7   8
BRANCH   7  14
ATOM     14  C   UNL     1       3.576   3.784  18.415  0.00  0.00    +0.000 C 
BRANCH  14  16
ATOM     15  C   UNL     1       1.374   2.476  18.447  0.00  0.00    +0.000 C 
ATOM     16  C   UNL     1       2.855   2.486  18.830  0.00  0.00    +0.000 C 
ATOM     17  C   UNL     1       3.549   1.282  18.187  0.00  0.00    +0.000 C 
ENDBRANCH  14  16
ENDBRANCH   7  14
ENDBRANCH   1   7
BRANCH   4  18
ATOM     18  C   UNL     1       1.006   7.752  21.168  0.00  0.00    +0.000 C 
BRANCH  18  19
ATOM     19  C   UNL     1       0.717   9.190  20.948  0.00  0.00    +0.000 A 
ATOM     20  C   UNL     1       0.159   9.822  19.857  0.00  0.00    +0.000 A 
ATOM     21  N   UNL     1       0.153  11.141  20.200  0.00  0.00    +0.000 N 
ATOM     22  N   UNL     1       0.677  11.327  21.426  0.00  0.00    +0.000 NA
ATOM     23  N   UNL     1       1.031  10.135  21.894  0.00  0.00    +0.000 NA
BRANCH  21  24
ATOM     24  C   UNL     1      -0.406  12.255  19.455  0.00  0.00    +0.000 C 
BRANCH  24  25
ATOM     25  C   UNL     1      -1.913  12.196  19.414  0.00  0.00    +0.000 A 
ATOM     26  C   UNL     1      -2.578  11.638  18.311  0.00  0.00    +0.000 A 
ATOM     27  C   UNL     1      -3.974  11.646  18.244  0.00  0.00    +0.000 A 
ATOM     28  C   UNL     1      -4.720  12.205  19.280  0.00  0.00    +0.000 A 
ATOM     29  C   UNL     1      -4.069  12.741  20.388  0.00  0.00    +0.000 A 
ATOM     30 CL   UNL     1      -4.992  13.418  21.673  0.00  0.00    +0.000 Cl
ATOM     31  C   UNL     1      -2.676  12.739  20.461  0.00  0.00    +0.000 A 
ENDBRANCH  24  25
ENDBRANCH  21  24
ENDBRANCH  18  19
ENDBRANCH   4  18
TORSDOF 9
ENDMDL
MODEL 4
REMARK VINA RESULT:      -7.1      1.845      2.548
REMARK  Name = 
REMARK  11 active torsions:
REMARK  status: ('A' for Active; 'I' for Inactive)
REMARK    1  A    between atoms: C_1  and  C_2
REMARK    2  A    between atoms: C_2  and  C_3
REMARK    3  A    between atoms: C_2  and  C_4
REMARK    4  A    between atoms: C_4  and  C_5
REMARK    5  A    between atoms: C_5  and  N_6
REMARK    6  A    between atoms: C_5  and  C_24
REMARK    7  A    between atoms: N_9  and  C_10
REMARK    8  A    between atoms: C_10  and  C_11
REMARK    9  A    between atoms: N_13  and  C_14
REMARK   10  A    between atoms: C_14  and  C_15
REMARK   11  A    between atoms: N_26  and  O_27
REMARK                            x       y       z     vdW  Elec       q    Type
REMARK                         _______ _______ _______ _____ _____    ______ ____
ROOT
ATOM      1  N   UNL     1       3.035   6.389  19.554  0.00  0.00    +0.000 N 
ATOM      2  C   UNL     1       2.021   6.650  20.431  0.00  0.00    +0.000 C 
ATOM      3  O   UNL     1       1.295   5.777  20.896  0.00  0.00    +0.000 OA
ATOM      4  N   UNL     1       1.889   7.982  20.704  0.00  0.00    +0.000 N 
ATOM      5  H   UNL     1       3.782   7.071  19.459  0.00  0.00    +0.000 HD
ATOM      6  H   UNL     1       2.265   8.626  20.026  0.00  0.00    +0.000 HD
ENDROOT
BRANCH   1   7
ATOM      7  C   UNL     1       3.319   5.021  19.105  0.00  0.00    +0.000 C 
BRANCH   7   8
ATOM      8  C   UNL     1       4.720   5.004  18.473  0.00  0.00    +0.000 C 
ATOM      9  O   UNL     1       5.073   5.788  17.589  0.00  0.00    +0.000 OA
ATOM     10  N   UNL     1       5.559   4.027  18.945  0.00  0.00    +0.000 N 
ATOM     11  H   UNL     1       5.327   3.338  19.651  0.00  0.00    +0.000 HD
BRANCH  10  12
ATOM     12  O   UNL     1       6.840   3.931  18.364  0.00  0.00    +0.000 OA
ATOM     13  H   UNL     1       7.227   3.160  18.832  0.00  0.00    +0.000 HD
ENDBRANCH  10  12
ENDBRANCH   7   8
BRANCH   7  14
ATOM     14  C   UNL     1       2.236   4.571  18.106  0.00  0.00    +0.000 C 
BRANCH  14  16
ATOM     15  C   UNL     1       2.749   2.099  17.672  0.00  0.00    +0.000 C 
ATOM     16  C   UNL     1       1.746   3.113  18.224  0.00  0.00    +0.000 C 
ATOM     17  C   UNL     1       1.453   2.784  19.691  0.00  0.00    +0.000 C 
ENDBRANCH  14  16
ENDBRANCH   7  14
ENDBRANCH   1   7
BRANCH   4  18
ATOM     18  C   UNL     1       0.793   8.463  21.527  0.00  0.00    +0.000 C 
BRANCH  18  19
ATOM     19  C   UNL     1       0.361   9.809  21.076  0.00  0.00    +0.000 A 
ATOM     20  C   UNL     1      -0.113  10.219  19.848  0.00  0.00    +0.000 A 
ATOM     21  N   UNL     1      -0.329  11.555  20.001  0.00  0.00    +0.000 N 
ATOM     22  N   UNL     1      -0.009  11.961  21.245  0.00  0.00    +0.000 NA
ATOM     23  N   UNL     1       0.421  10.897  21.913  0.00  0.00    +0.000 NA
BRANCH  21  24
ATOM     24  C   UNL     1      -0.913  12.480  19.046  0.00  0.00    +0.000 C 
BRANCH  24  25
ATOM     25  C   UNL     1      -2.216  11.959  18.492  0.00  0.00    +0.000 A 
ATOM     26  C   UNL     1      -2.271  11.383  17.212  0.00  0.00    +0.000 A 
ATOM     27  C   UNL     1      -3.489  10.964  16.673  0.00  0.00    +0.000 A 
ATOM     28  C   UNL     1      -4.665  11.108  17.407  0.00  0.00    +0.000 A 
ATOM     29  C   UNL     1      -4.617  11.658  18.686  0.00  0.00    +0.000 A 
ATOM     30 CL   UNL     1      -6.068  11.822  19.597  0.00  0.00    +0.000 Cl
ATOM     31  C   UNL     1      -3.405  12.082  19.230  0.00  0.00    +0.000 A 
ENDBRANCH  24  25
ENDBRANCH  21  24
ENDBRANCH  18  19
ENDBRANCH   4  18
TORSDOF 9
ENDMDL
MODEL 5
REMARK VINA RESULT:      -7.1      8.661     10.267
REMARK  Name = 
REMARK  11 active torsions:
REMARK  status: ('A' for Active; 'I' for Inactive)
REMARK    1  A    between atoms: C_1  and  C_2
REMARK    2  A    between atoms: C_2  and  C_3
REMARK    3  A    between atoms: C_2  and  C_4
REMARK    4  A    between atoms: C_4  and  C_5
REMARK    5  A    between atoms: C_5  and  N_6
REMARK    6  A    between atoms: C_5  and  C_24
REMARK    7  A    between atoms: N_9  and  C_10
REMARK    8  A    between atoms: C_10  and  C_11
REMARK    9  A    between atoms: N_13  and  C_14
REMARK   10  A    between atoms: C_14  and  C_15
REMARK   11  A    between atoms: N_26  and  O_27
REMARK                            x       y       z     vdW  Elec       q    Type
REMARK                         _______ _______ _______ _____ _____    ______ ____
ROOT
ATOM      1  N   UNL     1       6.803   7.220  17.027  0.00  0.00    +0.000 N 
ATOM      2  C   UNL     1       7.730   7.658  17.930  0.00  0.00    +0.000 C 
ATOM      3  O   UNL     1       8.204   6.942  18.806  0.00  0.00    +0.000 OA
ATOM      4  N   UNL     1       8.042   8.978  17.767  0.00  0.00    +0.000 N 
ATOM      5  H   UNL     1       6.694   7.732  16.157  0.00  0.00    +0.000 HD
ATOM      6  H   UNL     1       7.365   9.551  17.289  0.00  0.00    +0.000 HD
ENDROOT
BRANCH   1   7
ATOM      7  C   UNL     1       6.308   5.839  17.057  0.00  0.00    +0.000 C 
BRANCH   7   8
ATOM      8  C   UNL     1       6.761   5.139  15.765  0.00  0.00    +0.000 C 
ATOM      9  O   UNL     1       6.460   3.978  15.484  0.00  0.00    +0.000 OA
ATOM     10  N   UNL     1       7.559   5.896  14.944  0.00  0.00    +0.000 N 
ATOM     11  H   UNL     1       7.863   6.846  15.124  0.00  0.00    +0.000 HD
BRANCH  10  12
ATOM     12  O   UNL     1       8.047   5.288  13.769  0.00  0.00    +0.000 OA
ATOM     13  H   UNL     1       8.945   4.998  14.040  0.00  0.00    +0.000 HD
ENDBRANCH  10  12
ENDBRANCH   7   8
BRANCH   7  14
ATOM     14  C   UNL     1       4.774   5.844  17.196  0.00  0.00    +0.000 C 
BRANCH  14  16
ATOM     15  C   UNL     1       3.819   5.416  19.534  0.00  0.00    +0.000 C 
ATOM     16  C   UNL     1       4.161   4.816  18.169  0.00  0.00    +0.000 C 
ATOM     17  C   UNL     1       2.895   4.213  17.553  0.00  0.00    +0.000 C 
ENDBRANCH  14  16
ENDBRANCH   7  14
ENDBRANCH   1   7
BRANCH   4  18
ATOM     18  C   UNL     1       8.924   9.651  18.705  0.00  0.00    +0.000 C 
BRANCH  18  19
ATOM     19  C   UNL     1       9.373  10.951  18.149  0.00  0.00    +0.000 A 
ATOM     20  C   UNL     1      10.649  11.407  17.889  0.00  0.00    +0.000 A 
ATOM     21  N   UNL     1      10.462  12.668  17.408  0.00  0.00    +0.000 N 
ATOM     22  N   UNL     1       9.154  12.986  17.371  0.00  0.00    +0.000 NA
ATOM     23  N   UNL     1       8.476  11.940  17.828  0.00  0.00    +0.000 NA
BRANCH  21  24
ATOM     24  C   UNL     1      11.464  13.584  16.891  0.00  0.00    +0.000 C 
BRANCH  24  25
ATOM     25  C   UNL     1      11.353  14.947  17.529  0.00  0.00    +0.000 A 
ATOM     26  C   UNL     1      11.042  16.076  16.755  0.00  0.00    +0.000 A 
ATOM     27  C   UNL     1      11.008  17.347  17.334  0.00  0.00    +0.000 A 
ATOM     28  C   UNL     1      11.276  17.504  18.693  0.00  0.00    +0.000 A 
ATOM     29  C   UNL     1      11.564  16.386  19.473  0.00  0.00    +0.000 A 
ATOM     30 CL   UNL     1      11.881  16.579  21.153  0.00  0.00    +0.000 Cl
ATOM     31  C   UNL     1      11.603  15.114  18.901  0.00  0.00    +0.000 A 
ENDBRANCH  24  25
ENDBRANCH  21  24
ENDBRANCH  18  19
ENDBRANCH   4  18
TORSDOF 9
ENDMDL
MODEL 6
REMARK VINA RESULT:      -7.1      2.071      2.671
REMARK  Name = 
REMARK  11 active torsions:
REMARK  status: ('A' for Active; 'I' for Inactive)
REMARK    1  A    between atoms: C_1  and  C_2
REMARK    2  A    between atoms: C_2  and  C_3
REMARK    3  A    between atoms: C_2  and  C_4
REMARK    4  A    between atoms: C_4  and  C_5
REMARK    5  A    between atoms: C_5  and  N_6
REMARK    6  A    between atoms: C_5  and  C_24
REMARK    7  A    between atoms: N_9  and  C_10
REMARK    8  A    between atoms: C_10  and  C_11
REMARK    9  A    between atoms: N_13  and  C_14
REMARK   10  A    between atoms: C_14  and  C_15
REMARK   11  A    between atoms: N_26  and  O_27
REMARK                            x       y       z     vdW  Elec       q    Type
REMARK                         _______ _______ _______ _____ _____    ______ ____
ROOT
ATOM      1  N   UNL     1       3.499   5.493  18.573  0.00  0.00    +0.000 N 
ATOM      2  C   UNL     1       2.569   5.704  19.551  0.00  0.00    +0.000 C 
ATOM      3  O   UNL     1       1.907   4.801  20.054  0.00  0.00    +0.000 OA
ATOM      4  N   UNL     1       2.440   7.023  19.881  0.00  0.00    +0.000 N 
ATOM      5  H   UNL     1       4.221   6.192  18.431  0.00  0.00    +0.000 HD
ATOM      6  H   UNL     1       2.738   7.696  19.193  0.00  0.00    +0.000 HD
ENDROOT
BRANCH   1   7
ATOM      7  C   UNL     1       3.763   4.146  18.053  0.00  0.00    +0.000 C 
BRANCH   7   8
ATOM      8  C   UNL     1       4.700   3.427  19.037  0.00  0.00    +0.000 C 
ATOM      9  O   UNL     1       5.660   3.977  19.580  0.00  0.00    +0.000 OA
ATOM     10  N   UNL     1       4.410   2.104  19.254  0.00  0.00    +0.000 N 
ATOM     11  H   UNL     1       3.652   1.586  18.825  0.00  0.00    +0.000 HD
BRANCH  10  12
ATOM     12  O   UNL     1       5.268   1.381  20.108  0.00  0.00    +0.000 OA
ATOM     13  H   UNL     1       5.125   1.821  20.973  0.00  0.00    +0.000 HD
ENDBRANCH  10  12
ENDBRANCH   7   8
BRANCH   7  14
ATOM     14  C   UNL     1       4.380   4.249  16.646  0.00  0.00    +0.000 C 
BRANCH  14  16
ATOM     15  C   UNL     1       6.878   4.492  16.132  0.00  0.00    +0.000 C 
ATOM     16  C   UNL     1       5.574   5.211  16.480  0.00  0.00    +0.000 C 
ATOM     17  C   UNL     1       5.260   6.239  15.388  0.00  0.00    +0.000 C 
ENDBRANCH  14  16
ENDBRANCH   7  14
ENDBRANCH   1   7
BRANCH   4  18
ATOM     18  C   UNL     1       1.420   7.455  20.821  0.00  0.00    +0.000 C 
BRANCH  18  19
ATOM     19  C   UNL     1       1.093   8.885  20.606  0.00  0.00    +0.000 A 
ATOM     20  C   UNL     1       0.790   9.869  21.523  0.00  0.00    +0.000 A 
ATOM     21  N   UNL     1       0.558  10.976  20.763  0.00  0.00    +0.000 N 
ATOM     22  N   UNL     1       0.702  10.705  19.452  0.00  0.00    +0.000 NA
ATOM     23  N   UNL     1       1.026   9.422  19.343  0.00  0.00    +0.000 NA
BRANCH  21  24
ATOM     24  C   UNL     1       0.282  12.328  21.215  0.00  0.00    +0.000 C 
BRANCH  24  25
ATOM     25  C   UNL     1      -1.152  12.486  21.657  0.00  0.00    +0.000 A 
ATOM     26  C   UNL     1      -1.497  12.392  23.015  0.00  0.00    +0.000 A 
ATOM     27  C   UNL     1      -2.833  12.469  23.415  0.00  0.00    +0.000 A 
ATOM     28  C   UNL     1      -3.838  12.647  22.466  0.00  0.00    +0.000 A 
ATOM     29  C   UNL     1      -3.503  12.763  21.119  0.00  0.00    +0.000 A 
ATOM     30 CL   UNL     1      -4.744  12.998  19.950  0.00  0.00    +0.000 Cl
ATOM     31  C   UNL     1      -2.171  12.684  20.711  0.00  0.00    +0.000 A 
ENDBRANCH  24  25
ENDBRANCH  21  24
ENDBRANCH  18  19
ENDBRANCH   4  18
TORSDOF 9
ENDMDL
MODEL 7
REMARK VINA RESULT:      -7.1      2.974      4.119
REMARK  Name = 
REMARK  11 active torsions:
REMARK  status: ('A' for Active; 'I' for Inactive)
REMARK    1  A    between atoms: C_1  and  C_2
REMARK    2  A    between atoms: C_2  and  C_3
REMARK    3  A    between atoms: C_2  and  C_4
REMARK    4  A    between atoms: C_4  and  C_5
REMARK    5  A    between atoms: C_5  and  N_6
REMARK    6  A    between atoms: C_5  and  C_24
REMARK    7  A    between atoms: N_9  and  C_10
REMARK    8  A    between atoms: C_10  and  C_11
REMARK    9  A    between atoms: N_13  and  C_14
REMARK   10  A    between atoms: C_14  and  C_15
REMARK   11  A    between atoms: N_26  and  O_27
REMARK                            x       y       z     vdW  Elec       q    Type
REMARK                         _______ _______ _______ _____ _____    ______ ____
ROOT
ATOM      1  N   UNL     1       3.349   5.755  18.630  0.00  0.00    +0.000 N 
ATOM      2  C   UNL     1       2.694   6.037  19.796  0.00  0.00    +0.000 C 
ATOM      3  O   UNL     1       2.471   5.195  20.660  0.00  0.00    +0.000 OA
ATOM      4  N   UNL     1       2.294   7.340  19.874  0.00  0.00    +0.000 N 
ATOM      5  H   UNL     1       3.781   6.519  18.120  0.00  0.00    +0.000 HD
ATOM      6  H   UNL     1       2.196   7.840  19.005  0.00  0.00    +0.000 HD
ENDROOT
BRANCH   1   7
ATOM      7  C   UNL     1       3.830   4.400  18.337  0.00  0.00    +0.000 C 
BRANCH   7   8
ATOM      8  C   UNL     1       5.235   4.512  17.723  0.00  0.00    +0.000 C 
ATOM      9  O   UNL     1       5.439   4.885  16.566  0.00  0.00    +0.000 OA
ATOM     10  N   UNL     1       6.262   4.138  18.552  0.00  0.00    +0.000 N 
ATOM     11  H   UNL     1       6.164   3.802  19.503  0.00  0.00    +0.000 HD
BRANCH  10  12
ATOM     12  O   UNL     1       7.570   4.171  18.025  0.00  0.00    +0.000 OA
ATOM     13  H   UNL     1       8.109   3.845  18.777  0.00  0.00    +0.000 HD
ENDBRANCH  10  12
ENDBRANCH   7   8
BRANCH   7  14
ATOM     14  C   UNL     1       2.844   3.698  17.385  0.00  0.00    +0.000 C 
BRANCH  14  16
ATOM     15  C   UNL     1       3.397   1.469  18.521  0.00  0.00    +0.000 C 
ATOM     16  C   UNL     1       2.330   2.309  17.817  0.00  0.00    +0.000 C 
ATOM     17  C   UNL     1       1.125   2.473  18.748  0.00  0.00    +0.000 C 
ENDBRANCH  14  16
ENDBRANCH   7  14
ENDBRANCH   1   7
BRANCH   4  18
ATOM     18  C   UNL     1       1.484   7.800  20.989  0.00  0.00    +0.000 C 
BRANCH  18  19
ATOM     19  C   UNL     1       0.845   9.098  20.662  0.00  0.00    +0.000 A 
ATOM     20  C   UNL     1       0.784   9.774  19.462  0.00  0.00    +0.000 A 
ATOM     21  N   UNL     1       0.095  10.913  19.754  0.00  0.00    +0.000 N 
ATOM     22  N   UNL     1      -0.253  10.951  21.055  0.00  0.00    +0.000 NA
ATOM     23  N   UNL     1       0.206   9.843  21.624  0.00  0.00    +0.000 NA
BRANCH  21  24
ATOM     24  C   UNL     1      -0.338  11.954  18.839  0.00  0.00    +0.000 C 
BRANCH  24  25
ATOM     25  C   UNL     1       0.704  13.035  18.694  0.00  0.00    +0.000 A 
ATOM     26  C   UNL     1       2.040  12.709  18.410  0.00  0.00    +0.000 A 
ATOM     27  C   UNL     1       3.016  13.706  18.344  0.00  0.00    +0.000 A 
ATOM     28  C   UNL     1       2.670  15.039  18.553  0.00  0.00    +0.000 A 
ATOM     29  C   UNL     1       1.343  15.375  18.814  0.00  0.00    +0.000 A 
ATOM     30 CL   UNL     1       0.913  17.023  19.058  0.00  0.00    +0.000 Cl
ATOM     31  C   UNL     1       0.363  14.385  18.884  0.00  0.00    +0.000 A 
ENDBRANCH  24  25
ENDBRANCH  21  24
ENDBRANCH  18  19
ENDBRANCH   4  18
TORSDOF 9
ENDMDL
MODEL 8
REMARK VINA RESULT:      -7.0      1.005      1.088
REMARK  Name = 
REMARK  11 active torsions:
REMARK  status: ('A' for Active; 'I' for Inactive)
REMARK    1  A    between atoms: C_1  and  C_2
REMARK    2  A    between atoms: C_2  and  C_3
REMARK    3  A    between atoms: C_2  and  C_4
REMARK    4  A    between atoms: C_4  and  C_5
REMARK    5  A    between atoms: C_5  and  N_6
REMARK    6  A    between atoms: C_5  and  C_24
REMARK    7  A    between atoms: N_9  and  C_10
REMARK    8  A    between atoms: C_10  and  C_11
REMARK    9  A    between atoms: N_13  and  C_14
REMARK   10  A    between atoms: C_14  and  C_15
REMARK   11  A    between atoms: N_26  and  O_27
REMARK                            x       y       z     vdW  Elec       q    Type
REMARK                         _______ _______ _______ _____ _____    ______ ____
ROOT
ATOM      1  N   UNL     1       3.636   5.584  18.566  0.00  0.00    +0.000 N 
ATOM      2  C   UNL     1       2.651   5.967  19.431  0.00  0.00    +0.000 C 
ATOM      3  O   UNL     1       1.857   5.179  19.936  0.00  0.00    +0.000 OA
ATOM      4  N   UNL     1       2.631   7.316  19.645  0.00  0.00    +0.000 N 
ATOM      5  H   UNL     1       4.436   6.196  18.441  0.00  0.00    +0.000 HD
ATOM      6  H   UNL     1       3.056   7.895  18.938  0.00  0.00    +0.000 HD
ENDROOT
BRANCH   1   7
ATOM      7  C   UNL     1       3.802   4.178  18.179  0.00  0.00    +0.000 C 
BRANCH   7   8
ATOM      8  C   UNL     1       4.725   3.504  19.208  0.00  0.00    +0.000 C 
ATOM      9  O   UNL     1       5.632   4.098  19.794  0.00  0.00    +0.000 OA
ATOM     10  N   UNL     1       4.487   2.169  19.414  0.00  0.00    +0.000 N 
ATOM     11  H   UNL     1       3.776   1.615  18.951  0.00  0.00    +0.000 HD
BRANCH  10  12
ATOM     12  O   UNL     1       5.337   1.486  20.309  0.00  0.00    +0.000 OA
ATOM     13  H   UNL     1       5.154   0.546  20.098  0.00  0.00    +0.000 HD
ENDBRANCH  10  12
ENDBRANCH   7   8
BRANCH   7  14
ATOM     14  C   UNL     1       4.382   4.100  16.754  0.00  0.00    +0.000 C 
BRANCH  14  16
ATOM     15  C   UNL     1       6.910   4.389  16.460  0.00  0.00    +0.000 C 
ATOM     16  C   UNL     1       5.539   5.065  16.422  0.00  0.00    +0.000 C 
ATOM     17  C   UNL     1       5.318   5.676  15.034  0.00  0.00    +0.000 C 
ENDBRANCH  14  16
ENDBRANCH   7  14
ENDBRANCH   1   7
BRANCH   4  18
ATOM     18  C   UNL     1       1.583   7.923  20.446  0.00  0.00    +0.000 C 
BRANCH  18  19
ATOM     19  C   UNL     1       1.099   9.171  19.804  0.00  0.00    +0.000 A 
ATOM     20  C   UNL     1       0.000   9.948  20.102  0.00  0.00    +0.000 A 
ATOM     21  N   UNL     1       0.039  10.950  19.179  0.00  0.00    +0.000 N 
ATOM     22  N   UNL     1       1.092  10.810  18.352  0.00  0.00    +0.000 NA
ATOM     23  N   UNL     1       1.749   9.717  18.724  0.00  0.00    +0.000 NA
BRANCH  21  24
ATOM     24  C   UNL     1      -0.834  12.107  19.080  0.00  0.00    +0.000 C 
BRANCH  24  25
ATOM     25  C   UNL     1      -2.158  11.752  18.450  0.00  0.00    +0.000 A 
ATOM     26  C   UNL     1      -2.213  11.188  17.166  0.00  0.00    +0.000 A 
ATOM     27  C   UNL     1      -3.442  10.924  16.557  0.00  0.00    +0.000 A 
ATOM     28  C   UNL     1      -4.630  11.213  17.226  0.00  0.00    +0.000 A 
ATOM     29  C   UNL     1      -4.586  11.752  18.510  0.00  0.00    +0.000 A 
ATOM     30 CL   UNL     1      -6.053  12.094  19.342  0.00  0.00    +0.000 Cl
ATOM     31  C   UNL     1      -3.362  12.021  19.123  0.00  0.00    +0.000 A 
ENDBRANCH  24  25
ENDBRANCH  21  24
ENDBRANCH  18  19
ENDBRANCH   4  18
TORSDOF 9
ENDMDL
MODEL 9
REMARK VINA RESULT:      -7.0      4.172      9.524
REMARK  Name = 
REMARK  11 active torsions:
REMARK  status: ('A' for Active; 'I' for Inactive)
REMARK    1  A    between atoms: C_1  and  C_2
REMARK    2  A    between atoms: C_2  and  C_3
REMARK    3  A    between atoms: C_2  and  C_4
REMARK    4  A    between atoms: C_4  and  C_5
REMARK    5  A    between atoms: C_5  and  N_6
REMARK    6  A    between atoms: C_5  and  C_24
REMARK    7  A    between atoms: N_9  and  C_10
REMARK    8  A    between atoms: C_10  and  C_11
REMARK    9  A    between atoms: N_13  and  C_14
REMARK   10  A    between atoms: C_14  and  C_15
REMARK   11  A    between atoms: N_26  and  O_27
REMARK                            x       y       z     vdW  Elec       q    Type
REMARK                         _______ _______ _______ _____ _____    ______ ____
ROOT
ATOM      1  N   UNL     1      -2.119  10.742  16.460  0.00  0.00    +0.000 N 
ATOM      2  C   UNL     1      -1.620  10.252  17.633  0.00  0.00    +0.000 C 
ATOM      3  O   UNL     1      -2.258   9.514  18.378  0.00  0.00    +0.000 OA
ATOM      4  N   UNL     1      -0.355  10.696  17.895  0.00  0.00    +0.000 N 
ATOM      5  H   UNL     1      -1.467  11.063  15.752  0.00  0.00    +0.000 HD
ATOM      6  H   UNL     1      -0.067  11.548  17.439  0.00  0.00    +0.000 HD
ENDROOT
BRANCH   1   7
ATOM      7  C   UNL     1      -3.478  10.411  16.016  0.00  0.00    +0.000 C 
BRANCH   7   8
ATOM      8  C   UNL     1      -3.424  10.075  14.517  0.00  0.00    +0.000 C 
ATOM      9  O   UNL     1      -2.371   9.932  13.894  0.00  0.00    +0.000 OA
ATOM     10  N   UNL     1      -4.645   9.967  13.901  0.00  0.00    +0.000 N 
ATOM     11  H   UNL     1      -5.547  10.094  14.347  0.00  0.00    +0.000 HD
BRANCH  10  12
ATOM     12  O   UNL     1      -4.656   9.711  12.515  0.00  0.00    +0.000 OA
ATOM     13  H   UNL     1      -4.525   8.739  12.479  0.00  0.00    +0.000 HD
ENDBRANCH  10  12
ENDBRANCH   7   8
BRANCH   7  14
ATOM     14  C   UNL     1      -4.418  11.598  16.302  0.00  0.00    +0.000 C 
BRANCH  14  16
ATOM     15  C   UNL     1      -4.688  11.932  18.827  0.00  0.00    +0.000 C 
ATOM     16  C   UNL     1      -5.346  11.469  17.527  0.00  0.00    +0.000 C 
ATOM     17  C   UNL     1      -6.624  12.282  17.293  0.00  0.00    +0.000 C 
ENDBRANCH  14  16
ENDBRANCH   7  14
ENDBRANCH   1   7
BRANCH   4  18
ATOM     18  C   UNL     1       0.299  10.372  19.151  0.00  0.00    +0.000 C 
BRANCH  18  19
ATOM     19  C   UNL     1       1.275   9.272  18.956  0.00  0.00    +0.000 A 
ATOM     20  C   UNL     1       2.010   8.931  17.840  0.00  0.00    +0.000 A 
ATOM     21  N   UNL     1       2.718   7.833  18.228  0.00  0.00    +0.000 N 
ATOM     22  N   UNL     1       2.445   7.504  19.505  0.00  0.00    +0.000 NA
ATOM     23  N   UNL     1       1.556   8.379  19.961  0.00  0.00    +0.000 NA
BRANCH  21  24
ATOM     24  C   UNL     1       3.725   7.108  17.474  0.00  0.00    +0.000 C 
BRANCH  24  25
ATOM     25  C   UNL     1       3.537   5.616  17.587  0.00  0.00    +0.000 A 
ATOM     26  C   UNL     1       4.561   4.733  17.207  0.00  0.00    +0.000 A 
ATOM     27  C   UNL     1       4.361   3.352  17.248  0.00  0.00    +0.000 A 
ATOM     28  C   UNL     1       3.139   2.835  17.675  0.00  0.00    +0.000 A 
ATOM     29  C   UNL     1       2.125   3.701  18.075  0.00  0.00    +0.000 A 
ATOM     30 CL   UNL     1       0.621   3.062  18.616  0.00  0.00    +0.000 Cl
ATOM     31  C   UNL     1       2.316   5.083  18.034  0.00  0.00    +0.000 A 
ENDBRANCH  24  25
ENDBRANCH  21  24
ENDBRANCH  18  19
ENDBRANCH   4  18
TORSDOF 9
ENDMDL
