MODEL 1
REMARK VINA RESULT:      -6.6      0.000      0.000
REMARK  Name = 
REMARK  4 active torsions:
REMARK  status: ('A' for Active; 'I' for Inactive)
REMARK    1  A    between atoms: C_1  and  C_2
REMARK    2  A    between atoms: N_10  and  C_11
REMARK    3  A    between atoms: C_11  and  C_12
REMARK    4  A    between atoms: C_21  and  O_22
REMARK                            x       y       z     vdW  Elec       q    Type
REMARK                         _______ _______ _______ _____ _____    ______ ____
ROOT
ATOM      1  C   UNL     1       1.026  13.724  18.138  0.00  0.00    +0.000 C 
ATOM      2  C   UNL     1       0.363  12.911  19.261  0.00  0.00    +0.000 C 
ATOM      3  C   UNL     1       1.155  11.291  19.929  0.00  0.00    +0.000 C 
ATOM      4  C   UNL     1       0.397  10.237  21.261  0.00  0.00    +0.000 C 
ATOM      5  O   UNL     1       1.084   9.322  21.692  0.00  0.00    +0.000 OA
ATOM      6  C   UNL     1      -1.080  10.667  22.266  0.00  0.00    +0.000 C 
ATOM      7  C   UNL     1      -1.573  12.565  22.094  0.00  0.00    +0.000 C 
ATOM      8  C   UNL     1      -0.627  13.309  22.717  0.00  0.00    +0.000 C 
ATOM      9  C   UNL     1       0.081  12.565  21.645  0.00  0.00    +0.000 C 
ATOM     10  N   UNL     1      -1.219  11.637  20.172  0.00  0.00    +0.000 NA
ATOM     11  C   UNL     1      -2.202  12.609  19.689  0.00  0.00    +0.000 C 
ATOM     12  C   UNL     1      -3.675  12.829  20.247  0.00  0.00    +0.000 C 
ATOM     13  C   UNL     1      -3.960  12.843  21.751  0.00  0.00    +0.000 A 
ATOM     14  C   UNL     1      -5.271  12.974  22.257  0.00  0.00    +0.000 A 
ATOM     15  C   UNL     1      -5.524  12.835  23.635  0.00  0.00    +0.000 A 
ATOM     16  C   UNL     1      -4.473  12.552  24.518  0.00  0.00    +0.000 A 
ATOM     17  C   UNL     1      -3.176  12.474  24.022  0.00  0.00    +0.000 A 
ATOM     18  C   UNL     1      -2.924  12.665  22.650  0.00  0.00    +0.000 A 
ATOM     19  C   UNL     1      -1.364  13.436  20.171  0.00  0.00    +0.000 C 
ENDROOT
BRANCH  16  20
ATOM     20  O   UNL     1      -4.688  12.345  25.835  0.00  0.00    +0.000 OA
ATOM     21  H   UNL     1      -5.543  12.506  26.258  0.00  0.00    +0.000 HD
ENDBRANCH  16  20
BRANCH  10  22
ATOM     22  C   UNL     1      -1.373  10.439  19.121  0.00  0.00    +0.000 C 
BRANCH  22  23
ATOM     23  C   UNL     1      -2.366  10.507  17.820  0.00  0.00    +0.000 C 
ATOM     24  C   UNL     1      -2.216  11.536  16.675  0.00  0.00    +0.000 C 
ATOM     25  C   UNL     1      -2.805  10.483  15.718  0.00  0.00    +0.000 C 
ATOM     26  C   UNL     1      -2.340   9.422  16.705  0.00  0.00    +0.000 C 
ENDBRANCH  22  23
ENDBRANCH  10  22
TORSDOF 3
ENDMDL
MODEL 2
REMARK VINA RESULT:      -6.4      2.517      5.689
REMARK  Name = 
REMARK  4 active torsions:
REMARK  status: ('A' for Active; 'I' for Inactive)
REMARK    1  A    between atoms: C_1  and  C_2
REMARK    2  A    between atoms: N_10  and  C_11
REMARK    3  A    between atoms: C_11  and  C_12
REMARK    4  A    between atoms: C_21  and  O_22
REMARK                            x       y       z     vdW  Elec       q    Type
REMARK                         _______ _______ _______ _____ _____    ______ ____
ROOT
ATOM      1  C   UNL     1      -0.461   9.867  23.276  0.00  0.00    +0.000 C 
ATOM      2  C   UNL     1      -0.595  11.089  22.355  0.00  0.00    +0.000 C 
ATOM      3  C   UNL     1      -2.244  12.071  22.223  0.00  0.00    +0.000 C 
ATOM      4  C   UNL     1      -2.493  13.539  21.108  0.00  0.00    +0.000 C 
ATOM      5  O   UNL     1      -3.540  14.156  21.241  0.00  0.00    +0.000 OA
ATOM      6  C   UNL     1      -1.185  14.389  20.137  0.00  0.00    +0.000 C 
ATOM      7  C   UNL     1       0.626  13.857  20.698  0.00  0.00    +0.000 C 
ATOM      8  C   UNL     1       0.860  14.374  21.928  0.00  0.00    +0.000 C 
ATOM      9  C   UNL     1      -0.320  13.483  22.077  0.00  0.00    +0.000 C 
ATOM     10  N   UNL     1      -0.669  12.150  20.398  0.00  0.00    +0.000 NA
ATOM     11  C   UNL     1       0.571  11.460  20.040  0.00  0.00    +0.000 C 
ATOM     12  C   UNL     1       1.624  11.908  18.936  0.00  0.00    +0.000 C 
ATOM     13  C   UNL     1       2.047  13.372  18.791  0.00  0.00    +0.000 A 
ATOM     14  C   UNL     1       2.932  13.792  17.774  0.00  0.00    +0.000 A 
ATOM     15  C   UNL     1       3.190  15.160  17.570  0.00  0.00    +0.000 A 
ATOM     16  C   UNL     1       2.557  16.122  18.369  0.00  0.00    +0.000 A 
ATOM     17  C   UNL     1       1.727  15.703  19.402  0.00  0.00    +0.000 A 
ATOM     18  C   UNL     1       1.514  14.330  19.634  0.00  0.00    +0.000 A 
ATOM     19  C   UNL     1       0.905  11.819  21.214  0.00  0.00    +0.000 C 
ENDROOT
BRANCH  16  20
ATOM     20  O   UNL     1       2.728  17.445  18.158  0.00  0.00    +0.000 OA
ATOM     21  H   UNL     1       3.296  17.795  17.458  0.00  0.00    +0.000 HD
ENDBRANCH  16  20
BRANCH  10  22
ATOM     22  C   UNL     1      -1.772  11.327  19.579  0.00  0.00    +0.000 C 
BRANCH  22  23
ATOM     23  C   UNL     1      -1.845  11.305  17.943  0.00  0.00    +0.000 C 
ATOM     24  C   UNL     1      -1.685  10.026  17.090  0.00  0.00    +0.000 C 
ATOM     25  C   UNL     1      -2.626  10.661  16.050  0.00  0.00    +0.000 C 
ATOM     26  C   UNL     1      -3.181  11.523  17.174  0.00  0.00    +0.000 C 
ENDBRANCH  22  23
ENDBRANCH  10  22
TORSDOF 3
ENDMDL
MODEL 3
REMARK VINA RESULT:      -6.3     10.695     13.107
REMARK  Name = 
REMARK  4 active torsions:
REMARK  status: ('A' for Active; 'I' for Inactive)
REMARK    1  A    between atoms: C_1  and  C_2
REMARK    2  A    between atoms: N_10  and  C_11
REMARK    3  A    between atoms: C_11  and  C_12
REMARK    4  A    between atoms: C_21  and  O_22
REMARK                            x       y       z     vdW  Elec       q    Type
REMARK                         _______ _______ _______ _____ _____    ______ ____
ROOT
ATOM      1  C   UNL     1       7.650   9.994  17.735  0.00  0.00    +0.000 C 
ATOM      2  C   UNL     1       8.624  11.095  18.184  0.00  0.00    +0.000 C 
ATOM      3  C   UNL     1      10.136  10.702  19.306  0.00  0.00    +0.000 C 
ATOM      4  C   UNL     1      11.338  11.983  19.917  0.00  0.00    +0.000 C 
ATOM      5  O   UNL     1      12.333  11.569  20.493  0.00  0.00    +0.000 OA
ATOM      6  C   UNL     1      11.393  13.744  19.396  0.00  0.00    +0.000 C 
ATOM      7  C   UNL     1      10.303  14.082  17.791  0.00  0.00    +0.000 C 
ATOM      8  C   UNL     1      10.910  13.494  16.732  0.00  0.00    +0.000 C 
ATOM      9  C   UNL     1      10.609  12.399  17.689  0.00  0.00    +0.000 C 
ATOM     10  N   UNL     1       9.230  12.936  19.280  0.00  0.00    +0.000 NA
ATOM     11  C   UNL     1       8.048  13.593  18.717  0.00  0.00    +0.000 C 
ATOM     12  C   UNL     1       7.820  15.158  18.549  0.00  0.00    +0.000 C 
ATOM     13  C   UNL     1       8.936  16.072  18.041  0.00  0.00    +0.000 A 
ATOM     14  C   UNL     1       8.766  17.471  17.948  0.00  0.00    +0.000 A 
ATOM     15  C   UNL     1       9.852  18.304  17.619  0.00  0.00    +0.000 A 
ATOM     16  C   UNL     1      11.120  17.751  17.394  0.00  0.00    +0.000 A 
ATOM     17  C   UNL     1      11.272  16.370  17.437  0.00  0.00    +0.000 A 
ATOM     18  C   UNL     1      10.169  15.539  17.715  0.00  0.00    +0.000 A 
ATOM     19  C   UNL     1       8.463  13.038  17.650  0.00  0.00    +0.000 C 
ENDROOT
BRANCH  16  20
ATOM     20  O   UNL     1      12.198  18.525  17.145  0.00  0.00    +0.000 OA
ATOM     21  H   UNL     1      13.051  18.393  17.582  0.00  0.00    +0.000 HD
ENDBRANCH  16  20
BRANCH  10  22
ATOM     22  C   UNL     1       8.773  12.632  20.784  0.00  0.00    +0.000 C 
BRANCH  22  23
ATOM     23  C   UNL     1       8.319  13.800  21.839  0.00  0.00    +0.000 C 
ATOM     24  C   UNL     1       7.988  13.537  23.326  0.00  0.00    +0.000 C 
ATOM     25  C   UNL     1       8.498  14.955  23.640  0.00  0.00    +0.000 C 
ATOM     26  C   UNL     1       9.319  14.872  22.361  0.00  0.00    +0.000 C 
ENDBRANCH  22  23
ENDBRANCH  10  22
TORSDOF 3
ENDMDL
MODEL 4
REMARK VINA RESULT:      -6.2      1.417      1.896
REMARK  Name = 
REMARK  4 active torsions:
REMARK  status: ('A' for Active; 'I' for Inactive)
REMARK    1  A    between atoms: C_1  and  C_2
REMARK    2  A    between atoms: N_10  and  C_11
REMARK    3  A    between atoms: C_11  and  C_12
REMARK    4  A    between atoms: C_21  and  O_22
REMARK                            x       y       z     vdW  Elec       q    Type
REMARK                         _______ _______ _______ _____ _____    ______ ____
ROOT
ATOM      1  C   UNL     1       0.239  14.634  19.207  0.00  0.00    +0.000 C 
ATOM      2  C   UNL     1      -0.612  13.851  20.219  0.00  0.00    +0.000 C 
ATOM      3  C   UNL     1       0.165  12.513  21.361  0.00  0.00    +0.000 C 
ATOM      4  C   UNL     1      -0.804  11.502  22.586  0.00  0.00    +0.000 C 
ATOM      5  O   UNL     1      -0.157  10.801  23.350  0.00  0.00    +0.000 OA
ATOM      6  C   UNL     1      -2.568  11.754  23.034  0.00  0.00    +0.000 C 
ATOM      7  C   UNL     1      -3.261  13.482  22.396  0.00  0.00    +0.000 C 
ATOM      8  C   UNL     1      -2.682  14.469  23.121  0.00  0.00    +0.000 C 
ATOM      9  C   UNL     1      -1.570  13.751  22.445  0.00  0.00    +0.000 C 
ATOM     10  N   UNL     1      -2.189  12.412  20.851  0.00  0.00    +0.000 NA
ATOM     11  C   UNL     1      -3.106  13.105  19.943  0.00  0.00    +0.000 C 
ATOM     12  C   UNL     1      -4.695  13.098  20.008  0.00  0.00    +0.000 C 
ATOM     13  C   UNL     1      -5.434  13.240  21.341  0.00  0.00    +0.000 A 
ATOM     14  C   UNL     1      -6.843  13.172  21.419  0.00  0.00    +0.000 A 
ATOM     15  C   UNL     1      -7.490  13.157  22.669  0.00  0.00    +0.000 A 
ATOM     16  C   UNL     1      -6.737  13.196  23.851  0.00  0.00    +0.000 A 
ATOM     17  C   UNL     1      -5.355  13.315  23.769  0.00  0.00    +0.000 A 
ATOM     18  C   UNL     1      -4.718  13.382  22.515  0.00  0.00    +0.000 A 
ATOM     19  C   UNL     1      -2.594  14.133  20.490  0.00  0.00    +0.000 C 
ENDROOT
BRANCH  16  20
ATOM     20  O   UNL     1      -7.321  13.115  25.067  0.00  0.00    +0.000 OA
ATOM     21  H   UNL     1      -6.938  12.613  25.800  0.00  0.00    +0.000 HD
ENDBRANCH  16  20
BRANCH  10  22
ATOM     22  C   UNL     1      -1.825  11.087  20.028  0.00  0.00    +0.000 C 
BRANCH  22  23
ATOM     23  C   UNL     1      -2.022  10.953  18.407  0.00  0.00    +0.000 C 
ATOM     24  C   UNL     1      -1.151  10.049  17.506  0.00  0.00    +0.000 C 
ATOM     25  C   UNL     1      -2.372   9.875  16.585  0.00  0.00    +0.000 C 
ATOM     26  C   UNL     1      -3.244  10.218  17.784  0.00  0.00    +0.000 C 
ENDBRANCH  22  23
ENDBRANCH  10  22
TORSDOF 3
ENDMDL
MODEL 5
REMARK VINA RESULT:      -6.2      2.355      3.986
REMARK  Name = 
REMARK  4 active torsions:
REMARK  status: ('A' for Active; 'I' for Inactive)
REMARK    1  A    between atoms: C_1  and  C_2
REMARK    2  A    between atoms: N_10  and  C_11
REMARK    3  A    between atoms: C_11  and  C_12
REMARK    4  A    between atoms: C_21  and  O_22
REMARK                            x       y       z     vdW  Elec       q    Type
REMARK                         _______ _______ _______ _____ _____    ______ ____
ROOT
ATOM      1  C   UNL     1       3.178  13.917  19.792  0.00  0.00    +0.000 C 
ATOM      2  C   UNL     1       1.694  13.554  19.964  0.00  0.00    +0.000 C 
ATOM      3  C   UNL     1       0.700  12.700  18.556  0.00  0.00    +0.000 C 
ATOM      4  C   UNL     1      -1.103  12.260  18.677  0.00  0.00    +0.000 C 
ATOM      5  O   UNL     1      -1.563  11.585  17.767  0.00  0.00    +0.000 OA
ATOM      6  C   UNL     1      -2.142  12.378  20.187  0.00  0.00    +0.000 C 
ATOM      7  C   UNL     1      -1.066  12.633  21.816  0.00  0.00    +0.000 C 
ATOM      8  C   UNL     1      -0.396  11.483  22.069  0.00  0.00    +0.000 C 
ATOM      9  C   UNL     1       0.059  11.934  20.729  0.00  0.00    +0.000 C 
ATOM     10  N   UNL     1      -0.475  13.979  20.228  0.00  0.00    +0.000 NA
ATOM     11  C   UNL     1      -0.109  14.876  21.327  0.00  0.00    +0.000 C 
ATOM     12  C   UNL     1      -1.049  15.356  22.516  0.00  0.00    +0.000 C 
ATOM     13  C   UNL     1      -1.985  14.378  23.231  0.00  0.00    +0.000 A 
ATOM     14  C   UNL     1      -2.870  14.805  24.245  0.00  0.00    +0.000 A 
ATOM     15  C   UNL     1      -3.822  13.920  24.784  0.00  0.00    +0.000 A 
ATOM     16  C   UNL     1      -3.909  12.605  24.305  0.00  0.00    +0.000 A 
ATOM     17  C   UNL     1      -3.003  12.174  23.344  0.00  0.00    +0.000 A 
ATOM     18  C   UNL     1      -2.019  13.051  22.847  0.00  0.00    +0.000 A 
ATOM     19  C   UNL     1       0.633  13.893  21.650  0.00  0.00    +0.000 C 
ENDROOT
BRANCH  16  20
ATOM     20  O   UNL     1      -4.855  11.749  24.750  0.00  0.00    +0.000 OA
ATOM     21  H   UNL     1      -5.563  11.410  24.185  0.00  0.00    +0.000 HD
ENDBRANCH  16  20
BRANCH  10  22
ATOM     22  C   UNL     1      -0.793  15.003  19.039  0.00  0.00    +0.000 C 
BRANCH  22  23
ATOM     23  C   UNL     1      -0.201  16.530  18.985  0.00  0.00    +0.000 C 
ATOM     24  C   UNL     1       1.198  16.892  18.435  0.00  0.00    +0.000 C 
ATOM     25  C   UNL     1       0.620  18.252  18.002  0.00  0.00    +0.000 C 
ATOM     26  C   UNL     1      -0.751  17.593  17.990  0.00  0.00    +0.000 C 
ENDBRANCH  22  23
ENDBRANCH  10  22
TORSDOF 3
ENDMDL
MODEL 6
REMARK VINA RESULT:      -6.1      1.141      1.241
REMARK  Name = 
REMARK  4 active torsions:
REMARK  status: ('A' for Active; 'I' for Inactive)
REMARK    1  A    between atoms: C_1  and  C_2
REMARK    2  A    between atoms: N_10  and  C_11
REMARK    3  A    between atoms: C_11  and  C_12
REMARK    4  A    between atoms: C_21  and  O_22
REMARK                            x       y       z     vdW  Elec       q    Type
REMARK                         _______ _______ _______ _____ _____    ______ ____
ROOT
ATOM      1  C   UNL     1       1.242  15.705  19.270  0.00  0.00    +0.000 C 
ATOM      2  C   UNL     1       0.528  14.577  20.032  0.00  0.00    +0.000 C 
ATOM      3  C   UNL     1       1.394  12.895  20.378  0.00  0.00    +0.000 C 
ATOM      4  C   UNL     1       0.586  11.474  21.264  0.00  0.00    +0.000 C 
ATOM      5  O   UNL     1       1.304  10.526  21.547  0.00  0.00    +0.000 OA
ATOM      6  C   UNL     1      -1.046  11.517  22.107  0.00  0.00    +0.000 C 
ATOM      7  C   UNL     1      -1.711  13.353  22.352  0.00  0.00    +0.000 C 
ATOM      8  C   UNL     1      -0.939  13.966  23.282  0.00  0.00    +0.000 C 
ATOM      9  C   UNL     1      -0.023  13.586  22.176  0.00  0.00    +0.000 C 
ATOM     10  N   UNL     1      -1.015  13.001  20.334  0.00  0.00    +0.000 NA
ATOM     11  C   UNL     1      -2.024  13.997  19.971  0.00  0.00    +0.000 C 
ATOM     12  C   UNL     1      -3.572  13.959  20.334  0.00  0.00    +0.000 C 
ATOM     13  C   UNL     1      -4.049  13.549  21.729  0.00  0.00    +0.000 A 
ATOM     14  C   UNL     1      -5.422  13.450  22.045  0.00  0.00    +0.000 A 
ATOM     15  C   UNL     1      -5.836  12.931  23.285  0.00  0.00    +0.000 A 
ATOM     16  C   UNL     1      -4.884  12.493  24.217  0.00  0.00    +0.000 A 
ATOM     17  C   UNL     1      -3.533  12.640  23.923  0.00  0.00    +0.000 A 
ATOM     18  C   UNL     1      -3.126  13.208  22.701  0.00  0.00    +0.000 A 
ATOM     19  C   UNL     1      -1.347  14.719  20.771  0.00  0.00    +0.000 C 
ENDROOT
BRANCH  16  20
ATOM     20  O   UNL     1      -5.245  11.927  25.389  0.00  0.00    +0.000 OA
ATOM     21  H   UNL     1      -5.461  10.988  25.473  0.00  0.00    +0.000 HD
ENDBRANCH  16  20
BRANCH  10  22
ATOM     22  C   UNL     1      -0.902  12.121  19.001  0.00  0.00    +0.000 C 
BRANCH  22  23
ATOM     23  C   UNL     1      -1.998  10.977  18.585  0.00  0.00    +0.000 C 
ATOM     24  C   UNL     1      -3.314  11.278  17.832  0.00  0.00    +0.000 C 
ATOM     25  C   UNL     1      -3.216   9.878  17.199  0.00  0.00    +0.000 C 
ATOM     26  C   UNL     1      -1.718   9.937  17.461  0.00  0.00    +0.000 C 
ENDBRANCH  22  23
ENDBRANCH  10  22
TORSDOF 3
ENDMDL
MODEL 7
REMARK VINA RESULT:      -6.1      9.553     12.820
REMARK  Name = 
REMARK  4 active torsions:
REMARK  status: ('A' for Active; 'I' for Inactive)
REMARK    1  A    between atoms: C_1  and  C_2
REMARK    2  A    between atoms: N_10  and  C_11
REMARK    3  A    between atoms: C_11  and  C_12
REMARK    4  A    between atoms: C_21  and  O_22
REMARK                            x       y       z     vdW  Elec       q    Type
REMARK                         _______ _______ _______ _____ _____    ______ ____
ROOT
ATOM      1  C   UNL     1       9.131  16.770  24.448  0.00  0.00    +0.000 C 
ATOM      2  C   UNL     1       8.863  16.292  23.012  0.00  0.00    +0.000 C 
ATOM      3  C   UNL     1       7.310  16.868  22.035  0.00  0.00    +0.000 C 
ATOM      4  C   UNL     1       6.901  16.308  20.309  0.00  0.00    +0.000 C 
ATOM      5  O   UNL     1       5.968  16.872  19.757  0.00  0.00    +0.000 OA
ATOM      6  C   UNL     1       7.986  15.307  19.216  0.00  0.00    +0.000 C 
ATOM      7  C   UNL     1       9.836  15.211  19.885  0.00  0.00    +0.000 C 
ATOM      8  C   UNL     1      10.405  16.432  19.742  0.00  0.00    +0.000 C 
ATOM      9  C   UNL     1       9.237  16.628  20.639  0.00  0.00    +0.000 C 
ATOM     10  N   UNL     1       8.385  14.795  21.435  0.00  0.00    +0.000 NA
ATOM     11  C   UNL     1       9.444  13.951  21.993  0.00  0.00    +0.000 C 
ATOM     12  C   UNL     1      10.221  12.781  21.245  0.00  0.00    +0.000 C 
ATOM     13  C   UNL     1      10.701  12.945  19.802  0.00  0.00    +0.000 A 
ATOM     14  C   UNL     1      11.335  11.891  19.107  0.00  0.00    +0.000 A 
ATOM     15  C   UNL     1      11.634  12.015  17.737  0.00  0.00    +0.000 A 
ATOM     16  C   UNL     1      11.292  13.185  17.046  0.00  0.00    +0.000 A 
ATOM     17  C   UNL     1      10.714  14.239  17.744  0.00  0.00    +0.000 A 
ATOM     18  C   UNL     1      10.465  14.127  19.126  0.00  0.00    +0.000 A 
ATOM     19  C   UNL     1      10.084  15.051  21.985  0.00  0.00    +0.000 C 
ENDROOT
BRANCH  16  20
ATOM     20  O   UNL     1      11.502  13.312  15.717  0.00  0.00    +0.000 OA
ATOM     21  H   UNL     1      12.232  13.828  15.349  0.00  0.00    +0.000 HD
ENDBRANCH  16  20
BRANCH  10  22
ATOM     22  C   UNL     1       7.057  14.093  21.990  0.00  0.00    +0.000 C 
BRANCH  22  23
ATOM     23  C   UNL     1       6.988  13.308  23.426  0.00  0.00    +0.000 C 
ATOM     24  C   UNL     1       5.962  13.631  24.536  0.00  0.00    +0.000 C 
ATOM     25  C   UNL     1       6.020  12.150  24.953  0.00  0.00    +0.000 C 
ATOM     26  C   UNL     1       6.488  11.838  23.539  0.00  0.00    +0.000 C 
ENDBRANCH  22  23
ENDBRANCH  10  22
TORSDOF 3
ENDMDL
MODEL 8
REMARK VINA RESULT:      -6.1      2.311      4.892
REMARK  Name = 
REMARK  4 active torsions:
REMARK  status: ('A' for Active; 'I' for Inactive)
REMARK    1  A    between atoms: C_1  and  C_2
REMARK    2  A    between atoms: N_10  and  C_11
REMARK    3  A    between atoms: C_11  and  C_12
REMARK    4  A    between atoms: C_21  and  O_22
REMARK                            x       y       z     vdW  Elec       q    Type
REMARK                         _______ _______ _______ _____ _____    ______ ____
ROOT
ATOM      1  C   UNL     1       0.274  16.092  21.955  0.00  0.00    +0.000 C 
ATOM      2  C   UNL     1      -0.898  15.100  22.024  0.00  0.00    +0.000 C 
ATOM      3  C   UNL     1      -1.717  14.628  23.699  0.00  0.00    +0.000 C 
ATOM      4  C   UNL     1      -3.116  13.414  23.866  0.00  0.00    +0.000 C 
ATOM      5  O   UNL     1      -3.636  13.327  24.968  0.00  0.00    +0.000 OA
ATOM      6  C   UNL     1      -4.048  12.647  22.481  0.00  0.00    +0.000 C 
ATOM      7  C   UNL     1      -3.707  13.547  20.763  0.00  0.00    +0.000 C 
ATOM      8  C   UNL     1      -4.286  14.771  20.800  0.00  0.00    +0.000 C 
ATOM      9  C   UNL     1      -3.296  14.754  21.907  0.00  0.00    +0.000 C 
ATOM     10  N   UNL     1      -1.878  13.110  21.833  0.00  0.00    +0.000 NA
ATOM     11  C   UNL     1      -1.293  13.013  20.494  0.00  0.00    +0.000 C 
ATOM     12  C   UNL     1      -1.799  12.091  19.300  0.00  0.00    +0.000 C 
ATOM     13  C   UNL     1      -3.289  11.949  18.984  0.00  0.00    +0.000 A 
ATOM     14  C   UNL     1      -3.754  11.085  17.969  0.00  0.00    +0.000 A 
ATOM     15  C   UNL     1      -5.132  10.859  17.795  0.00  0.00    +0.000 A 
ATOM     16  C   UNL     1      -6.059  11.484  18.642  0.00  0.00    +0.000 A 
ATOM     17  C   UNL     1      -5.600  12.373  19.607  0.00  0.00    +0.000 A 
ATOM     18  C   UNL     1      -4.222  12.634  19.740  0.00  0.00    +0.000 A 
ATOM     19  C   UNL     1      -1.723  14.208  20.409  0.00  0.00    +0.000 C 
ENDROOT
BRANCH  16  20
ATOM     20  O   UNL     1      -7.384  11.239  18.549  0.00  0.00    +0.000 OA
ATOM     21  H   UNL     1      -8.039  11.938  18.423  0.00  0.00    +0.000 HD
ENDBRANCH  16  20
BRANCH  10  22
ATOM     22  C   UNL     1      -0.927  12.152  22.694  0.00  0.00    +0.000 C 
BRANCH  22  23
ATOM     23  C   UNL     1      -0.529  10.631  22.233  0.00  0.00    +0.000 C 
ATOM     24  C   UNL     1       0.760  10.276  21.458  0.00  0.00    +0.000 C 
ATOM     25  C   UNL     1       0.744   8.904  22.157  0.00  0.00    +0.000 C 
ATOM     26  C   UNL     1      -0.084   9.549  23.259  0.00  0.00    +0.000 C 
ENDBRANCH  22  23
ENDBRANCH  10  22
TORSDOF 3
ENDMDL
MODEL 9
REMARK VINA RESULT:      -6.1      2.332      3.669
REMARK  Name = 
REMARK  4 active torsions:
REMARK  status: ('A' for Active; 'I' for Inactive)
REMARK    1  A    between atoms: C_1  and  C_2
REMARK    2  A    between atoms: N_10  and  C_11
REMARK    3  A    between atoms: C_11  and  C_12
REMARK    4  A    between atoms: C_21  and  O_22
REMARK                            x       y       z     vdW  Elec       q    Type
REMARK                         _______ _______ _______ _____ _____    ______ ____
ROOT
ATOM      1  C   UNL     1       2.147  13.537  18.539  0.00  0.00    +0.000 C 
ATOM      2  C   UNL     1       0.913  12.987  19.271  0.00  0.00    +0.000 C 
ATOM      3  C   UNL     1       0.983  12.498  21.130  0.00  0.00    +0.000 C 
ATOM      4  C   UNL     1      -0.457  11.798  22.075  0.00  0.00    +0.000 C 
ATOM      5  O   UNL     1      -0.313  11.677  23.283  0.00  0.00    +0.000 OA
ATOM      6  C   UNL     1      -2.183  11.656  21.461  0.00  0.00    +0.000 C 
ATOM      7  C   UNL     1      -2.480  12.705  19.821  0.00  0.00    +0.000 C 
ATOM      8  C   UNL     1      -2.442  14.020  20.144  0.00  0.00    +0.000 C 
ATOM      9  C   UNL     1      -1.113  13.471  20.514  0.00  0.00    +0.000 C 
ATOM     10  N   UNL     1      -0.686  11.500  19.705  0.00  0.00    +0.000 NA
ATOM     11  C   UNL     1      -0.975  11.475  18.270  0.00  0.00    +0.000 C 
ATOM     12  C   UNL     1      -2.333  11.014  17.581  0.00  0.00    +0.000 C 
ATOM     13  C   UNL     1      -3.691  11.429  18.149  0.00  0.00    +0.000 A 
ATOM     14  C   UNL     1      -4.903  10.973  17.584  0.00  0.00    +0.000 A 
ATOM     15  C   UNL     1      -6.133  11.247  18.211  0.00  0.00    +0.000 A 
ATOM     16  C   UNL     1      -6.164  11.966  19.414  0.00  0.00    +0.000 A 
ATOM     17  C   UNL     1      -4.974  12.456  19.940  0.00  0.00    +0.000 A 
ATOM     18  C   UNL     1      -3.752  12.222  19.279  0.00  0.00    +0.000 A 
ATOM     19  C   UNL     1      -0.898  12.738  18.409  0.00  0.00    +0.000 C 
ENDROOT
BRANCH  16  20
ATOM     20  O   UNL     1      -7.319  12.188  20.079  0.00  0.00    +0.000 OA
ATOM     21  H   UNL     1      -7.741  13.057  20.120  0.00  0.00    +0.000 HD
ENDBRANCH  16  20
BRANCH  10  22
ATOM     22  C   UNL     1       0.130  10.139  19.917  0.00  0.00    +0.000 C 
BRANCH  22  23
ATOM     23  C   UNL     1       0.883   9.344  18.698  0.00  0.00    +0.000 C 
ATOM     24  C   UNL     1       2.079   9.919  17.905  0.00  0.00    +0.000 C 
ATOM     25  C   UNL     1       2.582   8.476  17.714  0.00  0.00    +0.000 C 
ATOM     26  C   UNL     1       1.787   8.104  18.957  0.00  0.00    +0.000 C 
ENDBRANCH  22  23
ENDBRANCH  10  22
TORSDOF 3
ENDMDL
