MODEL 1
REMARK VINA RESULT:      -8.1      0.000      0.000
REMARK  Name = 
REMARK  7 active torsions:
REMARK  status: ('A' for Active; 'I' for Inactive)
REMARK    1  A    between atoms: C_1  and  C_2
REMARK    2  A    between atoms: C_2  and  C_3
REMARK    3  A    between atoms: C_2  and  C_4
REMARK    4  A    between atoms: C_2  and  C_5
REMARK    5  A    between atoms: C_8  and  C_9
REMARK    6  A    between atoms: N_11  and  C_12
REMARK    7  A    between atoms: C_18  and  C_19
REMARK                            x       y       z     vdW  Elec       q    Type
REMARK                         _______ _______ _______ _____ _____    ______ ____
ROOT
ATOM      1  C   UNL     1       3.828   5.516  17.740  0.00  0.00    +0.000 C 
ATOM      2  O   UNL     1       3.911   4.312  17.963  0.00  0.00    +0.000 OA
ATOM      3  N   UNL     1       4.552   6.179  16.757  0.00  0.00    +0.000 N 
ATOM      4  H   UNL     1       4.820   7.129  16.986  0.00  0.00    +0.000 HD
ENDROOT
BRANCH   3   5
ATOM      5  C   UNL     1       5.391   5.440  15.902  0.00  0.00    +0.000 A 
ATOM      6  C   UNL     1       4.868   4.921  14.717  0.00  0.00    +0.000 A 
ATOM      7  C   UNL     1       5.712   4.221  13.859  0.00  0.00    +0.000 A 
ATOM      8 CL   UNL     1       5.116   3.602  12.374  0.00  0.00    +0.000 Cl
ATOM      9  C   UNL     1       7.041   4.049  14.221  0.00  0.00    +0.000 A 
ATOM     10  N   UNL     1       7.590   4.536  15.363  0.00  0.00    +0.000 NA
ATOM     11  C   UNL     1       6.750   5.224  16.188  0.00  0.00    +0.000 A 
BRANCH  11  12
ATOM     12  C   UNL     1       7.350   5.588  17.464  0.00  0.00    +0.000 A 
ATOM     13  N   UNL     1       7.660   6.783  17.934  0.00  0.00    +0.000 NA
ATOM     14  N   UNL     1       8.170   6.587  19.194  0.00  0.00    +0.000 NA
ATOM     15  N   UNL     1       8.174   5.299  19.507  0.00  0.00    +0.000 NA
ATOM     16  N   UNL     1       7.661   4.679  18.435  0.00  0.00    +0.000 N 
ATOM     17  H   UNL     1       7.552   3.673  18.423  0.00  0.00    +0.000 HD
ENDBRANCH  11  12
ENDBRANCH   3   5
BRANCH   1  21
ATOM     18  C   UNL     1       1.464   8.110  20.261  0.00  0.00    +0.000 A 
ATOM     19  C   UNL     1       1.929   8.520  18.999  0.00  0.00    +0.000 A 
ATOM     20  C   UNL     1       2.692   7.673  18.187  0.00  0.00    +0.000 A 
ATOM     21  C   UNL     1       2.997   6.382  18.613  0.00  0.00    +0.000 A 
ATOM     22  C   UNL     1       2.556   5.946  19.863  0.00  0.00    +0.000 A 
ATOM     23  C   UNL     1       1.802   6.806  20.678  0.00  0.00    +0.000 A 
BRANCH  18  25
ATOM     24  C   UNL     1       0.217  10.358  20.479  0.00  0.00    +0.000 C 
ATOM     25  C   UNL     1       0.624   9.034  21.168  0.00  0.00    +0.000 C 
ATOM     26  C   UNL     1       1.410   9.410  22.443  0.00  0.00    +0.000 C 
ATOM     27  C   UNL     1      -0.681   8.321  21.584  0.00  0.00    +0.000 C 
ENDBRANCH  18  25
ENDBRANCH   1  21
TORSDOF 4
ENDMDL
MODEL 2
REMARK VINA RESULT:      -8.0      0.800      1.275
REMARK  Name = 
REMARK  7 active torsions:
REMARK  status: ('A' for Active; 'I' for Inactive)
REMARK    1  A    between atoms: C_1  and  C_2
REMARK    2  A    between atoms: C_2  and  C_3
REMARK    3  A    between atoms: C_2  and  C_4
REMARK    4  A    between atoms: C_2  and  C_5
REMARK    5  A    between atoms: C_8  and  C_9
REMARK    6  A    between atoms: N_11  and  C_12
REMARK    7  A    between atoms: C_18  and  C_19
REMARK                            x       y       z     vdW  Elec       q    Type
REMARK                         _______ _______ _______ _____ _____    ______ ____
ROOT
ATOM      1  C   UNL     1       3.912   5.982  17.614  0.00  0.00    +0.000 C 
ATOM      2  O   UNL     1       4.196   4.872  18.053  0.00  0.00    +0.000 OA
ATOM      3  N   UNL     1       4.476   6.537  16.470  0.00  0.00    +0.000 N 
ATOM      4  H   UNL     1       4.599   7.542  16.495  0.00  0.00    +0.000 HD
ENDROOT
BRANCH   3   5
ATOM      5  C   UNL     1       5.380   5.774  15.709  0.00  0.00    +0.000 A 
ATOM      6  C   UNL     1       4.895   4.975  14.673  0.00  0.00    +0.000 A 
ATOM      7  C   UNL     1       5.799   4.251  13.902  0.00  0.00    +0.000 A 
ATOM      8 CL   UNL     1       5.243   3.287  12.594  0.00  0.00    +0.000 Cl
ATOM      9  C   UNL     1       7.152   4.336  14.200  0.00  0.00    +0.000 A 
ATOM     10  N   UNL     1       7.667   5.101  15.196  0.00  0.00    +0.000 NA
ATOM     11  C   UNL     1       6.767   5.807  15.938  0.00  0.00    +0.000 A 
BRANCH  11  12
ATOM     12  C   UNL     1       7.356   6.484  17.086  0.00  0.00    +0.000 A 
ATOM     13  N   UNL     1       7.698   5.992  18.264  0.00  0.00    +0.000 NA
ATOM     14  N   UNL     1       8.237   7.033  18.978  0.00  0.00    +0.000 NA
ATOM     15  N   UNL     1       8.238   8.149  18.263  0.00  0.00    +0.000 NA
ATOM     16  N   UNL     1       7.694   7.807  17.087  0.00  0.00    +0.000 N 
ATOM     17  H   UNL     1       7.582   8.492  16.351  0.00  0.00    +0.000 HD
ENDBRANCH  11  12
ENDBRANCH   3   5
BRANCH   1  21
ATOM     18  C   UNL     1       1.292   8.647  19.783  0.00  0.00    +0.000 A 
ATOM     19  C   UNL     1       1.744   8.942  18.484  0.00  0.00    +0.000 A 
ATOM     20  C   UNL     1       2.591   8.073  17.788  0.00  0.00    +0.000 A 
ATOM     21  C   UNL     1       2.995   6.872  18.369  0.00  0.00    +0.000 A 
ATOM     22  C   UNL     1       2.569   6.553  19.659  0.00  0.00    +0.000 A 
ATOM     23  C   UNL     1       1.731   7.436  20.357  0.00  0.00    +0.000 A 
BRANCH  18  25
ATOM     24  C   UNL     1       1.092  10.838  21.132  0.00  0.00    +0.000 C 
ATOM     25  C   UNL     1       0.361   9.598  20.564  0.00  0.00    +0.000 C 
ATOM     26  C   UNL     1      -0.287   8.867  21.760  0.00  0.00    +0.000 C 
ATOM     27  C   UNL     1      -0.759  10.119  19.637  0.00  0.00    +0.000 C 
ENDBRANCH  18  25
ENDBRANCH   1  21
TORSDOF 4
ENDMDL
MODEL 3
REMARK VINA RESULT:      -8.0      0.622      1.512
REMARK  Name = 
REMARK  7 active torsions:
REMARK  status: ('A' for Active; 'I' for Inactive)
REMARK    1  A    between atoms: C_1  and  C_2
REMARK    2  A    between atoms: C_2  and  C_3
REMARK    3  A    between atoms: C_2  and  C_4
REMARK    4  A    between atoms: C_2  and  C_5
REMARK    5  A    between atoms: C_8  and  C_9
REMARK    6  A    between atoms: N_11  and  C_12
REMARK    7  A    between atoms: C_18  and  C_19
REMARK                            x       y       z     vdW  Elec       q    Type
REMARK                         _______ _______ _______ _____ _____    ______ ____
ROOT
ATOM      1  C   UNL     1       3.712   5.986  17.538  0.00  0.00    +0.000 C 
ATOM      2  O   UNL     1       3.604   4.789  17.788  0.00  0.00    +0.000 OA
ATOM      3  N   UNL     1       4.622   6.514  16.629  0.00  0.00    +0.000 N 
ATOM      4  H   UNL     1       4.991   7.426  16.871  0.00  0.00    +0.000 HD
ENDROOT
BRANCH   3   5
ATOM      5  C   UNL     1       5.436   5.642  15.883  0.00  0.00    +0.000 A 
ATOM      6  C   UNL     1       4.941   5.091  14.702  0.00  0.00    +0.000 A 
ATOM      7  C   UNL     1       5.765   4.258  13.951  0.00  0.00    +0.000 A 
ATOM      8 CL   UNL     1       5.205   3.591  12.472  0.00  0.00    +0.000 Cl
ATOM      9  C   UNL     1       7.047   3.991  14.413  0.00  0.00    +0.000 A 
ATOM     10  N   UNL     1       7.568   4.506  15.555  0.00  0.00    +0.000 NA
ATOM     11  C   UNL     1       6.749   5.325  16.275  0.00  0.00    +0.000 A 
BRANCH  11  12
ATOM     12  C   UNL     1       7.301   5.722  17.563  0.00  0.00    +0.000 A 
ATOM     13  N   UNL     1       7.734   6.906  17.959  0.00  0.00    +0.000 NA
ATOM     14  N   UNL     1       8.123   6.759  19.268  0.00  0.00    +0.000 NA
ATOM     15  N   UNL     1       7.934   5.515  19.682  0.00  0.00    +0.000 NA
ATOM     16  N   UNL     1       7.420   4.871  18.624  0.00  0.00    +0.000 N 
ATOM     17  H   UNL     1       7.179   3.891  18.683  0.00  0.00    +0.000 HD
ENDBRANCH  11  12
ENDBRANCH   3   5
BRANCH   1  21
ATOM     18  C   UNL     1       1.352   8.819  19.790  0.00  0.00    +0.000 A 
ATOM     19  C   UNL     1       1.751   7.584  20.333  0.00  0.00    +0.000 A 
ATOM     20  C   UNL     1       2.517   6.673  19.598  0.00  0.00    +0.000 A 
ATOM     21  C   UNL     1       2.920   6.983  18.301  0.00  0.00    +0.000 A 
ATOM     22  C   UNL     1       2.536   8.197  17.730  0.00  0.00    +0.000 A 
ATOM     23  C   UNL     1       1.756   9.100  18.469  0.00  0.00    +0.000 A 
BRANCH  18  25
ATOM     24  C   UNL     1       0.153   9.344  22.014  0.00  0.00    +0.000 C 
ATOM     25  C   UNL     1       0.504   9.832  20.588  0.00  0.00    +0.000 C 
ATOM     26  C   UNL     1      -0.829  10.118  19.865  0.00  0.00    +0.000 C 
ATOM     27  C   UNL     1       1.277  11.160  20.743  0.00  0.00    +0.000 C 
ENDBRANCH  18  25
ENDBRANCH   1  21
TORSDOF 4
ENDMDL
MODEL 4
REMARK VINA RESULT:      -7.9      0.822      1.334
REMARK  Name = 
REMARK  7 active torsions:
REMARK  status: ('A' for Active; 'I' for Inactive)
REMARK    1  A    between atoms: C_1  and  C_2
REMARK    2  A    between atoms: C_2  and  C_3
REMARK    3  A    between atoms: C_2  and  C_4
REMARK    4  A    between atoms: C_2  and  C_5
REMARK    5  A    between atoms: C_8  and  C_9
REMARK    6  A    between atoms: N_11  and  C_12
REMARK    7  A    between atoms: C_18  and  C_19
REMARK                            x       y       z     vdW  Elec       q    Type
REMARK                         _______ _______ _______ _____ _____    ______ ____
ROOT
ATOM      1  C   UNL     1       4.004   6.097  17.564  0.00  0.00    +0.000 C 
ATOM      2  O   UNL     1       4.334   5.027  18.067  0.00  0.00    +0.000 OA
ATOM      3  N   UNL     1       4.506   6.583  16.362  0.00  0.00    +0.000 N 
ATOM      4  H   UNL     1       4.603   7.590  16.312  0.00  0.00    +0.000 HD
ENDROOT
BRANCH   3   5
ATOM      5  C   UNL     1       5.398   5.790  15.618  0.00  0.00    +0.000 A 
ATOM      6  C   UNL     1       4.905   5.004  14.576  0.00  0.00    +0.000 A 
ATOM      7  C   UNL     1       5.799   4.250  13.821  0.00  0.00    +0.000 A 
ATOM      8 CL   UNL     1       5.235   3.301  12.506  0.00  0.00    +0.000 Cl
ATOM      9  C   UNL     1       7.149   4.292  14.142  0.00  0.00    +0.000 A 
ATOM     10  N   UNL     1       7.671   5.042  15.146  0.00  0.00    +0.000 NA
ATOM     11  C   UNL     1       6.781   5.779  15.871  0.00  0.00    +0.000 A 
BRANCH  11  12
ATOM     12  C   UNL     1       7.372   6.439  17.027  0.00  0.00    +0.000 A 
ATOM     13  N   UNL     1       7.714   7.706  17.185  0.00  0.00    +0.000 NA
ATOM     14  N   UNL     1       8.196   7.822  18.465  0.00  0.00    +0.000 NA
ATOM     15  N   UNL     1       8.152   6.657  19.096  0.00  0.00    +0.000 NA
ATOM     16  N   UNL     1       7.637   5.799  18.204  0.00  0.00    +0.000 N 
ATOM     17  H   UNL     1       7.494   4.827  18.445  0.00  0.00    +0.000 HD
ENDBRANCH  11  12
ENDBRANCH   3   5
BRANCH   1  21
ATOM     18  C   UNL     1       1.309   8.700  19.717  0.00  0.00    +0.000 A 
ATOM     19  C   UNL     1       1.776   7.493  20.267  0.00  0.00    +0.000 A 
ATOM     20  C   UNL     1       2.650   6.656  19.564  0.00  0.00    +0.000 A 
ATOM     21  C   UNL     1       3.095   7.016  18.294  0.00  0.00    +0.000 A 
ATOM     22  C   UNL     1       2.647   8.205  17.717  0.00  0.00    +0.000 A 
ATOM     23  C   UNL     1       1.759   9.032  18.422  0.00  0.00    +0.000 A 
BRANCH  18  25
ATOM     24  C   UNL     1      -0.829  10.140  19.606  0.00  0.00    +0.000 C 
ATOM     25  C   UNL     1       0.342   9.631  20.479  0.00  0.00    +0.000 C 
ATOM     26  C   UNL     1       1.086  10.875  21.010  0.00  0.00    +0.000 C 
ATOM     27  C   UNL     1      -0.280   8.879  21.676  0.00  0.00    +0.000 C 
ENDBRANCH  18  25
ENDBRANCH   1  21
TORSDOF 4
ENDMDL
MODEL 5
REMARK VINA RESULT:      -7.9      0.731      1.452
REMARK  Name = 
REMARK  7 active torsions:
REMARK  status: ('A' for Active; 'I' for Inactive)
REMARK    1  A    between atoms: C_1  and  C_2
REMARK    2  A    between atoms: C_2  and  C_3
REMARK    3  A    between atoms: C_2  and  C_4
REMARK    4  A    between atoms: C_2  and  C_5
REMARK    5  A    between atoms: C_8  and  C_9
REMARK    6  A    between atoms: N_11  and  C_12
REMARK    7  A    between atoms: C_18  and  C_19
REMARK                            x       y       z     vdW  Elec       q    Type
REMARK                         _______ _______ _______ _____ _____    ______ ____
ROOT
ATOM      1  C   UNL     1       3.621   6.008  17.667  0.00  0.00    +0.000 C 
ATOM      2  O   UNL     1       3.487   4.817  17.929  0.00  0.00    +0.000 OA
ATOM      3  N   UNL     1       4.569   6.511  16.783  0.00  0.00    +0.000 N 
ATOM      4  H   UNL     1       4.944   7.421  17.026  0.00  0.00    +0.000 HD
ENDROOT
BRANCH   3   5
ATOM      5  C   UNL     1       5.395   5.617  16.077  0.00  0.00    +0.000 A 
ATOM      6  C   UNL     1       4.982   5.149  14.830  0.00  0.00    +0.000 A 
ATOM      7  C   UNL     1       5.821   4.293  14.121  0.00  0.00    +0.000 A 
ATOM      8 CL   UNL     1       5.365   3.726  12.567  0.00  0.00    +0.000 Cl
ATOM      9  C   UNL     1       7.032   3.922  14.688  0.00  0.00    +0.000 A 
ATOM     10  N   UNL     1       7.473   4.354  15.897  0.00  0.00    +0.000 NA
ATOM     11  C   UNL     1       6.641   5.196  16.574  0.00  0.00    +0.000 A 
BRANCH  11  12
ATOM     12  C   UNL     1       7.090   5.503  17.926  0.00  0.00    +0.000 A 
ATOM     13  N   UNL     1       6.853   4.857  19.054  0.00  0.00    +0.000 NA
ATOM     14  N   UNL     1       7.529   5.535  20.039  0.00  0.00    +0.000 NA
ATOM     15  N   UNL     1       8.178   6.576  19.538  0.00  0.00    +0.000 NA
ATOM     16  N   UNL     1       7.908   6.555  18.225  0.00  0.00    +0.000 N 
ATOM     17  H   UNL     1       8.295   7.256  17.607  0.00  0.00    +0.000 HD
ENDBRANCH  11  12
ENDBRANCH   3   5
BRANCH   1  21
ATOM     18  C   UNL     1       1.234   8.906  19.807  0.00  0.00    +0.000 A 
ATOM     19  C   UNL     1       1.669   7.711  20.407  0.00  0.00    +0.000 A 
ATOM     20  C   UNL     1       2.444   6.779  19.708  0.00  0.00    +0.000 A 
ATOM     21  C   UNL     1       2.819   7.027  18.390  0.00  0.00    +0.000 A 
ATOM     22  C   UNL     1       2.399   8.201  17.762  0.00  0.00    +0.000 A 
ATOM     23  C   UNL     1       1.610   9.125  18.465  0.00  0.00    +0.000 A 
BRANCH  18  25
ATOM     24  C   UNL     1      -0.887  10.376  19.784  0.00  0.00    +0.000 C 
ATOM     25  C   UNL     1       0.377   9.942  20.564  0.00  0.00    +0.000 C 
ATOM     26  C   UNL     1       1.193  11.220  20.853  0.00  0.00    +0.000 C 
ATOM     27  C   UNL     1      -0.104   9.348  21.907  0.00  0.00    +0.000 C 
ENDBRANCH  18  25
ENDBRANCH   1  21
TORSDOF 4
ENDMDL
MODEL 6
REMARK VINA RESULT:      -7.7      5.959      9.507
REMARK  Name = 
REMARK  7 active torsions:
REMARK  status: ('A' for Active; 'I' for Inactive)
REMARK    1  A    between atoms: C_1  and  C_2
REMARK    2  A    between atoms: C_2  and  C_3
REMARK    3  A    between atoms: C_2  and  C_4
REMARK    4  A    between atoms: C_2  and  C_5
REMARK    5  A    between atoms: C_8  and  C_9
REMARK    6  A    between atoms: N_11  and  C_12
REMARK    7  A    between atoms: C_18  and  C_19
REMARK                            x       y       z     vdW  Elec       q    Type
REMARK                         _______ _______ _______ _____ _____    ______ ____
ROOT
ATOM      1  C   UNL     1       1.005  10.124  19.329  0.00  0.00    +0.000 C 
ATOM      2  O   UNL     1       1.531  11.218  19.146  0.00  0.00    +0.000 OA
ATOM      3  N   UNL     1      -0.240   9.946  19.920  0.00  0.00    +0.000 N 
ATOM      4  H   UNL     1      -0.335   9.105  20.479  0.00  0.00    +0.000 HD
ENDROOT
BRANCH   3   5
ATOM      5  C   UNL     1      -0.999  11.074  20.281  0.00  0.00    +0.000 A 
ATOM      6  C   UNL     1      -0.848  11.618  21.557  0.00  0.00    +0.000 A 
ATOM      7  C   UNL     1      -1.576  12.755  21.894  0.00  0.00    +0.000 A 
ATOM      8 CL   UNL     1      -1.387  13.476  23.441  0.00  0.00    +0.000 Cl
ATOM      9  C   UNL     1      -2.440  13.300  20.955  0.00  0.00    +0.000 A 
ATOM     10  N   UNL     1      -2.617  12.804  19.703  0.00  0.00    +0.000 NA
ATOM     11  C   UNL     1      -1.892  11.693  19.388  0.00  0.00    +0.000 A 
BRANCH  11  12
ATOM     12  C   UNL     1      -2.235  11.116  18.096  0.00  0.00    +0.000 A 
ATOM     13  N   UNL     1      -2.648   9.894  17.807  0.00  0.00    +0.000 NA
ATOM     14  N   UNL     1      -2.865   9.867  16.452  0.00  0.00    +0.000 NA
ATOM     15  N   UNL     1      -2.599  11.045  15.905  0.00  0.00    +0.000 NA
ATOM     16  N   UNL     1      -2.212  11.821  16.927  0.00  0.00    +0.000 N 
ATOM     17  H   UNL     1      -1.953  12.787  16.773  0.00  0.00    +0.000 HD
ENDBRANCH  11  12
ENDBRANCH   3   5
BRANCH   1  21
ATOM     18  C   UNL     1       3.121   6.492  18.323  0.00  0.00    +0.000 A 
ATOM     19  C   UNL     1       3.007   7.563  17.417  0.00  0.00    +0.000 A 
ATOM     20  C   UNL     1       2.321   8.736  17.751  0.00  0.00    +0.000 A 
ATOM     21  C   UNL     1       1.745   8.876  19.012  0.00  0.00    +0.000 A 
ATOM     22  C   UNL     1       1.836   7.831  19.932  0.00  0.00    +0.000 A 
ATOM     23  C   UNL     1       2.513   6.651  19.585  0.00  0.00    +0.000 A 
BRANCH  18  25
ATOM     24  C   UNL     1       4.817   5.346  16.753  0.00  0.00    +0.000 C 
ATOM     25  C   UNL     1       3.871   5.191  17.967  0.00  0.00    +0.000 C 
ATOM     26  C   UNL     1       2.874   4.063  17.625  0.00  0.00    +0.000 C 
ATOM     27  C   UNL     1       4.739   4.739  19.162  0.00  0.00    +0.000 C 
ENDBRANCH  18  25
ENDBRANCH   1  21
TORSDOF 4
ENDMDL
MODEL 7
REMARK VINA RESULT:      -7.6      5.784      9.441
REMARK  Name = 
REMARK  7 active torsions:
REMARK  status: ('A' for Active; 'I' for Inactive)
REMARK    1  A    between atoms: C_1  and  C_2
REMARK    2  A    between atoms: C_2  and  C_3
REMARK    3  A    between atoms: C_2  and  C_4
REMARK    4  A    between atoms: C_2  and  C_5
REMARK    5  A    between atoms: C_8  and  C_9
REMARK    6  A    between atoms: N_11  and  C_12
REMARK    7  A    between atoms: C_18  and  C_19
REMARK                            x       y       z     vdW  Elec       q    Type
REMARK                         _______ _______ _______ _____ _____    ______ ____
ROOT
ATOM      1  C   UNL     1       0.531   9.350  20.153  0.00  0.00    +0.000 C 
ATOM      2  O   UNL     1      -0.236   8.941  21.020  0.00  0.00    +0.000 OA
ATOM      3  N   UNL     1       0.474  10.624  19.598  0.00  0.00    +0.000 N 
ATOM      4  H   UNL     1       0.736  10.679  18.621  0.00  0.00    +0.000 HD
ENDROOT
BRANCH   3   5
ATOM      5  C   UNL     1      -0.468  11.547  20.089  0.00  0.00    +0.000 A 
ATOM      6  C   UNL     1      -0.255  12.143  21.332  0.00  0.00    +0.000 A 
ATOM      7  C   UNL     1      -1.172  13.082  21.794  0.00  0.00    +0.000 A 
ATOM      8 CL   UNL     1      -0.923  13.865  23.301  0.00  0.00    +0.000 Cl
ATOM      9  C   UNL     1      -2.277  13.381  21.010  0.00  0.00    +0.000 A 
ATOM     10  N   UNL     1      -2.523  12.826  19.795  0.00  0.00    +0.000 NA
ATOM     11  C   UNL     1      -1.611  11.913  19.356  0.00  0.00    +0.000 A 
BRANCH  11  12
ATOM     12  C   UNL     1      -2.003  11.238  18.126  0.00  0.00    +0.000 A 
ATOM     13  N   UNL     1      -2.301   9.966  17.927  0.00  0.00    +0.000 NA
ATOM     14  N   UNL     1      -2.635   9.848  16.600  0.00  0.00    +0.000 NA
ATOM     15  N   UNL     1      -2.553  11.019  15.984  0.00  0.00    +0.000 NA
ATOM     16  N   UNL     1      -2.164  11.883  16.933  0.00  0.00    +0.000 N 
ATOM     17  H   UNL     1      -2.029  12.861  16.716  0.00  0.00    +0.000 HD
ENDBRANCH  11  12
ENDBRANCH   3   5
BRANCH   1  21
ATOM     18  C   UNL     1       3.406   6.699  18.314  0.00  0.00    +0.000 A 
ATOM     19  C   UNL     1       2.979   7.884  17.688  0.00  0.00    +0.000 A 
ATOM     20  C   UNL     1       2.049   8.738  18.291  0.00  0.00    +0.000 A 
ATOM     21  C   UNL     1       1.533   8.436  19.550  0.00  0.00    +0.000 A 
ATOM     22  C   UNL     1       1.932   7.265  20.196  0.00  0.00    +0.000 A 
ATOM     23  C   UNL     1       2.854   6.406  19.579  0.00  0.00    +0.000 A 
BRANCH  18  25
ATOM     24  C   UNL     1       5.628   5.415  18.579  0.00  0.00    +0.000 C 
ATOM     25  C   UNL     1       4.428   5.746  17.660  0.00  0.00    +0.000 C 
ATOM     26  C   UNL     1       5.004   6.366  16.369  0.00  0.00    +0.000 C 
ATOM     27  C   UNL     1       3.748   4.406  17.304  0.00  0.00    +0.000 C 
ENDBRANCH  18  25
ENDBRANCH   1  21
TORSDOF 4
ENDMDL
MODEL 8
REMARK VINA RESULT:      -7.6      5.763      8.681
REMARK  Name = 
REMARK  7 active torsions:
REMARK  status: ('A' for Active; 'I' for Inactive)
REMARK    1  A    between atoms: C_1  and  C_2
REMARK    2  A    between atoms: C_2  and  C_3
REMARK    3  A    between atoms: C_2  and  C_4
REMARK    4  A    between atoms: C_2  and  C_5
REMARK    5  A    between atoms: C_8  and  C_9
REMARK    6  A    between atoms: N_11  and  C_12
REMARK    7  A    between atoms: C_18  and  C_19
REMARK                            x       y       z     vdW  Elec       q    Type
REMARK                         _______ _______ _______ _____ _____    ______ ____
ROOT
ATOM      1  C   UNL     1       1.720   9.573  18.674  0.00  0.00    +0.000 C 
ATOM      2  O   UNL     1       2.284  10.051  17.694  0.00  0.00    +0.000 OA
ATOM      3  N   UNL     1       0.970  10.313  19.581  0.00  0.00    +0.000 N 
ATOM      4  H   UNL     1       1.013   9.988  20.540  0.00  0.00    +0.000 HD
ENDROOT
BRANCH   3   5
ATOM      5  C   UNL     1       0.770  11.687  19.350  0.00  0.00    +0.000 A 
ATOM      6  C   UNL     1       1.637  12.609  19.936  0.00  0.00    +0.000 A 
ATOM      7  C   UNL     1       1.454  13.964  19.675  0.00  0.00    +0.000 A 
ATOM      8 CL   UNL     1       2.525  15.126  20.345  0.00  0.00    +0.000 Cl
ATOM      9  C   UNL     1       0.404  14.352  18.854  0.00  0.00    +0.000 A 
ATOM     10  N   UNL     1      -0.462  13.488  18.264  0.00  0.00    +0.000 NA
ATOM     11  C   UNL     1      -0.264  12.165  18.527  0.00  0.00    +0.000 A 
BRANCH  11  12
ATOM     12  C   UNL     1      -1.310  11.300  17.998  0.00  0.00    +0.000 A 
ATOM     13  N   UNL     1      -1.847  10.215  18.527  0.00  0.00    +0.000 NA
ATOM     14  N   UNL     1      -2.811   9.789  17.648  0.00  0.00    +0.000 NA
ATOM     15  N   UNL     1      -2.880  10.591  16.595  0.00  0.00    +0.000 NA
ATOM     16  N   UNL     1      -1.950  11.531  16.814  0.00  0.00    +0.000 N 
ATOM     17  H   UNL     1      -1.802  12.277  16.147  0.00  0.00    +0.000 HD
ENDBRANCH  11  12
ENDBRANCH   3   5
BRANCH   1  21
ATOM     18  C   UNL     1       2.214   5.379  19.591  0.00  0.00    +0.000 A 
ATOM     19  C   UNL     1       2.468   5.895  18.308  0.00  0.00    +0.000 A 
ATOM     20  C   UNL     1       2.308   7.255  18.019  0.00  0.00    +0.000 A 
ATOM     21  C   UNL     1       1.904   8.140  19.017  0.00  0.00    +0.000 A 
ATOM     22  C   UNL     1       1.638   7.659  20.299  0.00  0.00    +0.000 A 
ATOM     23  C   UNL     1       1.787   6.292  20.578  0.00  0.00    +0.000 A 
BRANCH  18  25
ATOM     24  C   UNL     1       1.396   2.971  19.155  0.00  0.00    +0.000 C 
ATOM     25  C   UNL     1       2.383   3.881  19.923  0.00  0.00    +0.000 C 
ATOM     26  C   UNL     1       2.157   3.626  21.429  0.00  0.00    +0.000 C 
ATOM     27  C   UNL     1       3.809   3.417  19.551  0.00  0.00    +0.000 C 
ENDBRANCH  18  25
ENDBRANCH   1  21
TORSDOF 4
ENDMDL
MODEL 9
REMARK VINA RESULT:      -7.5      5.758      8.711
REMARK  Name = 
REMARK  7 active torsions:
REMARK  status: ('A' for Active; 'I' for Inactive)
REMARK    1  A    between atoms: C_1  and  C_2
REMARK    2  A    between atoms: C_2  and  C_3
REMARK    3  A    between atoms: C_2  and  C_4
REMARK    4  A    between atoms: C_2  and  C_5
REMARK    5  A    between atoms: C_8  and  C_9
REMARK    6  A    between atoms: N_11  and  C_12
REMARK    7  A    between atoms: C_18  and  C_19
REMARK                            x       y       z     vdW  Elec       q    Type
REMARK                         _______ _______ _______ _____ _____    ______ ____
ROOT
ATOM      1  C   UNL     1       1.733   9.575  18.625  0.00  0.00    +0.000 C 
ATOM      2  O   UNL     1       2.335  10.074  17.680  0.00  0.00    +0.000 OA
ATOM      3  N   UNL     1       0.958  10.296  19.526  0.00  0.00    +0.000 N 
ATOM      4  H   UNL     1       0.963   9.945  20.476  0.00  0.00    +0.000 HD
ENDROOT
BRANCH   3   5
ATOM      5  C   UNL     1       0.778  11.678  19.327  0.00  0.00    +0.000 A 
ATOM      6  C   UNL     1       1.664  12.573  19.926  0.00  0.00    +0.000 A 
ATOM      7  C   UNL     1       1.501  13.936  19.696  0.00  0.00    +0.000 A 
ATOM      8 CL   UNL     1       2.595  15.066  20.384  0.00  0.00    +0.000 Cl
ATOM      9  C   UNL     1       0.451  14.358  18.892  0.00  0.00    +0.000 A 
ATOM     10  N   UNL     1      -0.433  13.522  18.290  0.00  0.00    +0.000 NA
ATOM     11  C   UNL     1      -0.254  12.190  18.522  0.00  0.00    +0.000 A 
BRANCH  11  12
ATOM     12  C   UNL     1      -1.318  11.354  17.983  0.00  0.00    +0.000 A 
ATOM     13  N   UNL     1      -1.856  10.256  18.484  0.00  0.00    +0.000 NA
ATOM     14  N   UNL     1      -2.840   9.870  17.607  0.00  0.00    +0.000 NA
ATOM     15  N   UNL     1      -2.919  10.708  16.584  0.00  0.00    +0.000 NA
ATOM     16  N   UNL     1      -1.976  11.632  16.819  0.00  0.00    +0.000 N 
ATOM     17  H   UNL     1      -1.833  12.399  16.176  0.00  0.00    +0.000 HD
ENDBRANCH  11  12
ENDBRANCH   3   5
BRANCH   1  21
ATOM     18  C   UNL     1       2.239   5.396  19.604  0.00  0.00    +0.000 A 
ATOM     19  C   UNL     1       1.855   6.345  20.568  0.00  0.00    +0.000 A 
ATOM     20  C   UNL     1       1.692   7.696  20.243  0.00  0.00    +0.000 A 
ATOM     21  C   UNL     1       1.892   8.131  18.934  0.00  0.00    +0.000 A 
ATOM     22  C   UNL     1       2.279   7.216  17.954  0.00  0.00    +0.000 A 
ATOM     23  C   UNL     1       2.455   5.865  18.291  0.00  0.00    +0.000 A 
BRANCH  18  25
ATOM     24  C   UNL     1       2.159   3.584  21.439  0.00  0.00    +0.000 C 
ATOM     25  C   UNL     1       2.427   3.903  19.949  0.00  0.00    +0.000 C 
ATOM     26  C   UNL     1       3.869   3.448  19.640  0.00  0.00    +0.000 C 
ATOM     27  C   UNL     1       1.448   3.043  19.119  0.00  0.00    +0.000 C 
ENDBRANCH  18  25
ENDBRANCH   1  21
TORSDOF 4
ENDMDL
