MODEL 1
REMARK VINA RESULT:      -9.5      0.000      0.000
REMARK  Name = 
REMARK  10 active torsions:
REMARK  status: ('A' for Active; 'I' for Inactive)
REMARK    1  A    between atoms: C_2  and  O_29
REMARK    2  A    between atoms: N_3  and  C_4
REMARK    3  A    between atoms: C_4  and  C_5
REMARK    4  A    between atoms: C_4  and  C_12
REMARK    5  A    between atoms: C_15  and  O_16
REMARK    6  A    between atoms: O_16  and  C_17
REMARK    7  A    between atoms: C_17  and  C_19
REMARK    8  A    between atoms: C_22  and  N_23
REMARK    9  A    between atoms: O_29  and  C_30
REMARK   10  A    between atoms: C_30  and  C_31
REMARK                            x       y       z     vdW  Elec       q    Type
REMARK                         _______ _______ _______ _____ _____    ______ ____
ROOT
ATOM      1  C   UNL     1       2.674   5.943  17.673  0.00  0.00    +0.000 C 
ENDROOT
BRANCH   1   2
ATOM      2  C   UNL     1       1.942   4.612  17.977  0.00  0.00    +0.000 C 
ATOM      3  O   UNL     1       1.812   3.754  17.097  0.00  0.00    +0.000 OA
ATOM      4  N   UNL     1       1.531   4.357  19.273  0.00  0.00    +0.000 N 
ATOM      5  C   UNL     1       1.777   5.137  20.474  0.00  0.00    +0.000 C 
ATOM      6  C   UNL     1       2.234   4.076  21.458  0.00  0.00    +0.000 C 
ATOM      7  C   UNL     1       1.316   2.902  21.139  0.00  0.00    +0.000 C 
ATOM      8  C   UNL     1       1.033   3.037  19.641  0.00  0.00    +0.000 C 
ENDBRANCH   1   2
BRANCH   1   9
ATOM      9  C   UNL     1       4.206   5.846  17.620  0.00  0.00    +0.000 C 
ATOM     10  C   UNL     1       4.800   5.154  18.843  0.00  0.00    +0.000 C 
ATOM     11  C   UNL     1       6.303   5.374  18.688  0.00  0.00    +0.000 C 
ATOM     12  C   UNL     1       6.458   6.659  17.857  0.00  0.00    +0.000 C 
ATOM     13  C   UNL     1       5.029   7.134  17.564  0.00  0.00    +0.000 C 
BRANCH  12  14
ATOM     14  O   UNL     1       7.105   6.377  16.603  0.00  0.00    +0.000 OA
BRANCH  14  15
ATOM     15  C   UNL     1       7.427   5.076  16.398  0.00  0.00    +0.000 C 
ATOM     16  O   UNL     1       8.132   4.390  17.120  0.00  0.00    +0.000 OA
BRANCH  15  17
ATOM     17  C   UNL     1       6.816   4.571  15.136  0.00  0.00    +0.000 A 
ATOM     18  C   UNL     1       5.546   3.975  15.208  0.00  0.00    +0.000 A 
ATOM     19  C   UNL     1       4.943   3.445  14.063  0.00  0.00    +0.000 A 
ATOM     20  C   UNL     1       5.616   3.511  12.836  0.00  0.00    +0.000 A 
ATOM     21  C   UNL     1       6.876   4.117  12.748  0.00  0.00    +0.000 A 
ATOM     22  C   UNL     1       7.474   4.647  13.898  0.00  0.00    +0.000 A 
BRANCH  20  23
ATOM     23  N   UNL     1       5.003   2.923  11.637  0.00  0.00    +0.000 N 
ATOM     24  O   UNL     1       4.101   3.561  11.079  0.00  0.00    +0.000 OA
ATOM     25  O   UNL     1       5.423   1.819  11.259  0.00  0.00    +0.000 OA
ENDBRANCH  20  23
ENDBRANCH  15  17
ENDBRANCH  14  15
ENDBRANCH  12  14
ENDBRANCH   1   9
BRANCH   1  28
ATOM     26  O   UNL     1       2.145   8.720  17.223  0.00  0.00    +0.000 OA
ATOM     27  C   UNL     1       2.049   8.251  18.347  0.00  0.00    +0.000 C 
ATOM     28  N   UNL     1       2.258   6.942  18.662  0.00  0.00    +0.000 N 
ATOM     29  H   UNL     1       2.097   6.657  19.624  0.00  0.00    +0.000 HD
BRANCH  27  30
ATOM     30  O   UNL     1       1.720   8.940  19.461  0.00  0.00    +0.000 OA
BRANCH  30  31
ATOM     31  C   UNL     1       0.699   9.952  19.318  0.00  0.00    +0.000 C 
BRANCH  31  32
ATOM     32  C   UNL     1       0.036  10.106  20.663  0.00  0.00    +0.000 A 
ATOM     33  C   UNL     1      -0.349  11.371  21.131  0.00  0.00    +0.000 A 
ATOM     34  C   UNL     1      -0.821  11.527  22.435  0.00  0.00    +0.000 A 
ATOM     35  C   UNL     1      -0.918  10.423  23.279  0.00  0.00    +0.000 A 
ATOM     36  C   UNL     1      -0.572   9.156  22.812  0.00  0.00    +0.000 A 
ATOM     37  C   UNL     1      -0.101   8.996  21.508  0.00  0.00    +0.000 A 
ENDBRANCH  31  32
ENDBRANCH  30  31
ENDBRANCH  27  30
ENDBRANCH   1  28
TORSDOF 10
ENDMDL
MODEL 2
REMARK VINA RESULT:      -9.4      3.250      9.530
REMARK  Name = 
REMARK  10 active torsions:
REMARK  status: ('A' for Active; 'I' for Inactive)
REMARK    1  A    between atoms: C_2  and  O_29
REMARK    2  A    between atoms: N_3  and  C_4
REMARK    3  A    between atoms: C_4  and  C_5
REMARK    4  A    between atoms: C_4  and  C_12
REMARK    5  A    between atoms: C_15  and  O_16
REMARK    6  A    between atoms: O_16  and  C_17
REMARK    7  A    between atoms: C_17  and  C_19
REMARK    8  A    between atoms: C_22  and  N_23
REMARK    9  A    between atoms: O_29  and  C_30
REMARK   10  A    between atoms: C_30  and  C_31
REMARK                            x       y       z     vdW  Elec       q    Type
REMARK                         _______ _______ _______ _____ _____    ______ ____
ROOT
ATOM      1  C   UNL     1       2.708   5.702  18.452  0.00  0.00    +0.000 C 
ENDROOT
BRANCH   1   2
ATOM      2  C   UNL     1       1.662   4.598  18.746  0.00  0.00    +0.000 C 
ATOM      3  O   UNL     1       1.034   4.069  17.821  0.00  0.00    +0.000 OA
ATOM      4  N   UNL     1       1.518   4.143  20.043  0.00  0.00    +0.000 N 
ATOM      5  C   UNL     1       2.302   4.485  21.218  0.00  0.00    +0.000 C 
ATOM      6  C   UNL     1       2.593   3.122  21.818  0.00  0.00    +0.000 C 
ATOM      7  C   UNL     1       1.280   2.376  21.614  0.00  0.00    +0.000 C 
ATOM      8  C   UNL     1       0.703   2.967  20.325  0.00  0.00    +0.000 C 
ENDBRANCH   1   2
BRANCH   1   9
ATOM      9  C   UNL     1       2.142   7.128  18.361  0.00  0.00    +0.000 C 
ATOM     10  C   UNL     1       3.016   8.061  17.526  0.00  0.00    +0.000 C 
ATOM     11  C   UNL     1       2.400   9.438  17.762  0.00  0.00    +0.000 C 
ATOM     12  C   UNL     1       1.716   9.365  19.137  0.00  0.00    +0.000 C 
ATOM     13  C   UNL     1       1.966   7.939  19.646  0.00  0.00    +0.000 C 
BRANCH  12  14
ATOM     14  O   UNL     1       0.296   9.554  19.009  0.00  0.00    +0.000 OA
BRANCH  14  15
ATOM     15  C   UNL     1      -0.119  10.845  19.020  0.00  0.00    +0.000 C 
ATOM     16  O   UNL     1       0.568  11.816  19.298  0.00  0.00    +0.000 OA
BRANCH  15  17
ATOM     17  C   UNL     1      -1.561  10.942  18.662  0.00  0.00    +0.000 A 
ATOM     18  C   UNL     1      -2.340  11.914  19.312  0.00  0.00    +0.000 A 
ATOM     19  C   UNL     1      -3.709  12.022  19.047  0.00  0.00    +0.000 A 
ATOM     20  C   UNL     1      -4.304  11.150  18.126  0.00  0.00    +0.000 A 
ATOM     21  C   UNL     1      -3.535  10.188  17.459  0.00  0.00    +0.000 A 
ATOM     22  C   UNL     1      -2.165  10.085  17.728  0.00  0.00    +0.000 A 
BRANCH  20  23
ATOM     23  N   UNL     1      -5.749  11.236  17.871  0.00  0.00    +0.000 N 
ATOM     24  O   UNL     1      -6.476  10.373  18.380  0.00  0.00    +0.000 OA
ATOM     25  O   UNL     1      -6.152  12.165  17.155  0.00  0.00    +0.000 OA
ENDBRANCH  20  23
ENDBRANCH  15  17
ENDBRANCH  14  15
ENDBRANCH  12  14
ENDBRANCH   1   9
BRANCH   1  28
ATOM     26  O   UNL     1       5.102   4.153  18.207  0.00  0.00    +0.000 OA
ATOM     27  C   UNL     1       4.570   4.623  17.212  0.00  0.00    +0.000 C 
ATOM     28  N   UNL     1       3.421   5.354  17.219  0.00  0.00    +0.000 N 
ATOM     29  H   UNL     1       3.044   5.648  16.323  0.00  0.00    +0.000 HD
BRANCH  27  30
ATOM     30  O   UNL     1       5.023   4.498  15.946  0.00  0.00    +0.000 OA
BRANCH  30  31
ATOM     31  C   UNL     1       6.453   4.564  15.759  0.00  0.00    +0.000 C 
BRANCH  31  32
ATOM     32  C   UNL     1       6.708   4.558  14.274  0.00  0.00    +0.000 A 
ATOM     33  C   UNL     1       6.065   3.632  13.440  0.00  0.00    +0.000 A 
ATOM     34  C   UNL     1       6.417   3.530  12.094  0.00  0.00    +0.000 A 
ATOM     35  C   UNL     1       7.409   4.355  11.568  0.00  0.00    +0.000 A 
ATOM     36  C   UNL     1       8.029   5.304  12.379  0.00  0.00    +0.000 A 
ATOM     37  C   UNL     1       7.678   5.408  13.726  0.00  0.00    +0.000 A 
ENDBRANCH  31  32
ENDBRANCH  30  31
ENDBRANCH  27  30
ENDBRANCH   1  28
TORSDOF 10
ENDMDL
MODEL 3
REMARK VINA RESULT:      -9.3      2.979      9.295
REMARK  Name = 
REMARK  10 active torsions:
REMARK  status: ('A' for Active; 'I' for Inactive)
REMARK    1  A    between atoms: C_2  and  O_29
REMARK    2  A    between atoms: N_3  and  C_4
REMARK    3  A    between atoms: C_4  and  C_5
REMARK    4  A    between atoms: C_4  and  C_12
REMARK    5  A    between atoms: C_15  and  O_16
REMARK    6  A    between atoms: O_16  and  C_17
REMARK    7  A    between atoms: C_17  and  C_19
REMARK    8  A    between atoms: C_22  and  N_23
REMARK    9  A    between atoms: O_29  and  C_30
REMARK   10  A    between atoms: C_30  and  C_31
REMARK                            x       y       z     vdW  Elec       q    Type
REMARK                         _______ _______ _______ _____ _____    ______ ____
ROOT
ATOM      1  C   UNL     1       2.939   5.889  18.498  0.00  0.00    +0.000 C 
ENDROOT
BRANCH   1   2
ATOM      2  C   UNL     1       2.044   4.624  18.522  0.00  0.00    +0.000 C 
ATOM      3  O   UNL     1       1.794   4.015  17.476  0.00  0.00    +0.000 OA
ATOM      4  N   UNL     1       1.618   4.131  19.741  0.00  0.00    +0.000 N 
ATOM      5  C   UNL     1       1.977   4.576  21.077  0.00  0.00    +0.000 C 
ATOM      6  C   UNL     1       2.304   3.270  21.775  0.00  0.00    +0.000 C 
ATOM      7  C   UNL     1       1.239   2.323  21.236  0.00  0.00    +0.000 C 
ATOM      8  C   UNL     1       0.958   2.833  19.820  0.00  0.00    +0.000 C 
ENDBRANCH   1   2
BRANCH   1   9
ATOM      9  C   UNL     1       2.185   7.223  18.612  0.00  0.00    +0.000 C 
ATOM     10  C   UNL     1       2.651   8.258  17.592  0.00  0.00    +0.000 C 
ATOM     11  C   UNL     1       1.949   9.540  18.032  0.00  0.00    +0.000 C 
ATOM     12  C   UNL     1       1.701   9.388  19.542  0.00  0.00    +0.000 C 
ATOM     13  C   UNL     1       2.273   8.015  19.918  0.00  0.00    +0.000 C 
BRANCH  12  14
ATOM     14  O   UNL     1       0.290   9.380  19.827  0.00  0.00    +0.000 OA
BRANCH  14  15
ATOM     15  C   UNL     1      -0.248  10.590  20.115  0.00  0.00    +0.000 C 
ATOM     16  O   UNL     1       0.159  11.373  20.959  0.00  0.00    +0.000 OA
BRANCH  15  17
ATOM     17  C   UNL     1      -1.446  10.853  19.270  0.00  0.00    +0.000 A 
ATOM     18  C   UNL     1      -1.690   9.997  18.184  0.00  0.00    +0.000 A 
ATOM     19  C   UNL     1      -2.775  10.221  17.330  0.00  0.00    +0.000 A 
ATOM     20  C   UNL     1      -3.622  11.311  17.564  0.00  0.00    +0.000 A 
ATOM     21  C   UNL     1      -3.399  12.164  18.654  0.00  0.00    +0.000 A 
ATOM     22  C   UNL     1      -2.312  11.933  19.505  0.00  0.00    +0.000 A 
BRANCH  20  23
ATOM     23  N   UNL     1      -4.742  11.573  16.650  0.00  0.00    +0.000 N 
ATOM     24  O   UNL     1      -5.759  12.100  17.119  0.00  0.00    +0.000 OA
ATOM     25  O   UNL     1      -4.603  11.244  15.462  0.00  0.00    +0.000 OA
ENDBRANCH  20  23
ENDBRANCH  15  17
ENDBRANCH  14  15
ENDBRANCH  12  14
ENDBRANCH   1   9
BRANCH   1  28
ATOM     26  O   UNL     1       5.793   6.000  18.309  0.00  0.00    +0.000 OA
ATOM     27  C   UNL     1       5.112   5.941  17.296  0.00  0.00    +0.000 C 
ATOM     28  N   UNL     1       3.752   5.863  17.279  0.00  0.00    +0.000 N 
ATOM     29  H   UNL     1       3.297   5.764  16.376  0.00  0.00    +0.000 HD
BRANCH  27  30
ATOM     30  O   UNL     1       5.585   5.938  16.031  0.00  0.00    +0.000 OA
BRANCH  30  31
ATOM     31  C   UNL     1       6.736   5.106  15.771  0.00  0.00    +0.000 C 
BRANCH  31  32
ATOM     32  C   UNL     1       6.697   4.739  14.310  0.00  0.00    +0.000 A 
ATOM     33  C   UNL     1       5.808   3.761  13.840  0.00  0.00    +0.000 A 
ATOM     34  C   UNL     1       5.881   3.317  12.519  0.00  0.00    +0.000 A 
ATOM     35  C   UNL     1       6.837   3.849  11.656  0.00  0.00    +0.000 A 
ATOM     36  C   UNL     1       7.701   4.847  12.103  0.00  0.00    +0.000 A 
ATOM     37  C   UNL     1       7.630   5.294  13.423  0.00  0.00    +0.000 A 
ENDBRANCH  31  32
ENDBRANCH  30  31
ENDBRANCH  27  30
ENDBRANCH   1  28
TORSDOF 10
ENDMDL
MODEL 4
REMARK VINA RESULT:      -9.2      2.849     10.083
REMARK  Name = 
REMARK  10 active torsions:
REMARK  status: ('A' for Active; 'I' for Inactive)
REMARK    1  A    between atoms: C_2  and  O_29
REMARK    2  A    between atoms: N_3  and  C_4
REMARK    3  A    between atoms: C_4  and  C_5
REMARK    4  A    between atoms: C_4  and  C_12
REMARK    5  A    between atoms: C_15  and  O_16
REMARK    6  A    between atoms: O_16  and  C_17
REMARK    7  A    between atoms: C_17  and  C_19
REMARK    8  A    between atoms: C_22  and  N_23
REMARK    9  A    between atoms: O_29  and  C_30
REMARK   10  A    between atoms: C_30  and  C_31
REMARK                            x       y       z     vdW  Elec       q    Type
REMARK                         _______ _______ _______ _____ _____    ______ ____
ROOT
ATOM      1  C   UNL     1       2.853   6.279  18.555  0.00  0.00    +0.000 C 
ENDROOT
BRANCH   1   2
ATOM      2  C   UNL     1       2.052   4.953  18.517  0.00  0.00    +0.000 C 
ATOM      3  O   UNL     1       1.874   4.360  17.447  0.00  0.00    +0.000 OA
ATOM      4  N   UNL     1       1.633   4.392  19.709  0.00  0.00    +0.000 N 
ATOM      5  C   UNL     1       1.923   4.821  21.067  0.00  0.00    +0.000 C 
ATOM      6  C   UNL     1       2.327   3.520  21.736  0.00  0.00    +0.000 C 
ATOM      7  C   UNL     1       1.348   2.516  21.140  0.00  0.00    +0.000 C 
ATOM      8  C   UNL     1       1.067   3.048  19.732  0.00  0.00    +0.000 C 
ENDBRANCH   1   2
BRANCH   1   9
ATOM      9  C   UNL     1       1.998   7.555  18.584  0.00  0.00    +0.000 C 
ATOM     10  C   UNL     1       2.544   8.656  17.680  0.00  0.00    +0.000 C 
ATOM     11  C   UNL     1       1.693   9.872  18.038  0.00  0.00    +0.000 C 
ATOM     12  C   UNL     1       1.223   9.647  19.484  0.00  0.00    +0.000 C 
ATOM     13  C   UNL     1       1.825   8.301  19.909  0.00  0.00    +0.000 C 
BRANCH  12  14
ATOM     14  O   UNL     1      -0.211   9.536  19.541  0.00  0.00    +0.000 OA
BRANCH  14  15
ATOM     15  C   UNL     1      -0.893  10.603  19.057  0.00  0.00    +0.000 C 
ATOM     16  O   UNL     1      -1.413  10.683  17.956  0.00  0.00    +0.000 OA
BRANCH  15  17
ATOM     17  C   UNL     1      -0.918  11.712  20.052  0.00  0.00    +0.000 A 
ATOM     18  C   UNL     1      -0.975  11.376  21.415  0.00  0.00    +0.000 A 
ATOM     19  C   UNL     1      -1.044  12.375  22.392  0.00  0.00    +0.000 A 
ATOM     20  C   UNL     1      -1.057  13.720  22.002  0.00  0.00    +0.000 A 
ATOM     21  C   UNL     1      -0.983  14.068  20.647  0.00  0.00    +0.000 A 
ATOM     22  C   UNL     1      -0.913  13.063  19.674  0.00  0.00    +0.000 A 
BRANCH  20  23
ATOM     23  N   UNL     1      -1.165  14.773  23.021  0.00  0.00    +0.000 N 
ATOM     24  O   UNL     1      -0.146  15.064  23.660  0.00  0.00    +0.000 OA
ATOM     25  O   UNL     1      -2.275  15.302  23.184  0.00  0.00    +0.000 OA
ENDBRANCH  20  23
ENDBRANCH  15  17
ENDBRANCH  14  15
ENDBRANCH  12  14
ENDBRANCH   1   9
BRANCH   1  28
ATOM     26  O   UNL     1       5.624   5.565  18.537  0.00  0.00    +0.000 OA
ATOM     27  C   UNL     1       5.085   5.960  17.513  0.00  0.00    +0.000 C 
ATOM     28  N   UNL     1       3.771   6.302  17.412  0.00  0.00    +0.000 N 
ATOM     29  H   UNL     1       3.421   6.567  16.495  0.00  0.00    +0.000 HD
BRANCH  27  30
ATOM     30  O   UNL     1       5.691   6.120  16.317  0.00  0.00    +0.000 OA
BRANCH  30  31
ATOM     31  C   UNL     1       6.935   5.412  16.121  0.00  0.00    +0.000 C 
BRANCH  31  32
ATOM     32  C   UNL     1       6.906   4.843  14.726  0.00  0.00    +0.000 A 
ATOM     33  C   UNL     1       7.758   5.343  13.731  0.00  0.00    +0.000 A 
ATOM     34  C   UNL     1       7.623   4.920  12.407  0.00  0.00    +0.000 A 
ATOM     35  C   UNL     1       6.641   3.992  12.069  0.00  0.00    +0.000 A 
ATOM     36  C   UNL     1       5.813   3.461  13.057  0.00  0.00    +0.000 A 
ATOM     37  C   UNL     1       5.947   3.881  14.381  0.00  0.00    +0.000 A 
ENDBRANCH  31  32
ENDBRANCH  30  31
ENDBRANCH  27  30
ENDBRANCH   1  28
TORSDOF 10
ENDMDL
MODEL 5
REMARK VINA RESULT:      -9.2      0.538      1.376
REMARK  Name = 
REMARK  10 active torsions:
REMARK  status: ('A' for Active; 'I' for Inactive)
REMARK    1  A    between atoms: C_2  and  O_29
REMARK    2  A    between atoms: N_3  and  C_4
REMARK    3  A    between atoms: C_4  and  C_5
REMARK    4  A    between atoms: C_4  and  C_12
REMARK    5  A    between atoms: C_15  and  O_16
REMARK    6  A    between atoms: O_16  and  C_17
REMARK    7  A    between atoms: C_17  and  C_19
REMARK    8  A    between atoms: C_22  and  N_23
REMARK    9  A    between atoms: O_29  and  C_30
REMARK   10  A    between atoms: C_30  and  C_31
REMARK                            x       y       z     vdW  Elec       q    Type
REMARK                         _______ _______ _______ _____ _____    ______ ____
ROOT
ATOM      1  C   UNL     1       2.670   6.018  18.058  0.00  0.00    +0.000 C 
ENDROOT
BRANCH   1   2
ATOM      2  C   UNL     1       1.950   4.655  18.213  0.00  0.00    +0.000 C 
ATOM      3  O   UNL     1       1.815   3.905  17.240  0.00  0.00    +0.000 OA
ATOM      4  N   UNL     1       1.556   4.248  19.474  0.00  0.00    +0.000 N 
ATOM      5  C   UNL     1       1.811   4.884  20.755  0.00  0.00    +0.000 C 
ATOM      6  C   UNL     1       2.286   3.720  21.604  0.00  0.00    +0.000 C 
ATOM      7  C   UNL     1       1.372   2.584  21.161  0.00  0.00    +0.000 C 
ATOM      8  C   UNL     1       1.071   2.890  19.692  0.00  0.00    +0.000 C 
ENDBRANCH   1   2
BRANCH   1   9
ATOM      9  C   UNL     1       4.189   5.931  17.842  0.00  0.00    +0.000 C 
ATOM     10  C   UNL     1       4.924   5.318  19.031  0.00  0.00    +0.000 C 
ATOM     11  C   UNL     1       6.397   5.541  18.698  0.00  0.00    +0.000 C 
ATOM     12  C   UNL     1       6.441   6.776  17.784  0.00  0.00    +0.000 C 
ATOM     13  C   UNL     1       4.981   7.221  17.622  0.00  0.00    +0.000 C 
BRANCH  12  14
ATOM     14  O   UNL     1       6.950   6.427  16.484  0.00  0.00    +0.000 OA
BRANCH  14  15
ATOM     15  C   UNL     1       7.318   5.131  16.336  0.00  0.00    +0.000 C 
ATOM     16  O   UNL     1       8.086   4.516  17.059  0.00  0.00    +0.000 OA
BRANCH  15  17
ATOM     17  C   UNL     1       6.670   4.529  15.137  0.00  0.00    +0.000 A 
ATOM     18  C   UNL     1       7.408   4.474  13.944  0.00  0.00    +0.000 A 
ATOM     19  C   UNL     1       6.836   3.959  12.776  0.00  0.00    +0.000 A 
ATOM     20  C   UNL     1       5.514   3.497  12.802  0.00  0.00    +0.000 A 
ATOM     21  C   UNL     1       4.772   3.531  13.991  0.00  0.00    +0.000 A 
ATOM     22  C   UNL     1       5.351   4.047  15.156  0.00  0.00    +0.000 A 
BRANCH  20  23
ATOM     23  N   UNL     1       4.895   2.989  11.570  0.00  0.00    +0.000 N 
ATOM     24  O   UNL     1       5.337   1.933  11.096  0.00  0.00    +0.000 OA
ATOM     25  O   UNL     1       3.971   3.651  11.075  0.00  0.00    +0.000 OA
ENDBRANCH  20  23
ENDBRANCH  15  17
ENDBRANCH  14  15
ENDBRANCH  12  14
ENDBRANCH   1   9
BRANCH   1  28
ATOM     26  O   UNL     1       1.645   8.690  18.084  0.00  0.00    +0.000 OA
ATOM     27  C   UNL     1       1.896   8.119  19.134  0.00  0.00    +0.000 C 
ATOM     28  N   UNL     1       2.365   6.844  19.230  0.00  0.00    +0.000 N 
ATOM     29  H   UNL     1       2.488   6.455  20.161  0.00  0.00    +0.000 HD
BRANCH  27  30
ATOM     30  O   UNL     1       1.750   8.645  20.370  0.00  0.00    +0.000 OA
BRANCH  30  31
ATOM     31  C   UNL     1       0.543   8.299  21.083  0.00  0.00    +0.000 C 
BRANCH  31  32
ATOM     32  C   UNL     1      -0.104   9.591  21.512  0.00  0.00    +0.000 A 
ATOM     33  C   UNL     1      -0.506   9.783  22.842  0.00  0.00    +0.000 A 
ATOM     34  C   UNL     1      -1.239  10.915  23.201  0.00  0.00    +0.000 A 
ATOM     35  C   UNL     1      -1.573  11.865  22.237  0.00  0.00    +0.000 A 
ATOM     36  C   UNL     1      -1.147  11.701  20.920  0.00  0.00    +0.000 A 
ATOM     37  C   UNL     1      -0.412  10.571  20.559  0.00  0.00    +0.000 A 
ENDBRANCH  31  32
ENDBRANCH  30  31
ENDBRANCH  27  30
ENDBRANCH   1  28
TORSDOF 10
ENDMDL
MODEL 6
REMARK VINA RESULT:      -9.2      3.263      8.759
REMARK  Name = 
REMARK  10 active torsions:
REMARK  status: ('A' for Active; 'I' for Inactive)
REMARK    1  A    between atoms: C_2  and  O_29
REMARK    2  A    between atoms: N_3  and  C_4
REMARK    3  A    between atoms: C_4  and  C_5
REMARK    4  A    between atoms: C_4  and  C_12
REMARK    5  A    between atoms: C_15  and  O_16
REMARK    6  A    between atoms: O_16  and  C_17
REMARK    7  A    between atoms: C_17  and  C_19
REMARK    8  A    between atoms: C_22  and  N_23
REMARK    9  A    between atoms: O_29  and  C_30
REMARK   10  A    between atoms: C_30  and  C_31
REMARK                            x       y       z     vdW  Elec       q    Type
REMARK                         _______ _______ _______ _____ _____    ______ ____
ROOT
ATOM      1  C   UNL     1       2.799   5.683  18.473  0.00  0.00    +0.000 C 
ENDROOT
BRANCH   1   2
ATOM      2  C   UNL     1       1.710   4.604  18.700  0.00  0.00    +0.000 C 
ATOM      3  O   UNL     1       1.114   4.105  17.738  0.00  0.00    +0.000 OA
ATOM      4  N   UNL     1       1.491   4.135  19.982  0.00  0.00    +0.000 N 
ATOM      5  C   UNL     1       2.226   4.439  21.198  0.00  0.00    +0.000 C 
ATOM      6  C   UNL     1       2.451   3.060  21.791  0.00  0.00    +0.000 C 
ATOM      7  C   UNL     1       1.129   2.353  21.512  0.00  0.00    +0.000 C 
ATOM      8  C   UNL     1       0.632   2.978  20.206  0.00  0.00    +0.000 C 
ENDBRANCH   1   2
BRANCH   1   9
ATOM      9  C   UNL     1       2.270   7.112  18.276  0.00  0.00    +0.000 C 
ATOM     10  C   UNL     1       3.230   7.997  17.488  0.00  0.00    +0.000 C 
ATOM     11  C   UNL     1       2.621   9.391  17.613  0.00  0.00    +0.000 C 
ATOM     12  C   UNL     1       1.816   9.384  18.924  0.00  0.00    +0.000 C 
ATOM     13  C   UNL     1       1.994   7.976  19.508  0.00  0.00    +0.000 C 
BRANCH  12  14
ATOM     14  O   UNL     1       0.417   9.588  18.661  0.00  0.00    +0.000 OA
BRANCH  14  15
ATOM     15  C   UNL     1      -0.015  10.867  18.792  0.00  0.00    +0.000 C 
ATOM     16  O   UNL     1       0.681  11.837  19.046  0.00  0.00    +0.000 OA
BRANCH  15  17
ATOM     17  C   UNL     1      -1.491  10.950  18.602  0.00  0.00    +0.000 A 
ATOM     18  C   UNL     1      -2.090  10.075  17.681  0.00  0.00    +0.000 A 
ATOM     19  C   UNL     1      -3.464  10.137  17.431  0.00  0.00    +0.000 A 
ATOM     20  C   UNL     1      -4.245  11.084  18.105  0.00  0.00    +0.000 A 
ATOM     21  C   UNL     1      -3.663  11.952  19.038  0.00  0.00    +0.000 A 
ATOM     22  C   UNL     1      -2.286  11.884  19.285  0.00  0.00    +0.000 A 
BRANCH  20  23
ATOM     23  N   UNL     1      -5.683  11.179  17.819  0.00  0.00    +0.000 N 
ATOM     24  O   UNL     1      -6.060  12.069  17.045  0.00  0.00    +0.000 OA
ATOM     25  O   UNL     1      -6.435  10.363  18.375  0.00  0.00    +0.000 OA
ENDBRANCH  20  23
ENDBRANCH  15  17
ENDBRANCH  14  15
ENDBRANCH  12  14
ENDBRANCH   1   9
BRANCH   1  28
ATOM     26  O   UNL     1       4.382   3.311  18.223  0.00  0.00    +0.000 OA
ATOM     27  C   UNL     1       4.360   4.134  17.319  0.00  0.00    +0.000 C 
ATOM     28  N   UNL     1       3.625   5.280  17.331  0.00  0.00    +0.000 N 
ATOM     29  H   UNL     1       3.646   5.862  16.499  0.00  0.00    +0.000 HD
BRANCH  27  30
ATOM     30  O   UNL     1       5.052   4.048  16.162  0.00  0.00    +0.000 OA
BRANCH  30  31
ATOM     31  C   UNL     1       5.641   5.269  15.667  0.00  0.00    +0.000 C 
BRANCH  31  32
ATOM     32  C   UNL     1       6.623   5.741  16.709  0.00  0.00    +0.000 A 
ATOM     33  C   UNL     1       7.234   4.830  17.583  0.00  0.00    +0.000 A 
ATOM     34  C   UNL     1       8.022   5.285  18.640  0.00  0.00    +0.000 A 
ATOM     35  C   UNL     1       8.212   6.653  18.830  0.00  0.00    +0.000 A 
ATOM     36  C   UNL     1       7.639   7.565  17.946  0.00  0.00    +0.000 A 
ATOM     37  C   UNL     1       6.851   7.112  16.887  0.00  0.00    +0.000 A 
ENDBRANCH  31  32
ENDBRANCH  30  31
ENDBRANCH  27  30
ENDBRANCH   1  28
TORSDOF 10
ENDMDL
MODEL 7
REMARK VINA RESULT:      -9.1      2.917     10.203
REMARK  Name = 
REMARK  10 active torsions:
REMARK  status: ('A' for Active; 'I' for Inactive)
REMARK    1  A    between atoms: C_2  and  O_29
REMARK    2  A    between atoms: N_3  and  C_4
REMARK    3  A    between atoms: C_4  and  C_5
REMARK    4  A    between atoms: C_4  and  C_12
REMARK    5  A    between atoms: C_15  and  O_16
REMARK    6  A    between atoms: O_16  and  C_17
REMARK    7  A    between atoms: C_17  and  C_19
REMARK    8  A    between atoms: C_22  and  N_23
REMARK    9  A    between atoms: O_29  and  C_30
REMARK   10  A    between atoms: C_30  and  C_31
REMARK                            x       y       z     vdW  Elec       q    Type
REMARK                         _______ _______ _______ _____ _____    ______ ____
ROOT
ATOM      1  C   UNL     1       2.634   5.959  18.519  0.00  0.00    +0.000 C 
ENDROOT
BRANCH   1   2
ATOM      2  C   UNL     1       1.661   4.768  18.708  0.00  0.00    +0.000 C 
ATOM      3  O   UNL     1       1.136   4.227  17.728  0.00  0.00    +0.000 OA
ATOM      4  N   UNL     1       1.472   4.255  19.978  0.00  0.00    +0.000 N 
ATOM      5  C   UNL     1       2.151   4.612  21.212  0.00  0.00    +0.000 C 
ATOM      6  C   UNL     1       2.510   3.254  21.786  0.00  0.00    +0.000 C 
ATOM      7  C   UNL     1       1.275   2.418  21.472  0.00  0.00    +0.000 C 
ATOM      8  C   UNL     1       0.736   3.011  20.168  0.00  0.00    +0.000 C 
ENDBRANCH   1   2
BRANCH   1   9
ATOM      9  C   UNL     1       1.975   7.347  18.531  0.00  0.00    +0.000 C 
ATOM     10  C   UNL     1       2.678   8.345  17.615  0.00  0.00    +0.000 C 
ATOM     11  C   UNL     1       2.013   9.677  17.956  0.00  0.00    +0.000 C 
ATOM     12  C   UNL     1       1.512   9.541  19.403  0.00  0.00    +0.000 C 
ATOM     13  C   UNL     1       1.910   8.126  19.845  0.00  0.00    +0.000 C 
BRANCH  12  14
ATOM     14  O   UNL     1       0.078   9.641  19.456  0.00  0.00    +0.000 OA
BRANCH  14  15
ATOM     15  C   UNL     1      -0.425  10.875  19.206  0.00  0.00    +0.000 C 
ATOM     16  O   UNL     1      -0.291  11.508  18.171  0.00  0.00    +0.000 OA
BRANCH  15  17
ATOM     17  C   UNL     1      -1.168  11.394  20.388  0.00  0.00    +0.000 A 
ATOM     18  C   UNL     1      -0.748  10.987  21.665  0.00  0.00    +0.000 A 
ATOM     19  C   UNL     1      -1.434  11.408  22.808  0.00  0.00    +0.000 A 
ATOM     20  C   UNL     1      -2.551  12.243  22.673  0.00  0.00    +0.000 A 
ATOM     21  C   UNL     1      -2.971  12.670  21.406  0.00  0.00    +0.000 A 
ATOM     22  C   UNL     1      -2.278  12.245  20.266  0.00  0.00    +0.000 A 
BRANCH  20  23
ATOM     23  N   UNL     1      -3.298  12.659  23.868  0.00  0.00    +0.000 N 
ATOM     24  O   UNL     1      -4.152  11.882  24.314  0.00  0.00    +0.000 OA
ATOM     25  O   UNL     1      -3.031  13.768  24.355  0.00  0.00    +0.000 OA
ENDBRANCH  20  23
ENDBRANCH  15  17
ENDBRANCH  14  15
ENDBRANCH  12  14
ENDBRANCH   1   9
BRANCH   1  28
ATOM     26  O   UNL     1       4.914   4.277  18.117  0.00  0.00    +0.000 OA
ATOM     27  C   UNL     1       4.473   4.945  17.193  0.00  0.00    +0.000 C 
ATOM     28  N   UNL     1       3.383   5.757  17.276  0.00  0.00    +0.000 N 
ATOM     29  H   UNL     1       3.076   6.223  16.426  0.00  0.00    +0.000 HD
BRANCH  27  30
ATOM     30  O   UNL     1       4.981   4.989  15.943  0.00  0.00    +0.000 OA
BRANCH  30  31
ATOM     31  C   UNL     1       6.415   5.111  15.830  0.00  0.00    +0.000 C 
BRANCH  31  32
ATOM     32  C   UNL     1       6.781   4.759  14.411  0.00  0.00    +0.000 A 
ATOM     33  C   UNL     1       7.766   5.484  13.724  0.00  0.00    +0.000 A 
ATOM     34  C   UNL     1       7.993   5.254  12.366  0.00  0.00    +0.000 A 
ATOM     35  C   UNL     1       7.242   4.298  11.686  0.00  0.00    +0.000 A 
ATOM     36  C   UNL     1       6.286   3.547  12.367  0.00  0.00    +0.000 A 
ATOM     37  C   UNL     1       6.058   3.773  13.725  0.00  0.00    +0.000 A 
ENDBRANCH  31  32
ENDBRANCH  30  31
ENDBRANCH  27  30
ENDBRANCH   1  28
TORSDOF 10
ENDMDL
MODEL 8
REMARK VINA RESULT:      -9.1      5.023     11.640
REMARK  Name = 
REMARK  10 active torsions:
REMARK  status: ('A' for Active; 'I' for Inactive)
REMARK    1  A    between atoms: C_2  and  O_29
REMARK    2  A    between atoms: N_3  and  C_4
REMARK    3  A    between atoms: C_4  and  C_5
REMARK    4  A    between atoms: C_4  and  C_12
REMARK    5  A    between atoms: C_15  and  O_16
REMARK    6  A    between atoms: O_16  and  C_17
REMARK    7  A    between atoms: C_17  and  C_19
REMARK    8  A    between atoms: C_22  and  N_23
REMARK    9  A    between atoms: O_29  and  C_30
REMARK   10  A    between atoms: C_30  and  C_31
REMARK                            x       y       z     vdW  Elec       q    Type
REMARK                         _______ _______ _______ _____ _____    ______ ____
ROOT
ATOM      1  C   UNL     1       0.540  11.171  18.962  0.00  0.00    +0.000 C 
ENDROOT
BRANCH   1   2
ATOM      2  C   UNL     1       0.978  12.171  20.061  0.00  0.00    +0.000 C 
ATOM      3  O   UNL     1       0.869  11.873  21.256  0.00  0.00    +0.000 OA
ATOM      4  N   UNL     1       1.587  13.354  19.685  0.00  0.00    +0.000 N 
ATOM      5  C   UNL     1       1.990  13.785  18.357  0.00  0.00    +0.000 C 
ATOM      6  C   UNL     1       3.404  14.280  18.596  0.00  0.00    +0.000 C 
ATOM      7  C   UNL     1       3.291  14.990  19.940  0.00  0.00    +0.000 C 
ATOM      8  C   UNL     1       2.201  14.218  20.686  0.00  0.00    +0.000 C 
ENDBRANCH   1   2
BRANCH   1   9
ATOM      9  C   UNL     1      -0.971  11.125  18.688  0.00  0.00    +0.000 C 
ATOM     10  C   UNL     1      -1.480   9.714  18.407  0.00  0.00    +0.000 C 
ATOM     11  C   UNL     1      -2.919   9.934  17.947  0.00  0.00    +0.000 C 
ATOM     12  C   UNL     1      -2.959  11.352  17.351  0.00  0.00    +0.000 C 
ATOM     13  C   UNL     1      -1.532  11.898  17.492  0.00  0.00    +0.000 C 
BRANCH  12  14
ATOM     14  O   UNL     1      -3.841  12.197  18.112  0.00  0.00    +0.000 OA
BRANCH  14  15
ATOM     15  C   UNL     1      -5.092  11.708  18.298  0.00  0.00    +0.000 C 
ATOM     16  O   UNL     1      -5.771  11.138  17.459  0.00  0.00    +0.000 OA
BRANCH  15  17
ATOM     17  C   UNL     1      -5.564  11.973  19.686  0.00  0.00    +0.000 A 
ATOM     18  C   UNL     1      -4.648  12.513  20.604  0.00  0.00    +0.000 A 
ATOM     19  C   UNL     1      -5.023  12.743  21.932  0.00  0.00    +0.000 A 
ATOM     20  C   UNL     1      -6.324  12.429  22.344  0.00  0.00    +0.000 A 
ATOM     21  C   UNL     1      -7.252  11.905  21.434  0.00  0.00    +0.000 A 
ATOM     22  C   UNL     1      -6.870  11.679  20.106  0.00  0.00    +0.000 A 
BRANCH  20  23
ATOM     23  N   UNL     1      -6.713  12.634  23.746  0.00  0.00    +0.000 N 
ATOM     24  O   UNL     1      -7.916  12.786  23.995  0.00  0.00    +0.000 OA
ATOM     25  O   UNL     1      -5.811  12.648  24.597  0.00  0.00    +0.000 OA
ENDBRANCH  20  23
ENDBRANCH  15  17
ENDBRANCH  14  15
ENDBRANCH  12  14
ENDBRANCH   1   9
BRANCH   1  28
ATOM     26  O   UNL     1       2.216   9.466  17.388  0.00  0.00    +0.000 OA
ATOM     27  C   UNL     1       1.819   9.097  18.483  0.00  0.00    +0.000 C 
ATOM     28  N   UNL     1       1.038   9.839  19.316  0.00  0.00    +0.000 N 
ATOM     29  H   UNL     1       0.814   9.448  20.227  0.00  0.00    +0.000 HD
BRANCH  27  30
ATOM     30  O   UNL     1       2.087   7.902  19.054  0.00  0.00    +0.000 OA
BRANCH  30  31
ATOM     31  C   UNL     1       2.615   6.874  18.188  0.00  0.00    +0.000 C 
BRANCH  31  32
ATOM     32  C   UNL     1       2.151   5.550  18.736  0.00  0.00    +0.000 A 
ATOM     33  C   UNL     1       1.695   4.539  17.877  0.00  0.00    +0.000 A 
ATOM     34  C   UNL     1       1.125   3.375  18.396  0.00  0.00    +0.000 A 
ATOM     35  C   UNL     1       1.010   3.210  19.775  0.00  0.00    +0.000 A 
ATOM     36  C   UNL     1       1.492   4.192  20.637  0.00  0.00    +0.000 A 
ATOM     37  C   UNL     1       2.064   5.356  20.122  0.00  0.00    +0.000 A 
ENDBRANCH  31  32
ENDBRANCH  30  31
ENDBRANCH  27  30
ENDBRANCH   1  28
TORSDOF 10
ENDMDL
MODEL 9
REMARK VINA RESULT:      -9.1      0.910      1.403
REMARK  Name = 
REMARK  10 active torsions:
REMARK  status: ('A' for Active; 'I' for Inactive)
REMARK    1  A    between atoms: C_2  and  O_29
REMARK    2  A    between atoms: N_3  and  C_4
REMARK    3  A    between atoms: C_4  and  C_5
REMARK    4  A    between atoms: C_4  and  C_12
REMARK    5  A    between atoms: C_15  and  O_16
REMARK    6  A    between atoms: O_16  and  C_17
REMARK    7  A    between atoms: C_17  and  C_19
REMARK    8  A    between atoms: C_22  and  N_23
REMARK    9  A    between atoms: O_29  and  C_30
REMARK   10  A    between atoms: C_30  and  C_31
REMARK                            x       y       z     vdW  Elec       q    Type
REMARK                         _______ _______ _______ _____ _____    ______ ____
ROOT
ATOM      1  C   UNL     1       2.624   5.846  18.042  0.00  0.00    +0.000 C 
ENDROOT
BRANCH   1   2
ATOM      2  C   UNL     1       1.678   4.650  18.317  0.00  0.00    +0.000 C 
ATOM      3  O   UNL     1       1.262   3.954  17.384  0.00  0.00    +0.000 OA
ATOM      4  N   UNL     1       1.392   4.312  19.627  0.00  0.00    +0.000 N 
ATOM      5  C   UNL     1       1.944   4.869  20.850  0.00  0.00    +0.000 C 
ATOM      6  C   UNL     1       2.294   3.623  21.641  0.00  0.00    +0.000 C 
ATOM      7  C   UNL     1       1.121   2.696  21.347  0.00  0.00    +0.000 C 
ATOM      8  C   UNL     1       0.683   3.075  19.930  0.00  0.00    +0.000 C 
ENDBRANCH   1   2
BRANCH   1   9
ATOM      9  C   UNL     1       4.123   5.511  18.077  0.00  0.00    +0.000 C 
ATOM     10  C   UNL     1       4.660   5.334  19.494  0.00  0.00    +0.000 C 
ATOM     11  C   UNL     1       6.171   5.242  19.299  0.00  0.00    +0.000 C 
ATOM     12  C   UNL     1       6.477   6.006  18.000  0.00  0.00    +0.000 C 
ATOM     13  C   UNL     1       5.120   6.513  17.492  0.00  0.00    +0.000 C 
BRANCH  12  14
ATOM     14  O   UNL     1       7.025   5.121  17.008  0.00  0.00    +0.000 OA
BRANCH  14  15
ATOM     15  C   UNL     1       7.361   5.707  15.832  0.00  0.00    +0.000 C 
ATOM     16  O   UNL     1       8.008   6.734  15.702  0.00  0.00    +0.000 OA
BRANCH  15  17
ATOM     17  C   UNL     1       6.813   4.938  14.680  0.00  0.00    +0.000 A 
ATOM     18  C   UNL     1       5.608   4.240  14.864  0.00  0.00    +0.000 A 
ATOM     19  C   UNL     1       5.069   3.466  13.831  0.00  0.00    +0.000 A 
ATOM     20  C   UNL     1       5.742   3.389  12.605  0.00  0.00    +0.000 A 
ATOM     21  C   UNL     1       6.936   4.093  12.403  0.00  0.00    +0.000 A 
ATOM     22  C   UNL     1       7.469   4.867  13.441  0.00  0.00    +0.000 A 
BRANCH  20  23
ATOM     23  N   UNL     1       5.200   2.549  11.529  0.00  0.00    +0.000 N 
ATOM     24  O   UNL     1       4.131   2.895  11.009  0.00  0.00    +0.000 OA
ATOM     25  O   UNL     1       5.843   1.538  11.208  0.00  0.00    +0.000 OA
ENDBRANCH  20  23
ENDBRANCH  15  17
ENDBRANCH  14  15
ENDBRANCH  12  14
ENDBRANCH   1   9
BRANCH   1  28
ATOM     26  O   UNL     1       2.127   8.604  17.461  0.00  0.00    +0.000 OA
ATOM     27  C   UNL     1       2.113   8.207  18.617  0.00  0.00    +0.000 C 
ATOM     28  N   UNL     1       2.315   6.915  18.996  0.00  0.00    +0.000 N 
ATOM     29  H   UNL     1       2.228   6.694  19.984  0.00  0.00    +0.000 HD
BRANCH  27  30
ATOM     30  O   UNL     1       1.893   8.973  19.708  0.00  0.00    +0.000 OA
BRANCH  30  31
ATOM     31  C   UNL     1       0.624   8.802  20.374  0.00  0.00    +0.000 C 
BRANCH  31  32
ATOM     32  C   UNL     1      -0.187  10.044  20.109  0.00  0.00    +0.000 A 
ATOM     33  C   UNL     1      -0.416  10.981  21.127  0.00  0.00    +0.000 A 
ATOM     34  C   UNL     1      -1.291  12.049  20.920  0.00  0.00    +0.000 A 
ATOM     35  C   UNL     1      -1.939  12.192  19.695  0.00  0.00    +0.000 A 
ATOM     36  C   UNL     1      -1.691  11.288  18.665  0.00  0.00    +0.000 A 
ATOM     37  C   UNL     1      -0.815  10.220  18.868  0.00  0.00    +0.000 A 
ENDBRANCH  31  32
ENDBRANCH  30  31
ENDBRANCH  27  30
ENDBRANCH   1  28
TORSDOF 10
ENDMDL
