MODEL 1
REMARK VINA RESULT:      -8.5      0.000      0.000
REMARK  Name = 
REMARK  14 active torsions:
REMARK  status: ('A' for Active; 'I' for Inactive)
REMARK    1  A    between atoms: C_1  and  C_2
REMARK    2  A    between atoms: C_2  and  C_3
REMARK    3  A    between atoms: C_2  and  C_4
REMARK    4  A    between atoms: C_2  and  O_5
REMARK    5  A    between atoms: O_5  and  C_6
REMARK    6  A    between atoms: N_8  and  C_9
REMARK    7  A    between atoms: C_9  and  C_10
REMARK    8  A    between atoms: C_9  and  C_18
REMARK    9  A    between atoms: C_10  and  C_11
REMARK   10  A    between atoms: N_20  and  N_21
REMARK   11  A    between atoms: C_22  and  C_23
REMARK   12  A    between atoms: C_26  and  O_27
REMARK   13  A    between atoms: C_28  and  O_29
REMARK   14  A    between atoms: C_30  and  O_31
REMARK                            x       y       z     vdW  Elec       q    Type
REMARK                         _______ _______ _______ _____ _____    ______ ____
ROOT
ATOM      1  C   UNL     1       6.186   5.515  17.660  0.00  0.00    +0.000 C 
ENDROOT
BRANCH   1   4
ATOM      2  C   UNL     1       4.415   4.138  18.760  0.00  0.00    +0.000 C 
ATOM      3  O   UNL     1       4.532   3.233  17.944  0.00  0.00    +0.000 OA
ATOM      4  N   UNL     1       5.188   5.276  18.718  0.00  0.00    +0.000 N 
ATOM      5  H   UNL     1       5.079   5.962  19.452  0.00  0.00    +0.000 HD
BRANCH   2   6
ATOM      6  O   UNL     1       3.510   4.173  19.775  0.00  0.00    +0.000 OA
BRANCH   6   8
ATOM      7  C   UNL     1       2.210   6.284  19.827  0.00  0.00    +0.000 C 
ATOM      8  C   UNL     1       2.194   4.775  19.542  0.00  0.00    +0.000 C 
ATOM      9  C   UNL     1       1.083   4.080  20.343  0.00  0.00    +0.000 C 
ATOM     10  C   UNL     1       1.884   4.586  18.043  0.00  0.00    +0.000 C 
ENDBRANCH   6   8
ENDBRANCH   2   6
ENDBRANCH   1   4
BRANCH   1  11
ATOM     11  C   UNL     1       7.294   6.480  18.178  0.00  0.00    +0.000 C 
ATOM     12  O   UNL     1       8.077   6.123  19.061  0.00  0.00    +0.000 OA
ATOM     13  N   UNL     1       7.351   7.727  17.541  0.00  0.00    +0.000 N 
ATOM     14  H   UNL     1       6.722   7.975  16.785  0.00  0.00    +0.000 HD
BRANCH  13  15
ATOM     15  N   UNL     1       8.280   8.654  17.954  0.00  0.00    +0.000 NA
ATOM     16  C   UNL     1       8.012   9.907  17.733  0.00  0.00    +0.000 C 
BRANCH  16  17
ATOM     17  C   UNL     1       8.954  10.988  18.151  0.00  0.00    +0.000 A 
ATOM     18  C   UNL     1      10.023  10.695  19.014  0.00  0.00    +0.000 A 
ATOM     19  C   UNL     1      10.908  11.701  19.435  0.00  0.00    +0.000 A 
ATOM     20  C   UNL     1      10.717  13.004  18.991  0.00  0.00    +0.000 A 
ATOM     21  C   UNL     1       9.666  13.298  18.132  0.00  0.00    +0.000 A 
ATOM     22  C   UNL     1       8.784  12.302  17.707  0.00  0.00    +0.000 A 
BRANCH  20  23
ATOM     23  O   UNL     1      11.534  14.031  19.374  0.00  0.00    +0.000 OA
ATOM     24  H   UNL     1      11.425  14.170  20.331  0.00  0.00    +0.000 HD
ENDBRANCH  20  23
BRANCH  21  25
ATOM     25  O   UNL     1       9.474  14.583  17.696  0.00  0.00    +0.000 OA
ATOM     26  H   UNL     1       8.552  14.793  17.961  0.00  0.00    +0.000 HD
ENDBRANCH  21  25
BRANCH  22  27
ATOM     27  O   UNL     1       7.764  12.656  16.862  0.00  0.00    +0.000 OA
ATOM     28  H   UNL     1       7.232  11.838  16.766  0.00  0.00    +0.000 HD
ENDBRANCH  22  27
ENDBRANCH  16  17
ENDBRANCH  13  15
ENDBRANCH   1  11
BRANCH   1  29
ATOM     29  C   UNL     1       5.553   5.993  16.329  0.00  0.00    +0.000 C 
BRANCH  29  30
ATOM     30  C   UNL     1       6.032   5.234  15.111  0.00  0.00    +0.000 A 
ATOM     31  C   UNL     1       7.291   5.511  14.558  0.00  0.00    +0.000 A 
ATOM     32  C   UNL     1       7.686   4.900  13.369  0.00  0.00    +0.000 A 
ATOM     33  C   UNL     1       6.825   4.013  12.734  0.00  0.00    +0.000 A 
ATOM     34  F   UNL     1       7.187   3.467  11.566  0.00  0.00    +0.000 F 
ATOM     35  C   UNL     1       5.593   3.691  13.288  0.00  0.00    +0.000 A 
ATOM     36  C   UNL     1       5.202   4.291  14.485  0.00  0.00    +0.000 A 
ENDBRANCH  29  30
ENDBRANCH   1  29
TORSDOF 11
ENDMDL
MODEL 2
REMARK VINA RESULT:      -8.3      0.252      1.157
REMARK  Name = 
REMARK  14 active torsions:
REMARK  status: ('A' for Active; 'I' for Inactive)
REMARK    1  A    between atoms: C_1  and  C_2
REMARK    2  A    between atoms: C_2  and  C_3
REMARK    3  A    between atoms: C_2  and  C_4
REMARK    4  A    between atoms: C_2  and  O_5
REMARK    5  A    between atoms: O_5  and  C_6
REMARK    6  A    between atoms: N_8  and  C_9
REMARK    7  A    between atoms: C_9  and  C_10
REMARK    8  A    between atoms: C_9  and  C_18
REMARK    9  A    between atoms: C_10  and  C_11
REMARK   10  A    between atoms: N_20  and  N_21
REMARK   11  A    between atoms: C_22  and  C_23
REMARK   12  A    between atoms: C_26  and  O_27
REMARK   13  A    between atoms: C_28  and  O_29
REMARK   14  A    between atoms: C_30  and  O_31
REMARK                            x       y       z     vdW  Elec       q    Type
REMARK                         _______ _______ _______ _____ _____    ______ ____
ROOT
ATOM      1  C   UNL     1       5.999   5.667  17.567  0.00  0.00    +0.000 C 
ENDROOT
BRANCH   1   4
ATOM      2  C   UNL     1       4.421   4.297  18.936  0.00  0.00    +0.000 C 
ATOM      3  O   UNL     1       4.678   3.275  18.312  0.00  0.00    +0.000 OA
ATOM      4  N   UNL     1       5.028   5.501  18.663  0.00  0.00    +0.000 N 
ATOM      5  H   UNL     1       4.812   6.296  19.250  0.00  0.00    +0.000 HD
BRANCH   2   6
ATOM      6  O   UNL     1       3.504   4.402  19.936  0.00  0.00    +0.000 OA
BRANCH   6   8
ATOM      7  C   UNL     1       1.901   4.921  18.118  0.00  0.00    +0.000 C 
ATOM      8  C   UNL     1       2.168   4.919  19.630  0.00  0.00    +0.000 C 
ATOM      9  C   UNL     1       1.930   6.314  20.228  0.00  0.00    +0.000 C 
ATOM     10  C   UNL     1       1.161   3.948  20.281  0.00  0.00    +0.000 C 
ENDBRANCH   6   8
ENDBRANCH   2   6
ENDBRANCH   1   4
BRANCH   1  11
ATOM     11  C   UNL     1       7.172   6.585  18.025  0.00  0.00    +0.000 C 
ATOM     12  O   UNL     1       7.995   6.189  18.854  0.00  0.00    +0.000 OA
ATOM     13  N   UNL     1       7.235   7.838  17.400  0.00  0.00    +0.000 N 
ATOM     14  H   UNL     1       6.569   8.118  16.688  0.00  0.00    +0.000 HD
BRANCH  13  15
ATOM     15  N   UNL     1       8.221   8.725  17.765  0.00  0.00    +0.000 NA
ATOM     16  C   UNL     1       7.908   9.986  17.791  0.00  0.00    +0.000 C 
BRANCH  16  17
ATOM     17  C   UNL     1       8.907  11.026  18.181  0.00  0.00    +0.000 A 
ATOM     18  C   UNL     1       9.964  10.697  19.046  0.00  0.00    +0.000 A 
ATOM     19  C   UNL     1      10.902  11.665  19.441  0.00  0.00    +0.000 A 
ATOM     20  C   UNL     1      10.777  12.966  18.969  0.00  0.00    +0.000 A 
ATOM     21  C   UNL     1       9.738  13.296  18.108  0.00  0.00    +0.000 A 
ATOM     22  C   UNL     1       8.803  12.338  17.709  0.00  0.00    +0.000 A 
BRANCH  20  23
ATOM     23  O   UNL     1      11.648  13.958  19.326  0.00  0.00    +0.000 OA
ATOM     24  H   UNL     1      12.238  13.613  20.019  0.00  0.00    +0.000 HD
ENDBRANCH  20  23
BRANCH  21  25
ATOM     25  O   UNL     1       9.610  14.579  17.644  0.00  0.00    +0.000 OA
ATOM     26  H   UNL     1       9.376  14.471  16.696  0.00  0.00    +0.000 HD
ENDBRANCH  21  25
BRANCH  22  27
ATOM     27  O   UNL     1       7.798  12.726  16.861  0.00  0.00    +0.000 OA
ATOM     28  H   UNL     1       8.266  13.081  16.075  0.00  0.00    +0.000 HD
ENDBRANCH  22  27
ENDBRANCH  16  17
ENDBRANCH  13  15
ENDBRANCH   1  11
BRANCH   1  29
ATOM     29  C   UNL     1       5.345   6.149  16.248  0.00  0.00    +0.000 C 
BRANCH  29  30
ATOM     30  C   UNL     1       5.795   5.385  15.022  0.00  0.00    +0.000 A 
ATOM     31  C   UNL     1       4.945   4.436  14.432  0.00  0.00    +0.000 A 
ATOM     32  C   UNL     1       5.400   3.647  13.377  0.00  0.00    +0.000 A 
ATOM     33  C   UNL     1       6.699   3.804  12.912  0.00  0.00    +0.000 A 
ATOM     34  F   UNL     1       7.149   3.009  11.932  0.00  0.00    +0.000 F 
ATOM     35  C   UNL     1       7.542   4.767  13.452  0.00  0.00    +0.000 A 
ATOM     36  C   UNL     1       7.084   5.568  14.498  0.00  0.00    +0.000 A 
ENDBRANCH  29  30
ENDBRANCH   1  29
TORSDOF 11
ENDMDL
MODEL 3
REMARK VINA RESULT:      -8.1      1.280      1.653
REMARK  Name = 
REMARK  14 active torsions:
REMARK  status: ('A' for Active; 'I' for Inactive)
REMARK    1  A    between atoms: C_1  and  C_2
REMARK    2  A    between atoms: C_2  and  C_3
REMARK    3  A    between atoms: C_2  and  C_4
REMARK    4  A    between atoms: C_2  and  O_5
REMARK    5  A    between atoms: O_5  and  C_6
REMARK    6  A    between atoms: N_8  and  C_9
REMARK    7  A    between atoms: C_9  and  C_10
REMARK    8  A    between atoms: C_9  and  C_18
REMARK    9  A    between atoms: C_10  and  C_11
REMARK   10  A    between atoms: N_20  and  N_21
REMARK   11  A    between atoms: C_22  and  C_23
REMARK   12  A    between atoms: C_26  and  O_27
REMARK   13  A    between atoms: C_28  and  O_29
REMARK   14  A    between atoms: C_30  and  O_31
REMARK                            x       y       z     vdW  Elec       q    Type
REMARK                         _______ _______ _______ _____ _____    ______ ____
ROOT
ATOM      1  C   UNL     1       6.073   5.836  17.527  0.00  0.00    +0.000 C 
ENDROOT
BRANCH   1   4
ATOM      2  C   UNL     1       4.710   4.655  19.255  0.00  0.00    +0.000 C 
ATOM      3  O   UNL     1       5.430   3.666  19.231  0.00  0.00    +0.000 OA
ATOM      4  N   UNL     1       4.953   5.767  18.481  0.00  0.00    +0.000 N 
ATOM      5  H   UNL     1       4.350   6.571  18.588  0.00  0.00    +0.000 HD
BRANCH   2   6
ATOM      6  O   UNL     1       3.578   4.788  19.999  0.00  0.00    +0.000 OA
BRANCH   6   8
ATOM      7  C   UNL     1       1.157   4.447  20.407  0.00  0.00    +0.000 C 
ATOM      8  C   UNL     1       2.421   3.939  19.701  0.00  0.00    +0.000 C 
ATOM      9  C   UNL     1       2.679   2.462  20.038  0.00  0.00    +0.000 C 
ATOM     10  C   UNL     1       2.181   4.040  18.181  0.00  0.00    +0.000 C 
ENDBRANCH   6   8
ENDBRANCH   2   6
ENDBRANCH   1   4
BRANCH   1  11
ATOM     11  C   UNL     1       7.233   6.687  18.123  0.00  0.00    +0.000 C 
ATOM     12  O   UNL     1       7.937   6.244  19.034  0.00  0.00    +0.000 OA
ATOM     13  N   UNL     1       7.430   7.939  17.524  0.00  0.00    +0.000 N 
ATOM     14  H   UNL     1       6.864   8.258  16.745  0.00  0.00    +0.000 HD
BRANCH  13  15
ATOM     15  N   UNL     1       8.414   8.771  18.006  0.00  0.00    +0.000 NA
ATOM     16  C   UNL     1       8.252  10.049  17.832  0.00  0.00    +0.000 C 
BRANCH  16  17
ATOM     17  C   UNL     1       9.260  11.034  18.327  0.00  0.00    +0.000 A 
ATOM     18  C   UNL     1       9.801  11.988  17.449  0.00  0.00    +0.000 A 
ATOM     19  C   UNL     1      10.765  12.910  17.888  0.00  0.00    +0.000 A 
ATOM     20  C   UNL     1      11.189  12.871  19.211  0.00  0.00    +0.000 A 
ATOM     21  C   UNL     1      10.653  11.935  20.086  0.00  0.00    +0.000 A 
ATOM     22  C   UNL     1       9.691  11.017  19.656  0.00  0.00    +0.000 A 
BRANCH  20  23
ATOM     23  O   UNL     1      12.134  13.731  19.698  0.00  0.00    +0.000 OA
ATOM     24  H   UNL     1      12.452  14.287  18.965  0.00  0.00    +0.000 HD
ENDBRANCH  20  23
BRANCH  21  25
ATOM     25  O   UNL     1      11.072  11.893  21.390  0.00  0.00    +0.000 OA
ATOM     26  H   UNL     1      10.254  11.710  21.901  0.00  0.00    +0.000 HD
ENDBRANCH  21  25
BRANCH  22  27
ATOM     27  O   UNL     1       9.203  10.115  20.566  0.00  0.00    +0.000 OA
ATOM     28  H   UNL     1       9.360  10.538  21.436  0.00  0.00    +0.000 HD
ENDBRANCH  22  27
ENDBRANCH  16  17
ENDBRANCH  13  15
ENDBRANCH   1  11
BRANCH   1  29
ATOM     29  C   UNL     1       5.640   6.319  16.120  0.00  0.00    +0.000 C 
BRANCH  29  30
ATOM     30  C   UNL     1       5.954   5.342  15.009  0.00  0.00    +0.000 A 
ATOM     31  C   UNL     1       7.213   5.356  14.392  0.00  0.00    +0.000 A 
ATOM     32  C   UNL     1       7.465   4.540  13.290  0.00  0.00    +0.000 A 
ATOM     33  C   UNL     1       6.461   3.711  12.805  0.00  0.00    +0.000 A 
ATOM     34  F   UNL     1       6.691   2.966  11.716  0.00  0.00    +0.000 F 
ATOM     35  C   UNL     1       5.221   3.649  13.429  0.00  0.00    +0.000 A 
ATOM     36  C   UNL     1       4.972   4.454  14.540  0.00  0.00    +0.000 A 
ENDBRANCH  29  30
ENDBRANCH   1  29
TORSDOF 11
ENDMDL
MODEL 4
REMARK VINA RESULT:      -8.0      0.771      1.211
REMARK  Name = 
REMARK  14 active torsions:
REMARK  status: ('A' for Active; 'I' for Inactive)
REMARK    1  A    between atoms: C_1  and  C_2
REMARK    2  A    between atoms: C_2  and  C_3
REMARK    3  A    between atoms: C_2  and  C_4
REMARK    4  A    between atoms: C_2  and  O_5
REMARK    5  A    between atoms: O_5  and  C_6
REMARK    6  A    between atoms: N_8  and  C_9
REMARK    7  A    between atoms: C_9  and  C_10
REMARK    8  A    between atoms: C_9  and  C_18
REMARK    9  A    between atoms: C_10  and  C_11
REMARK   10  A    between atoms: N_20  and  N_21
REMARK   11  A    between atoms: C_22  and  C_23
REMARK   12  A    between atoms: C_26  and  O_27
REMARK   13  A    between atoms: C_28  and  O_29
REMARK   14  A    between atoms: C_30  and  O_31
REMARK                            x       y       z     vdW  Elec       q    Type
REMARK                         _______ _______ _______ _____ _____    ______ ____
ROOT
ATOM      1  C   UNL     1       6.542   5.071  17.317  0.00  0.00    +0.000 C 
ENDROOT
BRANCH   1   4
ATOM      2  C   UNL     1       4.575   4.940  18.852  0.00  0.00    +0.000 C 
ATOM      3  O   UNL     1       4.213   6.077  18.578  0.00  0.00    +0.000 OA
ATOM      4  N   UNL     1       5.680   4.356  18.275  0.00  0.00    +0.000 N 
ATOM      5  H   UNL     1       5.894   3.395  18.504  0.00  0.00    +0.000 HD
BRANCH   2   6
ATOM      6  O   UNL     1       3.982   4.121  19.763  0.00  0.00    +0.000 OA
BRANCH   6   8
ATOM      7  C   UNL     1       1.829   5.197  20.358  0.00  0.00    +0.000 C 
ATOM      8  C   UNL     1       2.524   3.972  19.748  0.00  0.00    +0.000 C 
ATOM      9  C   UNL     1       2.062   2.681  20.443  0.00  0.00    +0.000 C 
ATOM     10  C   UNL     1       2.105   3.885  18.266  0.00  0.00    +0.000 C 
ENDBRANCH   6   8
ENDBRANCH   2   6
ENDBRANCH   1   4
BRANCH   1  11
ATOM     11  C   UNL     1       7.410   6.127  18.064  0.00  0.00    +0.000 C 
ATOM     12  O   UNL     1       7.989   5.838  19.115  0.00  0.00    +0.000 OA
ATOM     13  N   UNL     1       7.512   7.376  17.435  0.00  0.00    +0.000 N 
ATOM     14  H   UNL     1       7.061   7.569  16.547  0.00  0.00    +0.000 HD
BRANCH  13  15
ATOM     15  N   UNL     1       8.235   8.378  18.038  0.00  0.00    +0.000 NA
ATOM     16  C   UNL     1       8.026   9.594  17.627  0.00  0.00    +0.000 C 
BRANCH  16  17
ATOM     17  C   UNL     1       8.756  10.752  18.225  0.00  0.00    +0.000 A 
ATOM     18  C   UNL     1       9.659  10.545  19.282  0.00  0.00    +0.000 A 
ATOM     19  C   UNL     1      10.340  11.623  19.871  0.00  0.00    +0.000 A 
ATOM     20  C   UNL     1      10.114  12.910  19.400  0.00  0.00    +0.000 A 
ATOM     21  C   UNL     1       9.229  13.120  18.350  0.00  0.00    +0.000 A 
ATOM     22  C   UNL     1       8.549  12.053  17.757  0.00  0.00    +0.000 A 
BRANCH  20  23
ATOM     23  O   UNL     1      10.734  14.003  19.939  0.00  0.00    +0.000 OA
ATOM     24  H   UNL     1      11.603  14.105  19.511  0.00  0.00    +0.000 HD
ENDBRANCH  20  23
BRANCH  21  25
ATOM     25  O   UNL     1       9.001  14.389  17.886  0.00  0.00    +0.000 OA
ATOM     26  H   UNL     1       8.855  14.271  16.922  0.00  0.00    +0.000 HD
ENDBRANCH  21  25
BRANCH  22  27
ATOM     27  O   UNL     1       7.686  12.325  16.728  0.00  0.00    +0.000 OA
ATOM     28  H   UNL     1       7.005  11.622  16.788  0.00  0.00    +0.000 HD
ENDBRANCH  22  27
ENDBRANCH  16  17
ENDBRANCH  13  15
ENDBRANCH   1  11
BRANCH   1  29
ATOM     29  C   UNL     1       5.754   5.679  16.131  0.00  0.00    +0.000 C 
BRANCH  29  30
ATOM     30  C   UNL     1       6.123   5.097  14.783  0.00  0.00    +0.000 A 
ATOM     31  C   UNL     1       5.296   4.139  14.178  0.00  0.00    +0.000 A 
ATOM     32  C   UNL     1       5.692   3.516  12.996  0.00  0.00    +0.000 A 
ATOM     33  C   UNL     1       6.911   3.847  12.419  0.00  0.00    +0.000 A 
ATOM     34  F   UNL     1       7.312   3.210  11.311  0.00  0.00    +0.000 F 
ATOM     35  C   UNL     1       7.725   4.825  12.978  0.00  0.00    +0.000 A 
ATOM     36  C   UNL     1       7.324   5.461  14.153  0.00  0.00    +0.000 A 
ENDBRANCH  29  30
ENDBRANCH   1  29
TORSDOF 11
ENDMDL
MODEL 5
REMARK VINA RESULT:      -8.0      1.350      1.781
REMARK  Name = 
REMARK  14 active torsions:
REMARK  status: ('A' for Active; 'I' for Inactive)
REMARK    1  A    between atoms: C_1  and  C_2
REMARK    2  A    between atoms: C_2  and  C_3
REMARK    3  A    between atoms: C_2  and  C_4
REMARK    4  A    between atoms: C_2  and  O_5
REMARK    5  A    between atoms: O_5  and  C_6
REMARK    6  A    between atoms: N_8  and  C_9
REMARK    7  A    between atoms: C_9  and  C_10
REMARK    8  A    between atoms: C_9  and  C_18
REMARK    9  A    between atoms: C_10  and  C_11
REMARK   10  A    between atoms: N_20  and  N_21
REMARK   11  A    between atoms: C_22  and  C_23
REMARK   12  A    between atoms: C_26  and  O_27
REMARK   13  A    between atoms: C_28  and  O_29
REMARK   14  A    between atoms: C_30  and  O_31
REMARK                            x       y       z     vdW  Elec       q    Type
REMARK                         _______ _______ _______ _____ _____    ______ ____
ROOT
ATOM      1  C   UNL     1       6.756   5.958  18.021  0.00  0.00    +0.000 C 
ENDROOT
BRANCH   1   4
ATOM      2  C   UNL     1       4.465   5.504  18.910  0.00  0.00    +0.000 C 
ATOM      3  O   UNL     1       4.888   5.261  20.033  0.00  0.00    +0.000 OA
ATOM      4  N   UNL     1       5.292   5.873  17.873  0.00  0.00    +0.000 N 
ATOM      5  H   UNL     1       4.875   6.112  16.983  0.00  0.00    +0.000 HD
BRANCH   2   6
ATOM      6  O   UNL     1       3.165   5.416  18.519  0.00  0.00    +0.000 OA
BRANCH   6   8
ATOM      7  C   UNL     1       1.811   3.911  19.950  0.00  0.00    +0.000 C 
ATOM      8  C   UNL     1       2.484   4.120  18.587  0.00  0.00    +0.000 C 
ATOM      9  C   UNL     1       3.423   2.949  18.256  0.00  0.00    +0.000 C 
ATOM     10  C   UNL     1       1.374   4.149  17.516  0.00  0.00    +0.000 C 
ENDBRANCH   6   8
ENDBRANCH   2   6
ENDBRANCH   1   4
BRANCH   1  11
ATOM     11  C   UNL     1       7.246   7.393  17.665  0.00  0.00    +0.000 C 
ATOM     12  O   UNL     1       6.739   8.020  16.731  0.00  0.00    +0.000 OA
ATOM     13  N   UNL     1       8.247   7.911  18.499  0.00  0.00    +0.000 N 
ATOM     14  H   UNL     1       8.613   7.389  19.288  0.00  0.00    +0.000 HD
BRANCH  13  15
ATOM     15  N   UNL     1       8.761   9.160  18.241  0.00  0.00    +0.000 NA
ATOM     16  C   UNL     1       9.219   9.837  19.252  0.00  0.00    +0.000 C 
BRANCH  16  17
ATOM     17  C   UNL     1       9.804  11.200  19.074  0.00  0.00    +0.000 A 
ATOM     18  C   UNL     1      10.955  11.571  19.789  0.00  0.00    +0.000 A 
ATOM     19  C   UNL     1      11.509  12.854  19.651  0.00  0.00    +0.000 A 
ATOM     20  C   UNL     1      10.905  13.767  18.795  0.00  0.00    +0.000 A 
ATOM     21  C   UNL     1       9.772  13.403  18.079  0.00  0.00    +0.000 A 
ATOM     22  C   UNL     1       9.217  12.128  18.209  0.00  0.00    +0.000 A 
BRANCH  20  23
ATOM     23  O   UNL     1      11.386  15.036  18.626  0.00  0.00    +0.000 OA
ATOM     24  H   UNL     1      10.908  15.629  19.233  0.00  0.00    +0.000 HD
ENDBRANCH  20  23
BRANCH  21  25
ATOM     25  O   UNL     1       9.172  14.303  17.237  0.00  0.00    +0.000 OA
ATOM     26  H   UNL     1       8.217  14.241  17.457  0.00  0.00    +0.000 HD
ENDBRANCH  21  25
BRANCH  22  27
ATOM     27  O   UNL     1       8.096  11.831  17.479  0.00  0.00    +0.000 OA
ATOM     28  H   UNL     1       7.793  12.697  17.134  0.00  0.00    +0.000 HD
ENDBRANCH  22  27
ENDBRANCH  16  17
ENDBRANCH  13  15
ENDBRANCH   1  11
BRANCH   1  29
ATOM     29  C   UNL     1       7.508   4.858  17.232  0.00  0.00    +0.000 C 
BRANCH  29  30
ATOM     30  C   UNL     1       6.957   4.608  15.845  0.00  0.00    +0.000 A 
ATOM     31  C   UNL     1       5.852   3.762  15.667  0.00  0.00    +0.000 A 
ATOM     32  C   UNL     1       5.417   3.436  14.384  0.00  0.00    +0.000 A 
ATOM     33  C   UNL     1       6.083   3.953  13.280  0.00  0.00    +0.000 A 
ATOM     34  F   UNL     1       5.693   3.597  12.049  0.00  0.00    +0.000 F 
ATOM     35  C   UNL     1       7.151   4.828  13.434  0.00  0.00    +0.000 A 
ATOM     36  C   UNL     1       7.579   5.167  14.717  0.00  0.00    +0.000 A 
ENDBRANCH  29  30
ENDBRANCH   1  29
TORSDOF 11
ENDMDL
MODEL 6
REMARK VINA RESULT:      -8.0      1.185      1.440
REMARK  Name = 
REMARK  14 active torsions:
REMARK  status: ('A' for Active; 'I' for Inactive)
REMARK    1  A    between atoms: C_1  and  C_2
REMARK    2  A    between atoms: C_2  and  C_3
REMARK    3  A    between atoms: C_2  and  C_4
REMARK    4  A    between atoms: C_2  and  O_5
REMARK    5  A    between atoms: O_5  and  C_6
REMARK    6  A    between atoms: N_8  and  C_9
REMARK    7  A    between atoms: C_9  and  C_10
REMARK    8  A    between atoms: C_9  and  C_18
REMARK    9  A    between atoms: C_10  and  C_11
REMARK   10  A    between atoms: N_20  and  N_21
REMARK   11  A    between atoms: C_22  and  C_23
REMARK   12  A    between atoms: C_26  and  O_27
REMARK   13  A    between atoms: C_28  and  O_29
REMARK   14  A    between atoms: C_30  and  O_31
REMARK                            x       y       z     vdW  Elec       q    Type
REMARK                         _______ _______ _______ _____ _____    ______ ____
ROOT
ATOM      1  C   UNL     1       7.163   5.304  17.280  0.00  0.00    +0.000 C 
ENDROOT
BRANCH   1   4
ATOM      2  C   UNL     1       5.099   4.711  18.557  0.00  0.00    +0.000 C 
ATOM      3  O   UNL     1       4.624   5.831  18.421  0.00  0.00    +0.000 OA
ATOM      4  N   UNL     1       6.315   4.353  18.020  0.00  0.00    +0.000 N 
ATOM      5  H   UNL     1       6.626   3.396  18.123  0.00  0.00    +0.000 HD
BRANCH   2   6
ATOM      6  O   UNL     1       4.534   3.695  19.264  0.00  0.00    +0.000 OA
BRANCH   6   8
ATOM      7  C   UNL     1       2.997   3.498  17.330  0.00  0.00    +0.000 C 
ATOM      8  C   UNL     1       3.289   3.092  18.781  0.00  0.00    +0.000 C 
ATOM      9  C   UNL     1       2.092   3.415  19.690  0.00  0.00    +0.000 C 
ATOM     10  C   UNL     1       3.500   1.564  18.806  0.00  0.00    +0.000 C 
ENDBRANCH   6   8
ENDBRANCH   2   6
ENDBRANCH   1   4
BRANCH   1  11
ATOM     11  C   UNL     1       7.743   6.373  18.253  0.00  0.00    +0.000 C 
ATOM     12  O   UNL     1       8.103   6.060  19.390  0.00  0.00    +0.000 OA
ATOM     13  N   UNL     1       7.860   7.666  17.725  0.00  0.00    +0.000 N 
ATOM     14  H   UNL     1       7.598   7.883  16.769  0.00  0.00    +0.000 HD
BRANCH  13  15
ATOM     15  N   UNL     1       8.336   8.680  18.523  0.00  0.00    +0.000 NA
ATOM     16  C   UNL     1       8.632   9.805  17.944  0.00  0.00    +0.000 C 
BRANCH  16  17
ATOM     17  C   UNL     1       9.149  10.969  18.725  0.00  0.00    +0.000 A 
ATOM     18  C   UNL     1       9.850  10.756  19.924  0.00  0.00    +0.000 A 
ATOM     19  C   UNL     1      10.326  11.837  20.684  0.00  0.00    +0.000 A 
ATOM     20  C   UNL     1      10.096  13.133  20.242  0.00  0.00    +0.000 A 
ATOM     21  C   UNL     1       9.410  13.350  19.053  0.00  0.00    +0.000 A 
ATOM     22  C   UNL     1       8.936  12.280  18.291  0.00  0.00    +0.000 A 
BRANCH  20  23
ATOM     23  O   UNL     1      10.520  14.228  20.942  0.00  0.00    +0.000 OA
ATOM     24  H   UNL     1      11.244  13.954  21.532  0.00  0.00    +0.000 HD
ENDBRANCH  20  23
BRANCH  21  25
ATOM     25  O   UNL     1       9.178  14.629  18.617  0.00  0.00    +0.000 OA
ATOM     26  H   UNL     1      10.066  15.048  18.615  0.00  0.00    +0.000 HD
ENDBRANCH  21  25
BRANCH  22  27
ATOM     27  O   UNL     1       8.263  12.559  17.130  0.00  0.00    +0.000 OA
ATOM     28  H   UNL     1       7.341  12.731  17.417  0.00  0.00    +0.000 HD
ENDBRANCH  22  27
ENDBRANCH  16  17
ENDBRANCH  13  15
ENDBRANCH   1  11
BRANCH   1  29
ATOM     29  C   UNL     1       6.443   5.934  16.062  0.00  0.00    +0.000 C 
BRANCH  29  30
ATOM     30  C   UNL     1       6.393   5.037  14.844  0.00  0.00    +0.000 A 
ATOM     31  C   UNL     1       7.436   5.061  13.907  0.00  0.00    +0.000 A 
ATOM     32  C   UNL     1       7.338   4.325  12.727  0.00  0.00    +0.000 A 
ATOM     33  C   UNL     1       6.199   3.567  12.483  0.00  0.00    +0.000 A 
ATOM     34  F   UNL     1       6.086   2.902  11.326  0.00  0.00    +0.000 F 
ATOM     35  C   UNL     1       5.174   3.494  13.417  0.00  0.00    +0.000 A 
ATOM     36  C   UNL     1       5.277   4.218  14.605  0.00  0.00    +0.000 A 
ENDBRANCH  29  30
ENDBRANCH   1  29
TORSDOF 11
ENDMDL
MODEL 7
REMARK VINA RESULT:      -8.0      0.865      1.006
REMARK  Name = 
REMARK  14 active torsions:
REMARK  status: ('A' for Active; 'I' for Inactive)
REMARK    1  A    between atoms: C_1  and  C_2
REMARK    2  A    between atoms: C_2  and  C_3
REMARK    3  A    between atoms: C_2  and  C_4
REMARK    4  A    between atoms: C_2  and  O_5
REMARK    5  A    between atoms: O_5  and  C_6
REMARK    6  A    between atoms: N_8  and  C_9
REMARK    7  A    between atoms: C_9  and  C_10
REMARK    8  A    between atoms: C_9  and  C_18
REMARK    9  A    between atoms: C_10  and  C_11
REMARK   10  A    between atoms: N_20  and  N_21
REMARK   11  A    between atoms: C_22  and  C_23
REMARK   12  A    between atoms: C_26  and  O_27
REMARK   13  A    between atoms: C_28  and  O_29
REMARK   14  A    between atoms: C_30  and  O_31
REMARK                            x       y       z     vdW  Elec       q    Type
REMARK                         _______ _______ _______ _____ _____    ______ ____
ROOT
ATOM      1  C   UNL     1       6.292   5.407  17.338  0.00  0.00    +0.000 C 
ENDROOT
BRANCH   1   4
ATOM      2  C   UNL     1       4.206   5.866  18.635  0.00  0.00    +0.000 C 
ATOM      3  O   UNL     1       3.918   6.831  17.941  0.00  0.00    +0.000 OA
ATOM      4  N   UNL     1       5.325   5.098  18.407  0.00  0.00    +0.000 N 
ATOM      5  H   UNL     1       5.477   4.282  18.984  0.00  0.00    +0.000 HD
BRANCH   2   6
ATOM      6  O   UNL     1       3.507   5.439  19.722  0.00  0.00    +0.000 OA
BRANCH   6   8
ATOM      7  C   UNL     1       1.312   4.589  20.499  0.00  0.00    +0.000 C 
ATOM      8  C   UNL     1       2.506   4.380  19.559  0.00  0.00    +0.000 C 
ATOM      9  C   UNL     1       3.106   2.977  19.741  0.00  0.00    +0.000 C 
ATOM     10  C   UNL     1       1.986   4.485  18.111  0.00  0.00    +0.000 C 
ENDBRANCH   6   8
ENDBRANCH   2   6
ENDBRANCH   1   4
BRANCH   1  11
ATOM     11  C   UNL     1       7.335   6.447  17.844  0.00  0.00    +0.000 C 
ATOM     12  O   UNL     1       7.995   6.233  18.864  0.00  0.00    +0.000 OA
ATOM     13  N   UNL     1       7.487   7.586  17.042  0.00  0.00    +0.000 N 
ATOM     14  H   UNL     1       6.962   7.713  16.183  0.00  0.00    +0.000 HD
BRANCH  13  15
ATOM     15  N   UNL     1       8.366   8.572  17.428  0.00  0.00    +0.000 NA
ATOM     16  C   UNL     1       7.859   9.702  17.821  0.00  0.00    +0.000 C 
BRANCH  16  17
ATOM     17  C   UNL     1       8.730  10.831  18.267  0.00  0.00    +0.000 A 
ATOM     18  C   UNL     1       9.716  10.615  19.244  0.00  0.00    +0.000 A 
ATOM     19  C   UNL     1      10.532  11.667  19.691  0.00  0.00    +0.000 A 
ATOM     20  C   UNL     1      10.355  12.938  19.159  0.00  0.00    +0.000 A 
ATOM     21  C   UNL     1       9.387  13.156  18.187  0.00  0.00    +0.000 A 
ATOM     22  C   UNL     1       8.574  12.114  17.736  0.00  0.00    +0.000 A 
BRANCH  20  23
ATOM     23  O   UNL     1      11.107  14.007  19.561  0.00  0.00    +0.000 OA
ATOM     24  H   UNL     1      11.376  14.508  18.771  0.00  0.00    +0.000 HD
ENDBRANCH  20  23
BRANCH  21  25
ATOM     25  O   UNL     1       9.208  14.410  17.663  0.00  0.00    +0.000 OA
ATOM     26  H   UNL     1       8.521  14.287  16.972  0.00  0.00    +0.000 HD
ENDBRANCH  21  25
BRANCH  22  27
ATOM     27  O   UNL     1       7.633  12.393  16.778  0.00  0.00    +0.000 OA
ATOM     28  H   UNL     1       8.153  12.528  15.958  0.00  0.00    +0.000 HD
ENDBRANCH  22  27
ENDBRANCH  16  17
ENDBRANCH  13  15
ENDBRANCH   1  11
BRANCH   1  29
ATOM     29  C   UNL     1       5.612   5.840  16.016  0.00  0.00    +0.000 C 
BRANCH  29  30
ATOM     30  C   UNL     1       6.111   5.098  14.795  0.00  0.00    +0.000 A 
ATOM     31  C   UNL     1       7.344   5.439  14.219  0.00  0.00    +0.000 A 
ATOM     32  C   UNL     1       7.751   4.841  13.028  0.00  0.00    +0.000 A 
ATOM     33  C   UNL     1       6.930   3.904  12.412  0.00  0.00    +0.000 A 
ATOM     34  F   UNL     1       7.301   3.369  11.242  0.00  0.00    +0.000 F 
ATOM     35  C   UNL     1       5.726   3.521  12.989  0.00  0.00    +0.000 A 
ATOM     36  C   UNL     1       5.323   4.107  14.188  0.00  0.00    +0.000 A 
ENDBRANCH  29  30
ENDBRANCH   1  29
TORSDOF 11
ENDMDL
MODEL 8
REMARK VINA RESULT:      -7.9      1.416      1.679
REMARK  Name = 
REMARK  14 active torsions:
REMARK  status: ('A' for Active; 'I' for Inactive)
REMARK    1  A    between atoms: C_1  and  C_2
REMARK    2  A    between atoms: C_2  and  C_3
REMARK    3  A    between atoms: C_2  and  C_4
REMARK    4  A    between atoms: C_2  and  O_5
REMARK    5  A    between atoms: O_5  and  C_6
REMARK    6  A    between atoms: N_8  and  C_9
REMARK    7  A    between atoms: C_9  and  C_10
REMARK    8  A    between atoms: C_9  and  C_18
REMARK    9  A    between atoms: C_10  and  C_11
REMARK   10  A    between atoms: N_20  and  N_21
REMARK   11  A    between atoms: C_22  and  C_23
REMARK   12  A    between atoms: C_26  and  O_27
REMARK   13  A    between atoms: C_28  and  O_29
REMARK   14  A    between atoms: C_30  and  O_31
REMARK                            x       y       z     vdW  Elec       q    Type
REMARK                         _______ _______ _______ _____ _____    ______ ____
ROOT
ATOM      1  C   UNL     1       6.841   6.101  18.261  0.00  0.00    +0.000 C 
ENDROOT
BRANCH   1   4
ATOM      2  C   UNL     1       4.496   5.549  18.923  0.00  0.00    +0.000 C 
ATOM      3  O   UNL     1       4.847   5.100  20.006  0.00  0.00    +0.000 OA
ATOM      4  N   UNL     1       5.388   6.078  18.018  0.00  0.00    +0.000 N 
ATOM      5  H   UNL     1       5.028   6.481  17.163  0.00  0.00    +0.000 HD
BRANCH   2   6
ATOM      6  O   UNL     1       3.220   5.562  18.449  0.00  0.00    +0.000 OA
BRANCH   6   8
ATOM      7  C   UNL     1       1.290   4.282  17.565  0.00  0.00    +0.000 C 
ATOM      8  C   UNL     1       2.369   4.386  18.652  0.00  0.00    +0.000 C 
ATOM      9  C   UNL     1       1.738   4.356  20.053  0.00  0.00    +0.000 C 
ATOM     10  C   UNL     1       3.286   3.153  18.521  0.00  0.00    +0.000 C 
ENDBRANCH   6   8
ENDBRANCH   2   6
ENDBRANCH   1   4
BRANCH   1  11
ATOM     11  C   UNL     1       7.432   7.480  17.840  0.00  0.00    +0.000 C 
ATOM     12  O   UNL     1       7.062   8.033  16.801  0.00  0.00    +0.000 OA
ATOM     13  N   UNL     1       8.354   8.039  18.736  0.00  0.00    +0.000 N 
ATOM     14  H   UNL     1       8.604   7.580  19.606  0.00  0.00    +0.000 HD
BRANCH  13  15
ATOM     15  N   UNL     1       8.948   9.241  18.430  0.00  0.00    +0.000 NA
ATOM     16  C   UNL     1       9.316   9.994  19.424  0.00  0.00    +0.000 C 
BRANCH  16  17
ATOM     17  C   UNL     1       9.977  11.314  19.195  0.00  0.00    +0.000 A 
ATOM     18  C   UNL     1      11.145  11.648  19.902  0.00  0.00    +0.000 A 
ATOM     19  C   UNL     1      11.770  12.892  19.716  0.00  0.00    +0.000 A 
ATOM     20  C   UNL     1      11.221  13.802  18.822  0.00  0.00    +0.000 A 
ATOM     21  C   UNL     1      10.071  13.475  18.115  0.00  0.00    +0.000 A 
ATOM     22  C   UNL     1       9.445  12.238  18.292  0.00  0.00    +0.000 A 
BRANCH  20  23
ATOM     23  O   UNL     1      11.773  15.034  18.606  0.00  0.00    +0.000 OA
ATOM     24  H   UNL     1      12.137  15.054  17.703  0.00  0.00    +0.000 HD
ENDBRANCH  20  23
BRANCH  21  25
ATOM     25  O   UNL     1       9.526  14.373  17.235  0.00  0.00    +0.000 OA
ATOM     26  H   UNL     1       9.933  14.143  16.371  0.00  0.00    +0.000 HD
ENDBRANCH  21  25
BRANCH  22  27
ATOM     27  O   UNL     1       8.311  11.976  17.569  0.00  0.00    +0.000 OA
ATOM     28  H   UNL     1       8.504  11.130  17.111  0.00  0.00    +0.000 HD
ENDBRANCH  22  27
ENDBRANCH  16  17
ENDBRANCH  13  15
ENDBRANCH   1  11
BRANCH   1  29
ATOM     29  C   UNL     1       7.583   4.909  17.608  0.00  0.00    +0.000 C 
BRANCH  29  30
ATOM     30  C   UNL     1       7.039   4.513  16.252  0.00  0.00    +0.000 A 
ATOM     31  C   UNL     1       7.579   5.074  15.085  0.00  0.00    +0.000 A 
ATOM     32  C   UNL     1       7.004   4.803  13.845  0.00  0.00    +0.000 A 
ATOM     33  C   UNL     1       5.892   3.974  13.770  0.00  0.00    +0.000 A 
ATOM     34  F   UNL     1       5.311   3.756  12.582  0.00  0.00    +0.000 F 
ATOM     35  C   UNL     1       5.368   3.374  14.908  0.00  0.00    +0.000 A 
ATOM     36  C   UNL     1       5.951   3.632  16.148  0.00  0.00    +0.000 A 
ENDBRANCH  29  30
ENDBRANCH   1  29
TORSDOF 11
ENDMDL
MODEL 9
REMARK VINA RESULT:      -7.8      6.969     10.956
REMARK  Name = 
REMARK  14 active torsions:
REMARK  status: ('A' for Active; 'I' for Inactive)
REMARK    1  A    between atoms: C_1  and  C_2
REMARK    2  A    between atoms: C_2  and  C_3
REMARK    3  A    between atoms: C_2  and  C_4
REMARK    4  A    between atoms: C_2  and  O_5
REMARK    5  A    between atoms: O_5  and  C_6
REMARK    6  A    between atoms: N_8  and  C_9
REMARK    7  A    between atoms: C_9  and  C_10
REMARK    8  A    between atoms: C_9  and  C_18
REMARK    9  A    between atoms: C_10  and  C_11
REMARK   10  A    between atoms: N_20  and  N_21
REMARK   11  A    between atoms: C_22  and  C_23
REMARK   12  A    between atoms: C_26  and  O_27
REMARK   13  A    between atoms: C_28  and  O_29
REMARK   14  A    between atoms: C_30  and  O_31
REMARK                            x       y       z     vdW  Elec       q    Type
REMARK                         _______ _______ _______ _____ _____    ______ ____
ROOT
ATOM      1  C   UNL     1       0.655  10.836  19.364  0.00  0.00    +0.000 C 
ENDROOT
BRANCH   1   4
ATOM      2  C   UNL     1      -1.435  11.846  18.440  0.00  0.00    +0.000 C 
ATOM      3  O   UNL     1      -0.829  12.788  17.947  0.00  0.00    +0.000 OA
ATOM      4  N   UNL     1      -0.799  10.837  19.127  0.00  0.00    +0.000 N 
ATOM      5  H   UNL     1      -1.351  10.060  19.464  0.00  0.00    +0.000 HD
BRANCH   2   6
ATOM      6  O   UNL     1      -2.785  11.676  18.416  0.00  0.00    +0.000 OA
BRANCH   6   8
ATOM      7  C   UNL     1      -2.528  11.071  16.026  0.00  0.00    +0.000 C 
ATOM      8  C   UNL     1      -3.397  10.970  17.287  0.00  0.00    +0.000 C 
ATOM      9  C   UNL     1      -4.828  11.453  17.003  0.00  0.00    +0.000 C 
ATOM     10  C   UNL     1      -3.472   9.483  17.686  0.00  0.00    +0.000 C 
ENDBRANCH   6   8
ENDBRANCH   2   6
ENDBRANCH   1   4
BRANCH   1  11
ATOM     11  C   UNL     1       1.292   9.542  18.777  0.00  0.00    +0.000 C 
ATOM     12  O   UNL     1       1.550   9.456  17.574  0.00  0.00    +0.000 OA
ATOM     13  N   UNL     1       1.579   8.536  19.710  0.00  0.00    +0.000 N 
ATOM     14  H   UNL     1       1.397   8.654  20.701  0.00  0.00    +0.000 HD
BRANCH  13  15
ATOM     15  N   UNL     1       2.116   7.346  19.277  0.00  0.00    +0.000 NA
ATOM     16  C   UNL     1       1.933   6.301  20.027  0.00  0.00    +0.000 C 
BRANCH  16  17
ATOM     17  C   UNL     1       2.470   4.962  19.639  0.00  0.00    +0.000 A 
ATOM     18  C   UNL     1       1.591   3.893  19.398  0.00  0.00    +0.000 A 
ATOM     19  C   UNL     1       2.077   2.622  19.052  0.00  0.00    +0.000 A 
ATOM     20  C   UNL     1       3.448   2.423  18.950  0.00  0.00    +0.000 A 
ATOM     21  C   UNL     1       4.322   3.477  19.179  0.00  0.00    +0.000 A 
ATOM     22  C   UNL     1       3.846   4.745  19.521  0.00  0.00    +0.000 A 
BRANCH  20  23
ATOM     23  O   UNL     1       3.986   1.207  18.630  0.00  0.00    +0.000 OA
ATOM     24  H   UNL     1       3.661   0.549  19.270  0.00  0.00    +0.000 HD
ENDBRANCH  20  23
BRANCH  21  25
ATOM     25  O   UNL     1       5.676   3.282  19.082  0.00  0.00    +0.000 OA
ATOM     26  H   UNL     1       5.892   3.544  18.160  0.00  0.00    +0.000 HD
ENDBRANCH  21  25
BRANCH  22  27
ATOM     27  O   UNL     1       4.759   5.744  19.739  0.00  0.00    +0.000 OA
ATOM     28  H   UNL     1       4.449   6.485  19.176  0.00  0.00    +0.000 HD
ENDBRANCH  22  27
ENDBRANCH  16  17
ENDBRANCH  13  15
ENDBRANCH   1  11
BRANCH   1  29
ATOM     29  C   UNL     1       1.025  11.062  20.852  0.00  0.00    +0.000 C 
BRANCH  29  30
ATOM     30  C   UNL     1      -0.022  11.818  21.639  0.00  0.00    +0.000 A 
ATOM     31  C   UNL     1      -0.002  13.220  21.674  0.00  0.00    +0.000 A 
ATOM     32  C   UNL     1      -0.891  13.914  22.492  0.00  0.00    +0.000 A 
ATOM     33  C   UNL     1      -1.798  13.211  23.275  0.00  0.00    +0.000 A 
ATOM     34  F   UNL     1      -2.616  13.880  24.099  0.00  0.00    +0.000 F 
ATOM     35  C   UNL     1      -1.864  11.825  23.223  0.00  0.00    +0.000 A 
ATOM     36  C   UNL     1      -0.985  11.128  22.394  0.00  0.00    +0.000 A 
ENDBRANCH  29  30
ENDBRANCH   1  29
TORSDOF 11
ENDMDL
