MODEL 1
REMARK VINA RESULT:      -7.7      0.000      0.000
REMARK  Name = 
REMARK  6 active torsions:
REMARK  status: ('A' for Active; 'I' for Inactive)
REMARK    1  A    between atoms: C_1  and  C_2
REMARK    2  A    between atoms: C_5  and  N_6
REMARK    3  A    between atoms: C_11  and  C_12
REMARK    4  A    between atoms: C_19  and  C_20
REMARK    5  A    between atoms: C_20  and  C_21
REMARK    6  A    between atoms: C_25  and  N_26
REMARK                            x       y       z     vdW  Elec       q    Type
REMARK                         _______ _______ _______ _____ _____    ______ ____
ROOT
ATOM      1  C   UNL     1       0.117  10.655  21.821  0.00  0.00    +0.000 C 
ATOM      2  O   UNL     1       0.696  10.238  22.827  0.00  0.00    +0.000 OA
ATOM      3  N   UNL     1       0.143   9.943  20.600  0.00  0.00    +0.000 N 
ATOM      4  C   UNL     1       0.850   8.658  20.609  0.00  0.00    +0.000 C 
ATOM      5  C   UNL     1       1.933   8.564  19.540  0.00  0.00    +0.000 C 
ATOM      6  C   UNL     1       1.444   9.002  18.165  0.00  0.00    +0.000 C 
ATOM      7  C   UNL     1       0.743  10.357  18.239  0.00  0.00    +0.000 C 
ATOM      8  C   UNL     1      -0.396  10.381  19.279  0.00  0.00    +0.000 C 
ENDROOT
BRANCH   1  14
ATOM      9  C   UNL     1      -3.797  12.531  24.228  0.00  0.00    +0.000 C 
ATOM     10  C   UNL     1      -2.599  12.785  23.364  0.00  0.00    +0.000 A 
ATOM     11  C   UNL     1      -2.140  14.075  23.112  0.00  0.00    +0.000 A 
ATOM     12  C   UNL     1      -0.992  14.272  22.344  0.00  0.00    +0.000 A 
ATOM     13  C   UNL     1      -0.296  13.177  21.789  0.00  0.00    +0.000 A 
ATOM     14  C   UNL     1      -0.740  11.863  22.034  0.00  0.00    +0.000 A 
ATOM     15  C   UNL     1      -1.874  11.699  22.853  0.00  0.00    +0.000 A 
BRANCH  13  16
ATOM     16  N   UNL     1       0.865  13.470  21.021  0.00  0.00    +0.000 N 
ATOM     17  N   UNL     1       0.848  13.690  19.677  0.00  0.00    +0.000 NA
ATOM     18  C   UNL     1       2.146  13.842  19.400  0.00  0.00    +0.000 A 
ATOM     19  C   UNL     1       2.890  13.834  20.582  0.00  0.00    +0.000 A 
ATOM     20  N   UNL     1       2.074  13.697  21.627  0.00  0.00    +0.000 NA
ENDBRANCH  13  16
ENDBRANCH   1  14
BRANCH   8  21
ATOM     21  C   UNL     1      -1.628   9.530  18.797  0.00  0.00    +0.000 C 
BRANCH  21  22
ATOM     22  C   UNL     1      -2.530  10.128  17.721  0.00  0.00    +0.000 A 
ATOM     23  C   UNL     1      -2.152  10.059  16.366  0.00  0.00    +0.000 A 
ATOM     24  C   UNL     1      -2.985  10.557  15.352  0.00  0.00    +0.000 A 
ATOM     25  C   UNL     1      -4.209  11.145  15.667  0.00  0.00    +0.000 A 
ATOM     26  C   UNL     1      -4.594  11.238  17.007  0.00  0.00    +0.000 A 
ATOM     27  C   UNL     1      -3.771  10.703  18.017  0.00  0.00    +0.000 A 
BRANCH  26  28
ATOM     28  N   UNL     1      -5.786  11.915  17.373  0.00  0.00    +0.000 N 
ATOM     29  N   UNL     1      -6.116  13.148  16.895  0.00  0.00    +0.000 NA
ATOM     30  C   UNL     1      -7.203  13.444  17.611  0.00  0.00    +0.000 A 
ATOM     31  C   UNL     1      -7.504  12.397  18.483  0.00  0.00    +0.000 A 
ATOM     32  N   UNL     1      -6.638  11.400  18.306  0.00  0.00    +0.000 NA
ENDBRANCH  26  28
ENDBRANCH  21  22
ENDBRANCH   8  21
TORSDOF 5
ENDMDL
MODEL 2
REMARK VINA RESULT:      -7.2      1.018      1.423
REMARK  Name = 
REMARK  6 active torsions:
REMARK  status: ('A' for Active; 'I' for Inactive)
REMARK    1  A    between atoms: C_1  and  C_2
REMARK    2  A    between atoms: C_5  and  N_6
REMARK    3  A    between atoms: C_11  and  C_12
REMARK    4  A    between atoms: C_19  and  C_20
REMARK    5  A    between atoms: C_20  and  C_21
REMARK    6  A    between atoms: C_25  and  N_26
REMARK                            x       y       z     vdW  Elec       q    Type
REMARK                         _______ _______ _______ _____ _____    ______ ____
ROOT
ATOM      1  C   UNL     1      -0.644  11.357  21.786  0.00  0.00    +0.000 C 
ATOM      2  O   UNL     1      -0.493  11.212  23.001  0.00  0.00    +0.000 OA
ATOM      3  N   UNL     1      -0.330  10.327  20.871  0.00  0.00    +0.000 N 
ATOM      4  C   UNL     1       0.134   9.060  21.447  0.00  0.00    +0.000 C 
ATOM      5  C   UNL     1       1.478   8.605  20.890  0.00  0.00    +0.000 C 
ATOM      6  C   UNL     1       1.536   8.660  19.369  0.00  0.00    +0.000 C 
ATOM      7  C   UNL     1       1.061  10.017  18.852  0.00  0.00    +0.000 C 
ATOM      8  C   UNL     1      -0.337  10.400  19.380  0.00  0.00    +0.000 C 
ENDROOT
BRANCH   1  14
ATOM      9  C   UNL     1      -4.826  14.017  22.037  0.00  0.00    +0.000 C 
ATOM     10  C   UNL     1      -3.378  13.965  21.655  0.00  0.00    +0.000 A 
ATOM     11  C   UNL     1      -2.673  15.113  21.304  0.00  0.00    +0.000 A 
ATOM     12  C   UNL     1      -1.313  15.035  21.002  0.00  0.00    +0.000 A 
ATOM     13  C   UNL     1      -0.638  13.795  21.019  0.00  0.00    +0.000 A 
ATOM     14  C   UNL     1      -1.330  12.621  21.375  0.00  0.00    +0.000 A 
ATOM     15  C   UNL     1      -2.690  12.744  21.721  0.00  0.00    +0.000 A 
BRANCH  13  16
ATOM     16  N   UNL     1       0.748  13.808  20.700  0.00  0.00    +0.000 N 
ATOM     17  N   UNL     1       1.740  13.847  21.633  0.00  0.00    +0.000 NA
ATOM     18  C   UNL     1       2.836  13.922  20.875  0.00  0.00    +0.000 A 
ATOM     19  C   UNL     1       2.494  13.802  19.525  0.00  0.00    +0.000 A 
ATOM     20  N   UNL     1       1.177  13.630  19.410  0.00  0.00    +0.000 NA
ENDBRANCH  13  16
ENDBRANCH   1  14
BRANCH   8  21
ATOM     21  C   UNL     1      -1.457   9.516  18.719  0.00  0.00    +0.000 C 
BRANCH  21  22
ATOM     22  C   UNL     1      -2.440  10.200  17.772  0.00  0.00    +0.000 A 
ATOM     23  C   UNL     1      -2.185  10.219  16.387  0.00  0.00    +0.000 A 
ATOM     24  C   UNL     1      -3.094  10.799  15.488  0.00  0.00    +0.000 A 
ATOM     25  C   UNL     1      -4.273  11.381  15.952  0.00  0.00    +0.000 A 
ATOM     26  C   UNL     1      -4.534  11.387  17.324  0.00  0.00    +0.000 A 
ATOM     27  C   UNL     1      -3.637  10.772  18.218  0.00  0.00    +0.000 A 
BRANCH  26  28
ATOM     28  N   UNL     1      -5.675  12.055  17.841  0.00  0.00    +0.000 N 
ATOM     29  N   UNL     1      -6.170  11.819  19.090  0.00  0.00    +0.000 NA
ATOM     30  C   UNL     1      -7.299  12.530  19.082  0.00  0.00    +0.000 A 
ATOM     31  C   UNL     1      -7.453  13.174  17.854  0.00  0.00    +0.000 A 
ATOM     32  N   UNL     1      -6.403  12.918  17.075  0.00  0.00    +0.000 NA
ENDBRANCH  26  28
ENDBRANCH  21  22
ENDBRANCH   8  21
TORSDOF 5
ENDMDL
MODEL 3
REMARK VINA RESULT:      -7.1      0.947      1.206
REMARK  Name = 
REMARK  6 active torsions:
REMARK  status: ('A' for Active; 'I' for Inactive)
REMARK    1  A    between atoms: C_1  and  C_2
REMARK    2  A    between atoms: C_5  and  N_6
REMARK    3  A    between atoms: C_11  and  C_12
REMARK    4  A    between atoms: C_19  and  C_20
REMARK    5  A    between atoms: C_20  and  C_21
REMARK    6  A    between atoms: C_25  and  N_26
REMARK                            x       y       z     vdW  Elec       q    Type
REMARK                         _______ _______ _______ _____ _____    ______ ____
ROOT
ATOM      1  C   UNL     1      -0.115  10.804  21.918  0.00  0.00    +0.000 C 
ATOM      2  O   UNL     1       0.423  10.341  22.927  0.00  0.00    +0.000 OA
ATOM      3  N   UNL     1      -0.040  10.146  20.669  0.00  0.00    +0.000 N 
ATOM      4  C   UNL     1       0.664   8.860  20.649  0.00  0.00    +0.000 C 
ATOM      5  C   UNL     1       1.789   8.810  19.621  0.00  0.00    +0.000 C 
ATOM      6  C   UNL     1       1.357   9.309  18.248  0.00  0.00    +0.000 C 
ATOM      7  C   UNL     1       0.655  10.662  18.354  0.00  0.00    +0.000 C 
ATOM      8  C   UNL     1      -0.525  10.644  19.348  0.00  0.00    +0.000 C 
ENDROOT
BRANCH   1  14
ATOM      9  C   UNL     1      -4.116  12.586  24.252  0.00  0.00    +0.000 C 
ATOM     10  C   UNL     1      -2.886  12.873  23.446  0.00  0.00    +0.000 A 
ATOM     11  C   UNL     1      -2.417  14.172  23.266  0.00  0.00    +0.000 A 
ATOM     12  C   UNL     1      -1.240  14.398  22.551  0.00  0.00    +0.000 A 
ATOM     13  C   UNL     1      -0.524  13.326  21.977  0.00  0.00    +0.000 A 
ATOM     14  C   UNL     1      -0.978  12.004  22.149  0.00  0.00    +0.000 A 
ATOM     15  C   UNL     1      -2.142  11.808  22.917  0.00  0.00    +0.000 A 
BRANCH  13  16
ATOM     16  N   UNL     1       0.666  13.648  21.266  0.00  0.00    +0.000 N 
ATOM     17  N   UNL     1       0.714  13.839  19.919  0.00  0.00    +0.000 NA
ATOM     18  C   UNL     1       2.018  14.037  19.710  0.00  0.00    +0.000 A 
ATOM     19  C   UNL     1       2.696  14.083  20.930  0.00  0.00    +0.000 A 
ATOM     20  N   UNL     1       1.829  13.936  21.932  0.00  0.00    +0.000 NA
ENDBRANCH  13  16
ENDBRANCH   1  14
BRANCH   8  21
ATOM     21  C   UNL     1      -1.737   9.818  18.779  0.00  0.00    +0.000 C 
BRANCH  21  22
ATOM     22  C   UNL     1      -2.879  10.588  18.122  0.00  0.00    +0.000 A 
ATOM     23  C   UNL     1      -3.011  10.592  16.719  0.00  0.00    +0.000 A 
ATOM     24  C   UNL     1      -4.078  11.251  16.091  0.00  0.00    +0.000 A 
ATOM     25  C   UNL     1      -5.033  11.931  16.846  0.00  0.00    +0.000 A 
ATOM     26  C   UNL     1      -4.910  11.953  18.237  0.00  0.00    +0.000 A 
ATOM     27  C   UNL     1      -3.858  11.258  18.865  0.00  0.00    +0.000 A 
BRANCH  26  28
ATOM     28  N   UNL     1      -5.806  12.713  19.032  0.00  0.00    +0.000 N 
ATOM     29  N   UNL     1      -6.160  12.355  20.299  0.00  0.00    +0.000 NA
ATOM     30  C   UNL     1      -7.110  13.248  20.587  0.00  0.00    +0.000 A 
ATOM     31  C   UNL     1      -7.298  14.114  19.509  0.00  0.00    +0.000 A 
ATOM     32  N   UNL     1      -6.441  13.813  18.534  0.00  0.00    +0.000 NA
ENDBRANCH  26  28
ENDBRANCH  21  22
ENDBRANCH   8  21
TORSDOF 5
ENDMDL
MODEL 4
REMARK VINA RESULT:      -7.1      2.335      5.294
REMARK  Name = 
REMARK  6 active torsions:
REMARK  status: ('A' for Active; 'I' for Inactive)
REMARK    1  A    between atoms: C_1  and  C_2
REMARK    2  A    between atoms: C_5  and  N_6
REMARK    3  A    between atoms: C_11  and  C_12
REMARK    4  A    between atoms: C_19  and  C_20
REMARK    5  A    between atoms: C_20  and  C_21
REMARK    6  A    between atoms: C_25  and  N_26
REMARK                            x       y       z     vdW  Elec       q    Type
REMARK                         _______ _______ _______ _____ _____    ______ ____
ROOT
ATOM      1  C   UNL     1      -1.700  12.793  20.042  0.00  0.00    +0.000 C 
ATOM      2  O   UNL     1      -0.726  13.404  19.595  0.00  0.00    +0.000 OA
ATOM      3  N   UNL     1      -2.375  13.225  21.207  0.00  0.00    +0.000 N 
ATOM      4  C   UNL     1      -1.888  14.463  21.823  0.00  0.00    +0.000 C 
ATOM      5  C   UNL     1      -1.529  14.298  23.296  0.00  0.00    +0.000 C 
ATOM      6  C   UNL     1      -2.614  13.586  24.092  0.00  0.00    +0.000 C 
ATOM      7  C   UNL     1      -3.047  12.297  23.396  0.00  0.00    +0.000 C 
ATOM      8  C   UNL     1      -3.477  12.525  21.932  0.00  0.00    +0.000 C 
ENDROOT
BRANCH   1  14
ATOM      9  C   UNL     1      -4.673  11.569  16.261  0.00  0.00    +0.000 C 
ATOM     10  C   UNL     1      -3.585  11.154  17.204  0.00  0.00    +0.000 A 
ATOM     11  C   UNL     1      -2.875   9.970  17.025  0.00  0.00    +0.000 A 
ATOM     12  C   UNL     1      -1.834   9.639  17.894  0.00  0.00    +0.000 A 
ATOM     13  C   UNL     1      -1.504  10.478  18.980  0.00  0.00    +0.000 A 
ATOM     14  C   UNL     1      -2.207  11.682  19.179  0.00  0.00    +0.000 A 
ATOM     15  C   UNL     1      -3.218  12.008  18.255  0.00  0.00    +0.000 A 
BRANCH  13  16
ATOM     16  N   UNL     1      -0.429  10.063  19.815  0.00  0.00    +0.000 N 
ATOM     17  N   UNL     1       0.869  10.009  19.406  0.00  0.00    +0.000 NA
ATOM     18  C   UNL     1       1.481   9.503  20.480  0.00  0.00    +0.000 A 
ATOM     19  C   UNL     1       0.573   9.382  21.534  0.00  0.00    +0.000 A 
ATOM     20  N   UNL     1      -0.623   9.829  21.152  0.00  0.00    +0.000 NA
ENDBRANCH  13  16
ENDBRANCH   1  14
BRANCH   8  21
ATOM     21  C   UNL     1      -4.853  13.283  21.853  0.00  0.00    +0.000 C 
BRANCH  21  22
ATOM     22  C   UNL     1      -5.695  13.102  20.593  0.00  0.00    +0.000 A 
ATOM     23  C   UNL     1      -6.297  11.858  20.321  0.00  0.00    +0.000 A 
ATOM     24  C   UNL     1      -7.116  11.677  19.196  0.00  0.00    +0.000 A 
ATOM     25  C   UNL     1      -7.344  12.729  18.310  0.00  0.00    +0.000 A 
ATOM     26  C   UNL     1      -6.741  13.966  18.554  0.00  0.00    +0.000 A 
ATOM     27  C   UNL     1      -5.951  14.152  19.704  0.00  0.00    +0.000 A 
BRANCH  26  28
ATOM     28  N   UNL     1      -6.871  15.031  17.625  0.00  0.00    +0.000 N 
ATOM     29  N   UNL     1      -6.969  16.337  18.004  0.00  0.00    +0.000 NA
ATOM     30  C   UNL     1      -7.226  16.947  16.844  0.00  0.00    +0.000 A 
ATOM     31  C   UNL     1      -7.268  16.011  15.810  0.00  0.00    +0.000 A 
ATOM     32  N   UNL     1      -6.996  14.797  16.287  0.00  0.00    +0.000 NA
ENDBRANCH  26  28
ENDBRANCH  21  22
ENDBRANCH   8  21
TORSDOF 5
ENDMDL
MODEL 5
REMARK VINA RESULT:      -7.1      2.158      4.994
REMARK  Name = 
REMARK  6 active torsions:
REMARK  status: ('A' for Active; 'I' for Inactive)
REMARK    1  A    between atoms: C_1  and  C_2
REMARK    2  A    between atoms: C_5  and  N_6
REMARK    3  A    between atoms: C_11  and  C_12
REMARK    4  A    between atoms: C_19  and  C_20
REMARK    5  A    between atoms: C_20  and  C_21
REMARK    6  A    between atoms: C_25  and  N_26
REMARK                            x       y       z     vdW  Elec       q    Type
REMARK                         _______ _______ _______ _____ _____    ______ ____
ROOT
ATOM      1  C   UNL     1      -0.476  13.904  22.346  0.00  0.00    +0.000 C 
ATOM      2  O   UNL     1       0.376  14.690  22.769  0.00  0.00    +0.000 OA
ATOM      3  N   UNL     1      -1.829  13.989  22.747  0.00  0.00    +0.000 N 
ATOM      4  C   UNL     1      -2.174  15.092  23.650  0.00  0.00    +0.000 C 
ATOM      5  C   UNL     1      -2.859  14.626  24.930  0.00  0.00    +0.000 C 
ATOM      6  C   UNL     1      -3.999  13.650  24.667  0.00  0.00    +0.000 C 
ATOM      7  C   UNL     1      -3.551  12.521  23.740  0.00  0.00    +0.000 C 
ATOM      8  C   UNL     1      -2.935  13.041  22.425  0.00  0.00    +0.000 C 
ENDROOT
BRANCH   1  14
ATOM      9  C   UNL     1       0.180   9.171  21.004  0.00  0.00    +0.000 C 
ATOM     10  C   UNL     1       0.157  10.613  20.597  0.00  0.00    +0.000 A 
ATOM     11  C   UNL     1       0.199  10.995  19.258  0.00  0.00    +0.000 A 
ATOM     12  C   UNL     1       0.126  12.344  18.912  0.00  0.00    +0.000 A 
ATOM     13  C   UNL     1       0.038  13.342  19.907  0.00  0.00    +0.000 A 
ATOM     14  C   UNL     1      -0.010  12.979  21.267  0.00  0.00    +0.000 A 
ATOM     15  C   UNL     1       0.017  11.606  21.577  0.00  0.00    +0.000 A 
BRANCH  13  16
ATOM     16  N   UNL     1      -0.034  14.693  19.465  0.00  0.00    +0.000 N 
ATOM     17  N   UNL     1       0.987  15.338  18.835  0.00  0.00    +0.000 NA
ATOM     18  C   UNL     1       0.493  16.570  18.689  0.00  0.00    +0.000 A 
ATOM     19  C   UNL     1      -0.838  16.605  19.114  0.00  0.00    +0.000 A 
ATOM     20  N   UNL     1      -1.213  15.391  19.517  0.00  0.00    +0.000 NA
ENDBRANCH  13  16
ENDBRANCH   1  14
BRANCH   8  21
ATOM     21  C   UNL     1      -4.034  13.663  21.487  0.00  0.00    +0.000 C 
BRANCH  21  22
ATOM     22  C   UNL     1      -4.688  12.752  20.452  0.00  0.00    +0.000 A 
ATOM     23  C   UNL     1      -6.053  12.424  20.563  0.00  0.00    +0.000 A 
ATOM     24  C   UNL     1      -6.691  11.628  19.600  0.00  0.00    +0.000 A 
ATOM     25  C   UNL     1      -5.980  11.131  18.509  0.00  0.00    +0.000 A 
ATOM     26  C   UNL     1      -4.621  11.431  18.390  0.00  0.00    +0.000 A 
ATOM     27  C   UNL     1      -3.994  12.261  19.340  0.00  0.00    +0.000 A 
BRANCH  26  28
ATOM     28  N   UNL     1      -3.842  10.865  17.347  0.00  0.00    +0.000 N 
ATOM     29  N   UNL     1      -2.821   9.991  17.574  0.00  0.00    +0.000 NA
ATOM     30  C   UNL     1      -2.293   9.854  16.355  0.00  0.00    +0.000 A 
ATOM     31  C   UNL     1      -3.001  10.629  15.436  0.00  0.00    +0.000 A 
ATOM     32  N   UNL     1      -4.017  11.238  16.047  0.00  0.00    +0.000 NA
ENDBRANCH  26  28
ENDBRANCH  21  22
ENDBRANCH   8  21
TORSDOF 5
ENDMDL
MODEL 6
REMARK VINA RESULT:      -7.0      1.659      1.944
REMARK  Name = 
REMARK  6 active torsions:
REMARK  status: ('A' for Active; 'I' for Inactive)
REMARK    1  A    between atoms: C_1  and  C_2
REMARK    2  A    between atoms: C_5  and  N_6
REMARK    3  A    between atoms: C_11  and  C_12
REMARK    4  A    between atoms: C_19  and  C_20
REMARK    5  A    between atoms: C_20  and  C_21
REMARK    6  A    between atoms: C_25  and  N_26
REMARK                            x       y       z     vdW  Elec       q    Type
REMARK                         _______ _______ _______ _____ _____    ______ ____
ROOT
ATOM      1  C   UNL     1      -0.526  10.955  22.064  0.00  0.00    +0.000 C 
ATOM      2  O   UNL     1      -0.038  10.385  23.043  0.00  0.00    +0.000 OA
ATOM      3  N   UNL     1      -0.364  10.450  20.754  0.00  0.00    +0.000 N 
ATOM      4  C   UNL     1       0.368   9.186  20.628  0.00  0.00    +0.000 C 
ATOM      5  C   UNL     1       1.552   9.273  19.671  0.00  0.00    +0.000 C 
ATOM      6  C   UNL     1       1.191   9.924  18.342  0.00  0.00    +0.000 C 
ATOM      7  C   UNL     1       0.455  11.244  18.562  0.00  0.00    +0.000 C 
ATOM      8  C   UNL     1      -0.781  11.092  19.473  0.00  0.00    +0.000 C 
ENDROOT
BRANCH   1  14
ATOM      9  C   UNL     1      -4.426  12.498  24.718  0.00  0.00    +0.000 C 
ATOM     10  C   UNL     1      -3.274  12.859  23.830  0.00  0.00    +0.000 A 
ATOM     11  C   UNL     1      -2.883  14.182  23.642  0.00  0.00    +0.000 A 
ATOM     12  C   UNL     1      -1.775  14.479  22.847  0.00  0.00    +0.000 A 
ATOM     13  C   UNL     1      -1.052  13.452  22.202  0.00  0.00    +0.000 A 
ATOM     14  C   UNL     1      -1.427  12.106  22.381  0.00  0.00    +0.000 A 
ATOM     15  C   UNL     1      -2.521  11.841  23.228  0.00  0.00    +0.000 A 
BRANCH  13  16
ATOM     16  N   UNL     1       0.065  13.845  21.413  0.00  0.00    +0.000 N 
ATOM     17  N   UNL     1       1.347  13.470  21.677  0.00  0.00    +0.000 NA
ATOM     18  C   UNL     1       2.031  14.127  20.737  0.00  0.00    +0.000 A 
ATOM     19  C   UNL     1       1.149  14.773  19.867  0.00  0.00    +0.000 A 
ATOM     20  N   UNL     1      -0.108  14.517  20.230  0.00  0.00    +0.000 NA
ENDBRANCH  13  16
ENDBRANCH   1  14
BRANCH   8  21
ATOM     21  C   UNL     1      -1.939  10.322  18.739  0.00  0.00    +0.000 C 
BRANCH  21  22
ATOM     22  C   UNL     1      -3.205  11.100  18.390  0.00  0.00    +0.000 A 
ATOM     23  C   UNL     1      -3.738  11.030  17.088  0.00  0.00    +0.000 A 
ATOM     24  C   UNL     1      -4.926  11.697  16.751  0.00  0.00    +0.000 A 
ATOM     25  C   UNL     1      -5.604  12.457  17.703  0.00  0.00    +0.000 A 
ATOM     26  C   UNL     1      -5.082  12.552  18.995  0.00  0.00    +0.000 A 
ATOM     27  C   UNL     1      -3.909  11.851  19.337  0.00  0.00    +0.000 A 
BRANCH  26  28
ATOM     28  N   UNL     1      -5.691  13.393  19.963  0.00  0.00    +0.000 N 
ATOM     29  N   UNL     1      -6.116  14.658  19.684  0.00  0.00    +0.000 NA
ATOM     30  C   UNL     1      -6.464  15.109  20.891  0.00  0.00    +0.000 A 
ATOM     31  C   UNL     1      -6.251  14.121  21.853  0.00  0.00    +0.000 A 
ATOM     32  N   UNL     1      -5.805  13.010  21.267  0.00  0.00    +0.000 NA
ENDBRANCH  26  28
ENDBRANCH  21  22
ENDBRANCH   8  21
TORSDOF 5
ENDMDL
MODEL 7
REMARK VINA RESULT:      -6.9      2.730      6.198
REMARK  Name = 
REMARK  6 active torsions:
REMARK  status: ('A' for Active; 'I' for Inactive)
REMARK    1  A    between atoms: C_1  and  C_2
REMARK    2  A    between atoms: C_5  and  N_6
REMARK    3  A    between atoms: C_11  and  C_12
REMARK    4  A    between atoms: C_19  and  C_20
REMARK    5  A    between atoms: C_20  and  C_21
REMARK    6  A    between atoms: C_25  and  N_26
REMARK                            x       y       z     vdW  Elec       q    Type
REMARK                         _______ _______ _______ _____ _____    ______ ____
ROOT
ATOM      1  C   UNL     1      -3.923  14.912  20.857  0.00  0.00    +0.000 C 
ATOM      2  O   UNL     1      -3.954  16.110  21.149  0.00  0.00    +0.000 OA
ATOM      3  N   UNL     1      -5.043  14.254  20.301  0.00  0.00    +0.000 N 
ATOM      4  C   UNL     1      -6.225  15.084  20.042  0.00  0.00    +0.000 C 
ATOM      5  C   UNL     1      -7.489  14.547  20.705  0.00  0.00    +0.000 C 
ATOM      6  C   UNL     1      -7.700  13.059  20.456  0.00  0.00    +0.000 C 
ATOM      7  C   UNL     1      -6.433  12.266  20.772  0.00  0.00    +0.000 C 
ATOM      8  C   UNL     1      -5.196  12.797  20.018  0.00  0.00    +0.000 C 
ENDROOT
BRANCH   1  14
ATOM      9  C   UNL     1       0.680  14.650  19.020  0.00  0.00    +0.000 C 
ATOM     10  C   UNL     1      -0.269  14.280  20.118  0.00  0.00    +0.000 A 
ATOM     11  C   UNL     1       0.176  13.705  21.306  0.00  0.00    +0.000 A 
ATOM     12  C   UNL     1      -0.730  13.418  22.327  0.00  0.00    +0.000 A 
ATOM     13  C   UNL     1      -2.109  13.678  22.166  0.00  0.00    +0.000 A 
ATOM     14  C   UNL     1      -2.581  14.263  20.975  0.00  0.00    +0.000 A 
ATOM     15  C   UNL     1      -1.632  14.583  19.984  0.00  0.00    +0.000 A 
BRANCH  13  16
ATOM     16  N   UNL     1      -2.960  13.356  23.260  0.00  0.00    +0.000 N 
ATOM     17  N   UNL     1      -3.644  12.182  23.367  0.00  0.00    +0.000 NA
ATOM     18  C   UNL     1      -4.345  12.367  24.487  0.00  0.00    +0.000 A 
ATOM     19  C   UNL     1      -3.981  13.576  25.086  0.00  0.00    +0.000 A 
ATOM     20  N   UNL     1      -3.028  14.166  24.364  0.00  0.00    +0.000 NA
ENDBRANCH  13  16
ENDBRANCH   1  14
BRANCH   8  21
ATOM     21  C   UNL     1      -5.278  12.465  18.483  0.00  0.00    +0.000 C 
BRANCH  21  22
ATOM     22  C   UNL     1      -4.185  11.584  17.885  0.00  0.00    +0.000 A 
ATOM     23  C   UNL     1      -4.359  11.016  16.607  0.00  0.00    +0.000 A 
ATOM     24  C   UNL     1      -3.352  10.241  16.012  0.00  0.00    +0.000 A 
ATOM     25  C   UNL     1      -2.152  10.005  16.682  0.00  0.00    +0.000 A 
ATOM     26  C   UNL     1      -1.968  10.545  17.957  0.00  0.00    +0.000 A 
ATOM     27  C   UNL     1      -2.967  11.353  18.534  0.00  0.00    +0.000 A 
BRANCH  26  28
ATOM     28  N   UNL     1      -0.801  10.248  18.708  0.00  0.00    +0.000 N 
ATOM     29  N   UNL     1      -0.737  10.384  20.063  0.00  0.00    +0.000 NA
ATOM     30  C   UNL     1       0.555  10.152  20.308  0.00  0.00    +0.000 A 
ATOM     31  C   UNL     1       1.226   9.877  19.116  0.00  0.00    +0.000 A 
ATOM     32  N   UNL     1       0.365   9.888  18.099  0.00  0.00    +0.000 NA
ENDBRANCH  26  28
ENDBRANCH  21  22
ENDBRANCH   8  21
TORSDOF 5
ENDMDL
MODEL 8
REMARK VINA RESULT:      -6.9      3.158      7.381
REMARK  Name = 
REMARK  6 active torsions:
REMARK  status: ('A' for Active; 'I' for Inactive)
REMARK    1  A    between atoms: C_1  and  C_2
REMARK    2  A    between atoms: C_5  and  N_6
REMARK    3  A    between atoms: C_11  and  C_12
REMARK    4  A    between atoms: C_19  and  C_20
REMARK    5  A    between atoms: C_20  and  C_21
REMARK    6  A    between atoms: C_25  and  N_26
REMARK                            x       y       z     vdW  Elec       q    Type
REMARK                         _______ _______ _______ _____ _____    ______ ____
ROOT
ATOM      1  C   UNL     1       0.445  13.694  19.042  0.00  0.00    +0.000 C 
ATOM      2  O   UNL     1      -0.101  14.714  18.614  0.00  0.00    +0.000 OA
ATOM      3  N   UNL     1       0.011  12.404  18.662  0.00  0.00    +0.000 N 
ATOM      4  C   UNL     1      -1.088  12.345  17.691  0.00  0.00    +0.000 C 
ATOM      5  C   UNL     1      -2.271  11.514  18.177  0.00  0.00    +0.000 C 
ATOM      6  C   UNL     1      -1.852  10.160  18.734  0.00  0.00    +0.000 C 
ATOM      7  C   UNL     1      -0.724  10.311  19.752  0.00  0.00    +0.000 C 
ATOM      8  C   UNL     1       0.484  11.091  19.191  0.00  0.00    +0.000 C 
ENDROOT
BRANCH   1  14
ATOM      9  C   UNL     1       5.232  14.997  18.907  0.00  0.00    +0.000 C 
ATOM     10  C   UNL     1       4.017  14.719  19.739  0.00  0.00    +0.000 A 
ATOM     11  C   UNL     1       3.977  15.020  21.098  0.00  0.00    +0.000 A 
ATOM     12  C   UNL     1       2.812  14.794  21.831  0.00  0.00    +0.000 A 
ATOM     13  C   UNL     1       1.669  14.233  21.220  0.00  0.00    +0.000 A 
ATOM     14  C   UNL     1       1.686  13.924  19.845  0.00  0.00    +0.000 A 
ATOM     15  C   UNL     1       2.862  14.211  19.126  0.00  0.00    +0.000 A 
BRANCH  13  16
ATOM     16  N   UNL     1       0.524  14.038  22.042  0.00  0.00    +0.000 N 
ATOM     17  N   UNL     1      -0.088  12.834  22.213  0.00  0.00    +0.000 NA
ATOM     18  C   UNL     1      -1.129  13.156  22.985  0.00  0.00    +0.000 A 
ATOM     19  C   UNL     1      -1.052  14.500  23.356  0.00  0.00    +0.000 A 
ATOM     20  N   UNL     1       0.051  15.045  22.842  0.00  0.00    +0.000 NA
ENDBRANCH  13  16
ENDBRANCH   1  14
BRANCH   8  21
ATOM     21  C   UNL     1       1.269  10.238  18.128  0.00  0.00    +0.000 C 
BRANCH  21  22
ATOM     22  C   UNL     1       1.841   8.895  18.573  0.00  0.00    +0.000 A 
ATOM     23  C   UNL     1       1.577   8.411  19.869  0.00  0.00    +0.000 A 
ATOM     24  C   UNL     1       2.050   7.158  20.289  0.00  0.00    +0.000 A 
ATOM     25  C   UNL     1       2.807   6.364  19.429  0.00  0.00    +0.000 A 
ATOM     26  C   UNL     1       3.095   6.835  18.145  0.00  0.00    +0.000 A 
ATOM     27  C   UNL     1       2.586   8.076  17.717  0.00  0.00    +0.000 A 
BRANCH  26  28
ATOM     28  N   UNL     1       3.942   6.099  17.276  0.00  0.00    +0.000 N 
ATOM     29  N   UNL     1       3.948   4.736  17.224  0.00  0.00    +0.000 NA
ATOM     30  C   UNL     1       4.978   4.492  16.410  0.00  0.00    +0.000 A 
ATOM     31  C   UNL     1       5.553   5.692  15.991  0.00  0.00    +0.000 A 
ATOM     32  N   UNL     1       4.873   6.720  16.496  0.00  0.00    +0.000 NA
ENDBRANCH  26  28
ENDBRANCH  21  22
ENDBRANCH   8  21
TORSDOF 5
ENDMDL
MODEL 9
REMARK VINA RESULT:      -6.8      9.122     11.841
REMARK  Name = 
REMARK  6 active torsions:
REMARK  status: ('A' for Active; 'I' for Inactive)
REMARK    1  A    between atoms: C_1  and  C_2
REMARK    2  A    between atoms: C_5  and  N_6
REMARK    3  A    between atoms: C_11  and  C_12
REMARK    4  A    between atoms: C_19  and  C_20
REMARK    5  A    between atoms: C_20  and  C_21
REMARK    6  A    between atoms: C_25  and  N_26
REMARK                            x       y       z     vdW  Elec       q    Type
REMARK                         _______ _______ _______ _____ _____    ______ ____
ROOT
ATOM      1  C   UNL     1       7.575  14.628  18.417  0.00  0.00    +0.000 C 
ATOM      2  O   UNL     1       7.282  14.654  17.220  0.00  0.00    +0.000 OA
ATOM      3  N   UNL     1       6.739  15.206  19.399  0.00  0.00    +0.000 N 
ATOM      4  C   UNL     1       5.480  15.790  18.923  0.00  0.00    +0.000 C 
ATOM      5  C   UNL     1       5.301  17.246  19.340  0.00  0.00    +0.000 C 
ATOM      6  C   UNL     1       5.578  17.474  20.820  0.00  0.00    +0.000 C 
ATOM      7  C   UNL     1       6.915  16.858  21.229  0.00  0.00    +0.000 C 
ATOM      8  C   UNL     1       7.020  15.364  20.856  0.00  0.00    +0.000 C 
ENDROOT
BRANCH   1  14
ATOM      9  C   UNL     1       9.320  10.048  19.197  0.00  0.00    +0.000 C 
ATOM     10  C   UNL     1       9.621  11.501  18.994  0.00  0.00    +0.000 A 
ATOM     11  C   UNL     1      10.920  11.955  18.775  0.00  0.00    +0.000 A 
ATOM     12  C   UNL     1      11.158  13.310  18.540  0.00  0.00    +0.000 A 
ATOM     13  C   UNL     1      10.098  14.243  18.547  0.00  0.00    +0.000 A 
ATOM     14  C   UNL     1       8.776  13.806  18.762  0.00  0.00    +0.000 A 
ATOM     15  C   UNL     1       8.567  12.425  18.948  0.00  0.00    +0.000 A 
BRANCH  13  16
ATOM     16  N   UNL     1      10.432  15.603  18.296  0.00  0.00    +0.000 N 
ATOM     17  N   UNL     1      10.602  16.123  17.049  0.00  0.00    +0.000 NA
ATOM     18  C   UNL     1      10.970  17.379  17.316  0.00  0.00    +0.000 A 
ATOM     19  C   UNL     1      10.895  17.617  18.691  0.00  0.00    +0.000 A 
ATOM     20  N   UNL     1      10.458  16.522  19.313  0.00  0.00    +0.000 NA
ENDBRANCH  13  16
ENDBRANCH   1  14
BRANCH   8  21
ATOM     21  C   UNL     1       6.091  14.482  21.769  0.00  0.00    +0.000 C 
BRANCH  21  22
ATOM     22  C   UNL     1       6.754  13.436  22.661  0.00  0.00    +0.000 A 
ATOM     23  C   UNL     1       8.074  13.021  22.400  0.00  0.00    +0.000 A 
ATOM     24  C   UNL     1       8.724  12.097  23.232  0.00  0.00    +0.000 A 
ATOM     25  C   UNL     1       8.069  11.557  24.337  0.00  0.00    +0.000 A 
ATOM     26  C   UNL     1       6.753  11.942  24.602  0.00  0.00    +0.000 A 
ATOM     27  C   UNL     1       6.118  12.898  23.786  0.00  0.00    +0.000 A 
BRANCH  26  28
ATOM     28  N   UNL     1       6.021  11.343  25.660  0.00  0.00    +0.000 N 
ATOM     29  N   UNL     1       6.513  11.219  26.926  0.00  0.00    +0.000 NA
ATOM     30  C   UNL     1       5.574  10.478  27.520  0.00  0.00    +0.000 A 
ATOM     31  C   UNL     1       4.552  10.184  26.616  0.00  0.00    +0.000 A 
ATOM     32  N   UNL     1       4.802  10.769  25.446  0.00  0.00    +0.000 NA
ENDBRANCH  26  28
ENDBRANCH  21  22
ENDBRANCH   8  21
TORSDOF 5
ENDMDL
