MODEL 1
REMARK VINA RESULT:      -7.7      0.000      0.000
REMARK  Name = 
REMARK  5 active torsions:
REMARK  status: ('A' for Active; 'I' for Inactive)
REMARK    1  A    between atoms: C_1  and  C_2
REMARK    2  A    between atoms: C_5  and  C_6
REMARK    3  A    between atoms: C_7  and  N_8
REMARK    4  A    between atoms: N_11  and  C_12
REMARK    5  A    between atoms: N_20  and  C_21
REMARK                            x       y       z     vdW  Elec       q    Type
REMARK                         _______ _______ _______ _____ _____    ______ ____
ROOT
ATOM      1  N   UNL     1       0.692  10.083  19.340  0.00  0.00    +0.000 N 
ATOM      2  C   UNL     1       1.415   9.118  18.666  0.00  0.00    +0.000 C 
ATOM      3  O   UNL     1       1.599   9.079  17.455  0.00  0.00    +0.000 OA
ATOM      4  N   UNL     1       1.903   8.116  19.498  0.00  0.00    +0.000 N 
ATOM      5  H   UNL     1       0.583   9.985  20.339  0.00  0.00    +0.000 HD
ATOM      6  H   UNL     1       1.272   7.851  20.239  0.00  0.00    +0.000 HD
ENDROOT
BRANCH   4   7
ATOM      7  C   UNL     1       2.684   7.068  18.942  0.00  0.00    +0.000 A 
ATOM      8  C   UNL     1       3.511   7.283  17.829  0.00  0.00    +0.000 A 
ATOM      9  C   UNL     1       4.249   6.231  17.264  0.00  0.00    +0.000 A 
ATOM     10  C   UNL     1       4.166   4.939  17.793  0.00  0.00    +0.000 A 
ATOM     11  C   UNL     1       3.353   4.721  18.892  0.00  0.00    +0.000 A 
ATOM     12  C   UNL     1       2.629   5.784  19.464  0.00  0.00    +0.000 A 
ATOM     13  C   UNL     1       1.752   5.231  20.537  0.00  0.00    +0.000 C 
ATOM     14  C   UNL     1       2.455   3.890  20.791  0.00  0.00    +0.000 C 
ATOM     15  N   UNL     1       3.072   3.489  19.518  0.00  0.00    +0.000 N 
ATOM     16  C   UNL     1       4.109   2.474  19.544  0.00  0.00    +0.000 C 
ENDBRANCH   4   7
BRANCH   1  23
ATOM     17  C   UNL     1       1.703  13.141  19.348  0.00  0.00    +0.000 C 
ATOM     18  C   UNL     1       0.495  12.534  18.736  0.00  0.00    +0.000 A 
ATOM     19  N   UNL     1      -0.356  13.342  18.096  0.00  0.00    +0.000 NA
ATOM     20  N   UNL     1      -1.342  12.526  17.712  0.00  0.00    +0.000 N 
ATOM     21  C   UNL     1      -1.160  11.223  18.061  0.00  0.00    +0.000 A 
ATOM     22  C   UNL     1      -2.163  10.217  17.625  0.00  0.00    +0.000 C 
ATOM     23  C   UNL     1       0.042  11.172  18.752  0.00  0.00    +0.000 A 
ATOM     24  H   UNL     1      -2.122  12.925  17.204  0.00  0.00    +0.000 HD
ENDBRANCH   1  23
TORSDOF 2
ENDMDL
MODEL 2
REMARK VINA RESULT:      -7.7      2.359      7.654
REMARK  Name = 
REMARK  5 active torsions:
REMARK  status: ('A' for Active; 'I' for Inactive)
REMARK    1  A    between atoms: C_1  and  C_2
REMARK    2  A    between atoms: C_5  and  C_6
REMARK    3  A    between atoms: C_7  and  N_8
REMARK    4  A    between atoms: N_11  and  C_12
REMARK    5  A    between atoms: N_20  and  C_21
REMARK                            x       y       z     vdW  Elec       q    Type
REMARK                         _______ _______ _______ _____ _____    ______ ____
ROOT
ATOM      1  N   UNL     1       2.847   5.418  20.475  0.00  0.00    +0.000 N 
ATOM      2  C   UNL     1       2.305   6.565  19.929  0.00  0.00    +0.000 C 
ATOM      3  O   UNL     1       2.249   6.830  18.733  0.00  0.00    +0.000 OA
ATOM      4  N   UNL     1       1.849   7.466  20.885  0.00  0.00    +0.000 N 
ATOM      5  H   UNL     1       2.865   5.332  21.481  0.00  0.00    +0.000 HD
ATOM      6  H   UNL     1       2.428   7.522  21.709  0.00  0.00    +0.000 HD
ENDROOT
BRANCH   4   7
ATOM      7  C   UNL     1       1.248   8.683  20.465  0.00  0.00    +0.000 A 
ATOM      8  C   UNL     1       1.391   9.154  19.151  0.00  0.00    +0.000 A 
ATOM      9  C   UNL     1       0.825  10.377  18.756  0.00  0.00    +0.000 A 
ATOM     10  C   UNL     1       0.113  11.159  19.672  0.00  0.00    +0.000 A 
ATOM     11  C   UNL     1      -0.034  10.698  20.969  0.00  0.00    +0.000 A 
ATOM     12  C   UNL     1       0.523   9.464  21.353  0.00  0.00    +0.000 A 
ATOM     13  C   UNL     1       0.320   9.293  22.821  0.00  0.00    +0.000 C 
ATOM     14  C   UNL     1      -0.812  10.305  23.053  0.00  0.00    +0.000 C 
ATOM     15  N   UNL     1      -0.639  11.368  22.052  0.00  0.00    +0.000 N 
ATOM     16  C   UNL     1      -1.760  12.248  21.781  0.00  0.00    +0.000 C 
ENDBRANCH   4   7
BRANCH   1  23
ATOM     17  C   UNL     1       1.454   2.612  19.724  0.00  0.00    +0.000 C 
ATOM     18  C   UNL     1       2.809   3.125  19.402  0.00  0.00    +0.000 A 
ATOM     19  N   UNL     1       3.633   2.328  18.714  0.00  0.00    +0.000 NA
ATOM     20  N   UNL     1       4.763   3.035  18.630  0.00  0.00    +0.000 N 
ATOM     21  C   UNL     1       4.704   4.261  19.218  0.00  0.00    +0.000 A 
ATOM     22  C   UNL     1       5.884   5.159  19.125  0.00  0.00    +0.000 C 
ATOM     23  C   UNL     1       3.429   4.370  19.755  0.00  0.00    +0.000 A 
ATOM     24  H   UNL     1       5.552   2.620  18.147  0.00  0.00    +0.000 HD
ENDBRANCH   1  23
TORSDOF 2
ENDMDL
MODEL 3
REMARK VINA RESULT:      -7.6      0.849      1.958
REMARK  Name = 
REMARK  5 active torsions:
REMARK  status: ('A' for Active; 'I' for Inactive)
REMARK    1  A    between atoms: C_1  and  C_2
REMARK    2  A    between atoms: C_5  and  C_6
REMARK    3  A    between atoms: C_7  and  N_8
REMARK    4  A    between atoms: N_11  and  C_12
REMARK    5  A    between atoms: N_20  and  C_21
REMARK                            x       y       z     vdW  Elec       q    Type
REMARK                         _______ _______ _______ _____ _____    ______ ____
ROOT
ATOM      1  N   UNL     1       1.116   9.777  19.276  0.00  0.00    +0.000 N 
ATOM      2  C   UNL     1       1.748   8.847  18.472  0.00  0.00    +0.000 C 
ATOM      3  O   UNL     1       1.853   8.911  17.252  0.00  0.00    +0.000 OA
ATOM      4  N   UNL     1       2.238   7.754  19.178  0.00  0.00    +0.000 N 
ATOM      5  H   UNL     1       1.066   9.593  20.266  0.00  0.00    +0.000 HD
ATOM      6  H   UNL     1       1.643   7.450  19.934  0.00  0.00    +0.000 HD
ENDROOT
BRANCH   4   7
ATOM      7  C   UNL     1       2.930   6.728  18.481  0.00  0.00    +0.000 A 
ATOM      8  C   UNL     1       3.949   7.026  17.564  0.00  0.00    +0.000 A 
ATOM      9  C   UNL     1       4.601   6.007  16.851  0.00  0.00    +0.000 A 
ATOM     10  C   UNL     1       4.238   4.668  17.034  0.00  0.00    +0.000 A 
ATOM     11  C   UNL     1       3.235   4.367  17.939  0.00  0.00    +0.000 A 
ATOM     12  C   UNL     1       2.598   5.394  18.661  0.00  0.00    +0.000 A 
ATOM     13  C   UNL     1       1.485   4.790  19.452  0.00  0.00    +0.000 C 
ATOM     14  C   UNL     1       1.925   3.319  19.452  0.00  0.00    +0.000 C 
ATOM     15  N   UNL     1       2.672   3.102  18.205  0.00  0.00    +0.000 N 
ATOM     16  C   UNL     1       3.525   1.932  18.107  0.00  0.00    +0.000 C 
ENDBRANCH   4   7
BRANCH   1  23
ATOM     17  C   UNL     1      -1.904  10.009  18.178  0.00  0.00    +0.000 C 
ATOM     18  C   UNL     1      -0.866  11.056  18.356  0.00  0.00    +0.000 A 
ATOM     19  N   UNL     1      -1.171  12.307  17.997  0.00  0.00    +0.000 NA
ATOM     20  N   UNL     1      -0.045  12.987  18.224  0.00  0.00    +0.000 N 
ATOM     21  C   UNL     1       0.972  12.236  18.730  0.00  0.00    +0.000 A 
ATOM     22  C   UNL     1       2.251  12.905  19.084  0.00  0.00    +0.000 C 
ATOM     23  C   UNL     1       0.484  10.942  18.830  0.00  0.00    +0.000 A 
ATOM     24  H   UNL     1      -0.034  13.978  18.013  0.00  0.00    +0.000 HD
ENDBRANCH   1  23
TORSDOF 2
ENDMDL
MODEL 4
REMARK VINA RESULT:      -7.4      2.166      7.570
REMARK  Name = 
REMARK  5 active torsions:
REMARK  status: ('A' for Active; 'I' for Inactive)
REMARK    1  A    between atoms: C_1  and  C_2
REMARK    2  A    between atoms: C_5  and  C_6
REMARK    3  A    between atoms: C_7  and  N_8
REMARK    4  A    between atoms: N_11  and  C_12
REMARK    5  A    between atoms: N_20  and  C_21
REMARK                            x       y       z     vdW  Elec       q    Type
REMARK                         _______ _______ _______ _____ _____    ______ ____
ROOT
ATOM      1  N   UNL     1       3.251   5.026  19.728  0.00  0.00    +0.000 N 
ATOM      2  C   UNL     1       2.532   6.089  19.216  0.00  0.00    +0.000 C 
ATOM      3  O   UNL     1       1.976   6.116  18.124  0.00  0.00    +0.000 OA
ATOM      4  N   UNL     1       2.526   7.200  20.052  0.00  0.00    +0.000 N 
ATOM      5  H   UNL     1       3.692   5.139  20.628  0.00  0.00    +0.000 HD
ATOM      6  H   UNL     1       3.399   7.362  20.530  0.00  0.00    +0.000 HD
ENDROOT
BRANCH   4   7
ATOM      7  C   UNL     1       1.807   8.361  19.661  0.00  0.00    +0.000 A 
ATOM      8  C   UNL     1       1.825   8.822  18.336  0.00  0.00    +0.000 A 
ATOM      9  C   UNL     1       1.142   9.992  17.968  0.00  0.00    +0.000 A 
ATOM     10  C   UNL     1       0.436  10.732  18.921  0.00  0.00    +0.000 A 
ATOM     11  C   UNL     1       0.412  10.283  20.230  0.00  0.00    +0.000 A 
ATOM     12  C   UNL     1       1.085   9.099  20.588  0.00  0.00    +0.000 A 
ATOM     13  C   UNL     1       0.995   8.937  22.068  0.00  0.00    +0.000 C 
ATOM     14  C   UNL     1      -0.192   9.864  22.366  0.00  0.00    +0.000 C 
ATOM     15  N   UNL     1      -0.169  10.921  21.345  0.00  0.00    +0.000 N 
ATOM     16  C   UNL     1      -1.369  11.711  21.142  0.00  0.00    +0.000 C 
ENDBRANCH   4   7
BRANCH   1  23
ATOM     17  C   UNL     1       1.712   2.255  20.304  0.00  0.00    +0.000 C 
ATOM     18  C   UNL     1       2.778   2.572  19.320  0.00  0.00    +0.000 A 
ATOM     19  N   UNL     1       3.225   1.582  18.541  0.00  0.00    +0.000 NA
ATOM     20  N   UNL     1       4.190   2.157  17.819  0.00  0.00    +0.000 N 
ATOM     21  C   UNL     1       4.378   3.479  18.084  0.00  0.00    +0.000 A 
ATOM     22  C   UNL     1       5.381   4.235  17.290  0.00  0.00    +0.000 C 
ATOM     23  C   UNL     1       3.471   3.806  19.081  0.00  0.00    +0.000 A 
ATOM     24  H   UNL     1       4.691   1.586  17.148  0.00  0.00    +0.000 HD
ENDBRANCH   1  23
TORSDOF 2
ENDMDL
MODEL 5
REMARK VINA RESULT:      -7.4      2.289      7.760
REMARK  Name = 
REMARK  5 active torsions:
REMARK  status: ('A' for Active; 'I' for Inactive)
REMARK    1  A    between atoms: C_1  and  C_2
REMARK    2  A    between atoms: C_5  and  C_6
REMARK    3  A    between atoms: C_7  and  N_8
REMARK    4  A    between atoms: N_11  and  C_12
REMARK    5  A    between atoms: N_20  and  C_21
REMARK                            x       y       z     vdW  Elec       q    Type
REMARK                         _______ _______ _______ _____ _____    ______ ____
ROOT
ATOM      1  N   UNL     1       3.229   6.350  18.675  0.00  0.00    +0.000 N 
ATOM      2  C   UNL     1       2.420   6.916  19.642  0.00  0.00    +0.000 C 
ATOM      3  O   UNL     1       2.039   6.364  20.668  0.00  0.00    +0.000 OA
ATOM      4  N   UNL     1       2.007   8.206  19.326  0.00  0.00    +0.000 N 
ATOM      5  H   UNL     1       3.445   6.898  17.856  0.00  0.00    +0.000 HD
ATOM      6  H   UNL     1       1.804   8.346  18.349  0.00  0.00    +0.000 HD
ENDROOT
BRANCH   4   7
ATOM      7  C   UNL     1       1.186   8.918  20.241  0.00  0.00    +0.000 A 
ATOM      8  C   UNL     1       1.248   8.675  21.621  0.00  0.00    +0.000 A 
ATOM      9  C   UNL     1       0.405   9.357  22.513  0.00  0.00    +0.000 A 
ATOM     10  C   UNL     1      -0.526  10.288  22.040  0.00  0.00    +0.000 A 
ATOM     11  C   UNL     1      -0.590  10.533  20.680  0.00  0.00    +0.000 A 
ATOM     12  C   UNL     1       0.270   9.858  19.794  0.00  0.00    +0.000 A 
ATOM     13  C   UNL     1      -0.113  10.223  18.398  0.00  0.00    +0.000 C 
ATOM     14  C   UNL     1      -0.906  11.510  18.667  0.00  0.00    +0.000 C 
ATOM     15  N   UNL     1      -1.505  11.365  20.002  0.00  0.00    +0.000 N 
ATOM     16  C   UNL     1      -1.985  12.558  20.675  0.00  0.00    +0.000 C 
ENDBRANCH   4   7
BRANCH   1  23
ATOM     17  C   UNL     1       1.586   3.638  18.103  0.00  0.00    +0.000 C 
ATOM     18  C   UNL     1       3.021   3.838  18.432  0.00  0.00    +0.000 A 
ATOM     19  N   UNL     1       3.794   2.754  18.546  0.00  0.00    +0.000 NA
ATOM     20  N   UNL     1       4.986   3.248  18.890  0.00  0.00    +0.000 N 
ATOM     21  C   UNL     1       5.024   4.605  18.988  0.00  0.00    +0.000 A 
ATOM     22  C   UNL     1       6.318   5.266  19.300  0.00  0.00    +0.000 C 
ATOM     23  C   UNL     1       3.742   5.049  18.703  0.00  0.00    +0.000 A 
ATOM     24  H   UNL     1       5.747   2.597  19.043  0.00  0.00    +0.000 HD
ENDBRANCH   1  23
TORSDOF 2
ENDMDL
MODEL 6
REMARK VINA RESULT:      -7.4      2.160      2.459
REMARK  Name = 
REMARK  5 active torsions:
REMARK  status: ('A' for Active; 'I' for Inactive)
REMARK    1  A    between atoms: C_1  and  C_2
REMARK    2  A    between atoms: C_5  and  C_6
REMARK    3  A    between atoms: C_7  and  N_8
REMARK    4  A    between atoms: N_11  and  C_12
REMARK    5  A    between atoms: N_20  and  C_21
REMARK                            x       y       z     vdW  Elec       q    Type
REMARK                         _______ _______ _______ _____ _____    ______ ____
ROOT
ATOM      1  N   UNL     1       1.292   9.106  18.797  0.00  0.00    +0.000 N 
ATOM      2  C   UNL     1       2.134   8.022  18.953  0.00  0.00    +0.000 C 
ATOM      3  O   UNL     1       2.574   7.606  20.019  0.00  0.00    +0.000 OA
ATOM      4  N   UNL     1       2.505   7.437  17.747  0.00  0.00    +0.000 N 
ATOM      5  H   UNL     1       1.026   9.370  17.860  0.00  0.00    +0.000 HD
ATOM      6  H   UNL     1       2.660   8.095  16.999  0.00  0.00    +0.000 HD
ENDROOT
BRANCH   4   7
ATOM      7  C   UNL     1       3.354   6.298  17.757  0.00  0.00    +0.000 A 
ATOM      8  C   UNL     1       4.747   6.422  17.651  0.00  0.00    +0.000 A 
ATOM      9  C   UNL     1       5.575   5.288  17.624  0.00  0.00    +0.000 A 
ATOM     10  C   UNL     1       5.023   4.005  17.691  0.00  0.00    +0.000 A 
ATOM     11  C   UNL     1       3.649   3.875  17.798  0.00  0.00    +0.000 A 
ATOM     12  C   UNL     1       2.828   5.017  17.842  0.00  0.00    +0.000 A 
ATOM     13  C   UNL     1       1.404   4.572  17.826  0.00  0.00    +0.000 C 
ATOM     14  C   UNL     1       1.576   3.112  18.270  0.00  0.00    +0.000 C 
ATOM     15  N   UNL     1       2.899   2.681  17.797  0.00  0.00    +0.000 N 
ATOM     16  C   UNL     1       3.488   1.493  18.387  0.00  0.00    +0.000 C 
ENDBRANCH   4   7
BRANCH   1  23
ATOM     17  C   UNL     1       1.628  12.301  19.037  0.00  0.00    +0.000 C 
ATOM     18  C   UNL     1       0.938  11.340  19.934  0.00  0.00    +0.000 A 
ATOM     19  N   UNL     1       0.370  11.819  21.045  0.00  0.00    +0.000 NA
ATOM     20  N   UNL     1      -0.112  10.730  21.651  0.00  0.00    +0.000 N 
ATOM     21  C   UNL     1       0.105   9.569  20.974  0.00  0.00    +0.000 A 
ATOM     22  C   UNL     1      -0.447   8.304  21.525  0.00  0.00    +0.000 C 
ATOM     23  C   UNL     1       0.807   9.914  19.829  0.00  0.00    +0.000 A 
ATOM     24  H   UNL     1      -0.588  10.848  22.537  0.00  0.00    +0.000 HD
ENDBRANCH   1  23
TORSDOF 2
ENDMDL
MODEL 7
REMARK VINA RESULT:      -7.3      2.296      7.683
REMARK  Name = 
REMARK  5 active torsions:
REMARK  status: ('A' for Active; 'I' for Inactive)
REMARK    1  A    between atoms: C_1  and  C_2
REMARK    2  A    between atoms: C_5  and  C_6
REMARK    3  A    between atoms: C_7  and  N_8
REMARK    4  A    between atoms: N_11  and  C_12
REMARK    5  A    between atoms: N_20  and  C_21
REMARK                            x       y       z     vdW  Elec       q    Type
REMARK                         _______ _______ _______ _____ _____    ______ ____
ROOT
ATOM      1  N   UNL     1       2.980   5.714  20.089  0.00  0.00    +0.000 N 
ATOM      2  C   UNL     1       1.916   6.493  20.502  0.00  0.00    +0.000 C 
ATOM      3  O   UNL     1       0.753   6.120  20.600  0.00  0.00    +0.000 OA
ATOM      4  N   UNL     1       2.271   7.812  20.765  0.00  0.00    +0.000 N 
ATOM      5  H   UNL     1       3.887   6.149  20.017  0.00  0.00    +0.000 HD
ATOM      6  H   UNL     1       2.959   8.188  20.131  0.00  0.00    +0.000 HD
ENDROOT
BRANCH   4   7
ATOM      7  C   UNL     1       1.279   8.722  21.219  0.00  0.00    +0.000 A 
ATOM      8  C   UNL     1       0.915   8.793  22.572  0.00  0.00    +0.000 A 
ATOM      9  C   UNL     1      -0.093   9.669  23.004  0.00  0.00    +0.000 A 
ATOM     10  C   UNL     1      -0.766  10.486  22.089  0.00  0.00    +0.000 A 
ATOM     11  C   UNL     1      -0.410  10.423  20.753  0.00  0.00    +0.000 A 
ATOM     12  C   UNL     1       0.614   9.554  20.330  0.00  0.00    +0.000 A 
ATOM     13  C   UNL     1       0.686   9.604  18.841  0.00  0.00    +0.000 C 
ATOM     14  C   UNL     1      -0.042  10.931  18.583  0.00  0.00    +0.000 C 
ATOM     15  N   UNL     1      -1.015  11.097  19.673  0.00  0.00    +0.000 N 
ATOM     16  C   UNL     1      -1.572  12.416  19.906  0.00  0.00    +0.000 C 
ENDBRANCH   4   7
BRANCH   1  23
ATOM     17  C   UNL     1       3.805   4.499  17.222  0.00  0.00    +0.000 C 
ATOM     18  C   UNL     1       3.287   3.821  18.437  0.00  0.00    +0.000 A 
ATOM     19  N   UNL     1       3.088   2.500  18.380  0.00  0.00    +0.000 NA
ATOM     20  N   UNL     1       2.582   2.202  19.579  0.00  0.00    +0.000 N 
ATOM     21  C   UNL     1       2.459   3.268  20.417  0.00  0.00    +0.000 A 
ATOM     22  C   UNL     1       1.969   3.039  21.801  0.00  0.00    +0.000 C 
ATOM     23  C   UNL     1       2.905   4.372  19.706  0.00  0.00    +0.000 A 
ATOM     24  H   UNL     1       2.340   1.237  19.769  0.00  0.00    +0.000 HD
ENDBRANCH   1  23
TORSDOF 2
ENDMDL
MODEL 8
REMARK VINA RESULT:      -7.3      1.976      7.756
REMARK  Name = 
REMARK  5 active torsions:
REMARK  status: ('A' for Active; 'I' for Inactive)
REMARK    1  A    between atoms: C_1  and  C_2
REMARK    2  A    between atoms: C_5  and  C_6
REMARK    3  A    between atoms: C_7  and  N_8
REMARK    4  A    between atoms: N_11  and  C_12
REMARK    5  A    between atoms: N_20  and  C_21
REMARK                            x       y       z     vdW  Elec       q    Type
REMARK                         _______ _______ _______ _____ _____    ______ ____
ROOT
ATOM      1  N   UNL     1       3.717   5.107  19.484  0.00  0.00    +0.000 N 
ATOM      2  C   UNL     1       2.569   5.857  19.659  0.00  0.00    +0.000 C 
ATOM      3  O   UNL     1       1.428   5.481  19.418  0.00  0.00    +0.000 OA
ATOM      4  N   UNL     1       2.820   7.150  20.103  0.00  0.00    +0.000 N 
ATOM      5  H   UNL     1       4.604   5.543  19.687  0.00  0.00    +0.000 HD
ATOM      6  H   UNL     1       3.645   7.571  19.703  0.00  0.00    +0.000 HD
ENDROOT
BRANCH   4   7
ATOM      7  C   UNL     1       1.729   8.027  20.345  0.00  0.00    +0.000 A 
ATOM      8  C   UNL     1       0.913   7.884  21.476  0.00  0.00    +0.000 A 
ATOM      9  C   UNL     1      -0.186   8.732  21.687  0.00  0.00    +0.000 A 
ATOM     10  C   UNL     1      -0.497   9.735  20.763  0.00  0.00    +0.000 A 
ATOM     11  C   UNL     1       0.306   9.883  19.646  0.00  0.00    +0.000 A 
ATOM     12  C   UNL     1       1.416   9.040  19.450  0.00  0.00    +0.000 A 
ATOM     13  C   UNL     1       2.007   9.344  18.115  0.00  0.00    +0.000 C 
ATOM     14  C   UNL     1       1.411  10.737  17.870  0.00  0.00    +0.000 C 
ATOM     15  N   UNL     1       0.117  10.771  18.566  0.00  0.00    +0.000 N 
ATOM     16  C   UNL     1      -0.491  12.062  18.831  0.00  0.00    +0.000 C 
ENDBRANCH   4   7
BRANCH   1  23
ATOM     17  C   UNL     1       2.867   2.441  21.081  0.00  0.00    +0.000 C 
ATOM     18  C   UNL     1       3.375   2.608  19.695  0.00  0.00    +0.000 A 
ATOM     19  N   UNL     1       3.549   1.508  18.956  0.00  0.00    +0.000 NA
ATOM     20  N   UNL     1       4.051   1.971  17.808  0.00  0.00    +0.000 N 
ATOM     21  C   UNL     1       4.194   3.325  17.764  0.00  0.00    +0.000 A 
ATOM     22  C   UNL     1       4.681   3.954  16.509  0.00  0.00    +0.000 C 
ATOM     23  C   UNL     1       3.768   3.798  18.996  0.00  0.00    +0.000 A 
ATOM     24  H   UNL     1       4.276   1.303  17.080  0.00  0.00    +0.000 HD
ENDBRANCH   1  23
TORSDOF 2
ENDMDL
MODEL 9
REMARK VINA RESULT:      -7.2      2.395      7.453
REMARK  Name = 
REMARK  5 active torsions:
REMARK  status: ('A' for Active; 'I' for Inactive)
REMARK    1  A    between atoms: C_1  and  C_2
REMARK    2  A    between atoms: C_5  and  C_6
REMARK    3  A    between atoms: C_7  and  N_8
REMARK    4  A    between atoms: N_11  and  C_12
REMARK    5  A    between atoms: N_20  and  C_21
REMARK                            x       y       z     vdW  Elec       q    Type
REMARK                         _______ _______ _______ _____ _____    ______ ____
ROOT
ATOM      1  N   UNL     1       2.731   5.530  20.524  0.00  0.00    +0.000 N 
ATOM      2  C   UNL     1       2.184   6.678  19.983  0.00  0.00    +0.000 C 
ATOM      3  O   UNL     1       2.080   6.925  18.787  0.00  0.00    +0.000 OA
ATOM      4  N   UNL     1       1.786   7.602  20.943  0.00  0.00    +0.000 N 
ATOM      5  H   UNL     1       2.791   5.461  21.529  0.00  0.00    +0.000 HD
ATOM      6  H   UNL     1       2.401   7.661  21.740  0.00  0.00    +0.000 HD
ENDROOT
BRANCH   4   7
ATOM      7  C   UNL     1       1.186   8.822  20.529  0.00  0.00    +0.000 A 
ATOM      8  C   UNL     1       1.346   9.309  19.223  0.00  0.00    +0.000 A 
ATOM      9  C   UNL     1       0.782  10.535  18.835  0.00  0.00    +0.000 A 
ATOM     10  C   UNL     1       0.055  11.304  19.750  0.00  0.00    +0.000 A 
ATOM     11  C   UNL     1      -0.108  10.827  21.039  0.00  0.00    +0.000 A 
ATOM     12  C   UNL     1       0.446   9.590  21.416  0.00  0.00    +0.000 A 
ATOM     13  C   UNL     1       0.224   9.401  22.879  0.00  0.00    +0.000 C 
ATOM     14  C   UNL     1      -0.914  10.407  23.107  0.00  0.00    +0.000 C 
ATOM     15  N   UNL     1      -0.731  11.482  22.122  0.00  0.00    +0.000 N 
ATOM     16  C   UNL     1      -1.851  12.362  21.846  0.00  0.00    +0.000 C 
ENDBRANCH   4   7
BRANCH   1  23
ATOM     17  C   UNL     1       5.665   5.398  19.201  0.00  0.00    +0.000 C 
ATOM     18  C   UNL     1       4.576   4.389  19.220  0.00  0.00    +0.000 A 
ATOM     19  N   UNL     1       4.782   3.233  18.580  0.00  0.00    +0.000 NA
ATOM     20  N   UNL     1       3.630   2.575  18.732  0.00  0.00    +0.000 N 
ATOM     21  C   UNL     1       2.691   3.246  19.455  0.00  0.00    +0.000 A 
ATOM     22  C   UNL     1       1.395   2.579  19.742  0.00  0.00    +0.000 C 
ATOM     23  C   UNL     1       3.264   4.462  19.797  0.00  0.00    +0.000 A 
ATOM     24  H   UNL     1       3.546   1.656  18.314  0.00  0.00    +0.000 HD
ENDBRANCH   1  23
TORSDOF 2
ENDMDL
