MODEL 1
REMARK VINA RESULT:      -8.6      0.000      0.000
REMARK  Name = 
REMARK  5 active torsions:
REMARK  status: ('A' for Active; 'I' for Inactive)
REMARK    1  A    between atoms: N_1  and  C_2
REMARK    2  A    between atoms: C_2  and  C_3
REMARK    3  A    between atoms: C_5  and  O_6
REMARK    4  A    between atoms: O_6  and  C_7
REMARK    5  A    between atoms: C_11  and  C_12
REMARK                            x       y       z     vdW  Elec       q    Type
REMARK                         _______ _______ _______ _____ _____    ______ ____
ROOT
ATOM      1  C   UNL     1       4.253   4.401  17.460  0.00  0.00    +0.000 A 
ATOM      2  C   UNL     1       3.487   3.284  17.082  0.00  0.00    +0.000 A 
ATOM      3  C   UNL     1       2.198   3.122  17.574  0.00  0.00    +0.000 A 
ATOM      4  C   UNL     1       1.661   4.064  18.449  0.00  0.00    +0.000 A 
ATOM      5  C   UNL     1       2.398   5.208  18.832  0.00  0.00    +0.000 A 
ATOM      6  C   UNL     1       3.706   5.358  18.321  0.00  0.00    +0.000 A 
ENDROOT
BRANCH   5   7
ATOM      7  C   UNL     1       1.823   6.115  19.881  0.00  0.00    +0.000 C 
ATOM      8  O   UNL     1       1.327   5.545  20.846  0.00  0.00    +0.000 OA
ATOM      9  N   UNL     1       1.898   7.495  19.896  0.00  0.00    +0.000 N 
ATOM     10  C   UNL     1       2.188   8.336  18.726  0.00  0.00    +0.000 C 
ATOM     11  C   UNL     1       1.005   9.308  18.438  0.00  0.00    +0.000 C 
ATOM     12  C   UNL     1       0.402   9.831  19.711  0.00  0.00    +0.000 A 
ATOM     13  C   UNL     1       0.709   9.327  20.956  0.00  0.00    +0.000 A 
ATOM     14  N   UNL     1       0.032   9.966  21.931  0.00  0.00    +0.000 N 
ATOM     15  C   UNL     1      -0.730  10.868  21.292  0.00  0.00    +0.000 A 
ATOM     16  N   UNL     1      -1.605  11.725  21.871  0.00  0.00    +0.000 NA
ATOM     17  C   UNL     1      -2.317  12.580  21.080  0.00  0.00    +0.000 A 
ATOM     18  C   UNL     1      -2.145  12.572  19.677  0.00  0.00    +0.000 A 
ATOM     19  C   UNL     1      -1.236  11.672  19.085  0.00  0.00    +0.000 A 
ATOM     20  C   UNL     1      -0.539  10.818  19.935  0.00  0.00    +0.000 A 
ATOM     21  C   UNL     1       1.662   8.212  21.158  0.00  0.00    +0.000 C 
ATOM     22  H   UNL     1       0.077   9.785  22.960  0.00  0.00    +0.000 HD
ENDBRANCH   5   7
BRANCH   1  23
ATOM     23  O   UNL     1       5.525   4.561  17.017  0.00  0.00    +0.000 OA
BRANCH  23  26
ATOM     24  C   UNL     1       7.622   7.401  17.928  0.00  0.00    +0.000 A 
ATOM     25  C   UNL     1       6.653   6.643  17.259  0.00  0.00    +0.000 A 
ATOM     26  C   UNL     1       6.459   5.319  17.644  0.00  0.00    +0.000 A 
ATOM     27  N   UNL     1       7.196   4.803  18.666  0.00  0.00    +0.000 NA
ATOM     28  C   UNL     1       8.117   5.554  19.321  0.00  0.00    +0.000 A 
ATOM     29  N   UNL     1       8.328   6.842  18.949  0.00  0.00    +0.000 NA
BRANCH  24  30
ATOM     30  C   UNL     1       7.901   8.814  17.519  0.00  0.00    +0.000 C 
BRANCH  30  31
ATOM     31  N   UNL     1       8.644   9.510  18.563  0.00  0.00    +0.000 NA
ATOM     32  H   UNL     1       8.385   9.095  19.487  0.00  0.00    +0.000 HD
ATOM     33  H   UNL     1       8.357  10.516  18.569  0.00  0.00    +0.000 HD
ENDBRANCH  30  31
ENDBRANCH  24  30
ENDBRANCH  23  26
ENDBRANCH   1  23
TORSDOF 5
ENDMDL
MODEL 2
REMARK VINA RESULT:      -8.6      3.648      5.612
REMARK  Name = 
REMARK  5 active torsions:
REMARK  status: ('A' for Active; 'I' for Inactive)
REMARK    1  A    between atoms: N_1  and  C_2
REMARK    2  A    between atoms: C_2  and  C_3
REMARK    3  A    between atoms: C_5  and  O_6
REMARK    4  A    between atoms: O_6  and  C_7
REMARK    5  A    between atoms: C_11  and  C_12
REMARK                            x       y       z     vdW  Elec       q    Type
REMARK                         _______ _______ _______ _____ _____    ______ ____
ROOT
ATOM      1  C   UNL     1       2.015   7.045  19.974  0.00  0.00    +0.000 A 
ATOM      2  C   UNL     1       2.662   7.105  18.728  0.00  0.00    +0.000 A 
ATOM      3  C   UNL     1       2.510   8.221  17.914  0.00  0.00    +0.000 A 
ATOM      4  C   UNL     1       1.710   9.283  18.329  0.00  0.00    +0.000 A 
ATOM      5  C   UNL     1       1.061   9.262  19.584  0.00  0.00    +0.000 A 
ATOM      6  C   UNL     1       1.229   8.121  20.400  0.00  0.00    +0.000 A 
ENDROOT
BRANCH   5   7
ATOM      7  C   UNL     1       0.104  10.369  19.917  0.00  0.00    +0.000 C 
ATOM      8  O   UNL     1       0.227  10.842  21.041  0.00  0.00    +0.000 OA
ATOM      9  N   UNL     1      -0.804  10.950  19.052  0.00  0.00    +0.000 N 
ATOM     10  C   UNL     1      -1.281  10.347  17.800  0.00  0.00    +0.000 C 
ATOM     11  C   UNL     1      -2.825  10.139  17.838  0.00  0.00    +0.000 C 
ATOM     12  C   UNL     1      -3.514  11.282  18.527  0.00  0.00    +0.000 A 
ATOM     13  C   UNL     1      -2.843  12.257  19.233  0.00  0.00    +0.000 A 
ATOM     14  N   UNL     1      -3.690  13.165  19.755  0.00  0.00    +0.000 N 
ATOM     15  C   UNL     1      -4.914  12.745  19.396  0.00  0.00    +0.000 A 
ATOM     16  N   UNL     1      -6.088  13.338  19.725  0.00  0.00    +0.000 NA
ATOM     17  C   UNL     1      -7.256  12.781  19.289  0.00  0.00    +0.000 A 
ATOM     18  C   UNL     1      -7.242  11.604  18.507  0.00  0.00    +0.000 A 
ATOM     19  C   UNL     1      -6.016  10.993  18.176  0.00  0.00    +0.000 A 
ATOM     20  C   UNL     1      -4.854  11.597  18.649  0.00  0.00    +0.000 A 
ATOM     21  C   UNL     1      -1.370  12.266  19.385  0.00  0.00    +0.000 C 
ATOM     22  H   UNL     1      -3.449  14.003  20.331  0.00  0.00    +0.000 HD
ENDBRANCH   5   7
BRANCH   1  23
ATOM     23  O   UNL     1       2.124   5.952  20.769  0.00  0.00    +0.000 OA
BRANCH  23  26
ATOM     24  C   UNL     1       3.093   2.623  19.643  0.00  0.00    +0.000 A 
ATOM     25  C   UNL     1       3.208   3.941  20.100  0.00  0.00    +0.000 A 
ATOM     26  C   UNL     1       2.045   4.674  20.322  0.00  0.00    +0.000 A 
ATOM     27  N   UNL     1       0.834   4.089  20.109  0.00  0.00    +0.000 NA
ATOM     28  C   UNL     1       0.735   2.804  19.686  0.00  0.00    +0.000 A 
ATOM     29  N   UNL     1       1.858   2.081  19.452  0.00  0.00    +0.000 NA
BRANCH  24  30
ATOM     30  C   UNL     1       4.315   1.810  19.344  0.00  0.00    +0.000 C 
BRANCH  30  31
ATOM     31  N   UNL     1       4.004   0.756  18.386  0.00  0.00    +0.000 NA
ATOM     32  H   UNL     1       4.849   0.152  18.272  0.00  0.00    +0.000 HD
ATOM     33  H   UNL     1       3.791   1.193  17.460  0.00  0.00    +0.000 HD
ENDBRANCH  30  31
ENDBRANCH  24  30
ENDBRANCH  23  26
ENDBRANCH   1  23
TORSDOF 5
ENDMDL
MODEL 3
REMARK VINA RESULT:      -8.5      1.704      2.330
REMARK  Name = 
REMARK  5 active torsions:
REMARK  status: ('A' for Active; 'I' for Inactive)
REMARK    1  A    between atoms: N_1  and  C_2
REMARK    2  A    between atoms: C_2  and  C_3
REMARK    3  A    between atoms: C_5  and  O_6
REMARK    4  A    between atoms: O_6  and  C_7
REMARK    5  A    between atoms: C_11  and  C_12
REMARK                            x       y       z     vdW  Elec       q    Type
REMARK                         _______ _______ _______ _____ _____    ______ ____
ROOT
ATOM      1  C   UNL     1       4.042   3.598  18.308  0.00  0.00    +0.000 A 
ATOM      2  C   UNL     1       3.131   2.621  17.872  0.00  0.00    +0.000 A 
ATOM      3  C   UNL     1       1.774   2.762  18.138  0.00  0.00    +0.000 A 
ATOM      4  C   UNL     1       1.313   3.870  18.845  0.00  0.00    +0.000 A 
ATOM      5  C   UNL     1       2.202   4.880  19.280  0.00  0.00    +0.000 A 
ATOM      6  C   UNL     1       3.576   4.722  18.998  0.00  0.00    +0.000 A 
ENDROOT
BRANCH   5   7
ATOM      7  C   UNL     1       1.668   5.979  20.153  0.00  0.00    +0.000 C 
ATOM      8  O   UNL     1       1.073   5.603  21.156  0.00  0.00    +0.000 OA
ATOM      9  N   UNL     1       1.878   7.334  19.977  0.00  0.00    +0.000 N 
ATOM     10  C   UNL     1       2.305   7.965  18.721  0.00  0.00    +0.000 C 
ATOM     11  C   UNL     1       1.238   8.988  18.225  0.00  0.00    +0.000 C 
ATOM     12  C   UNL     1       0.629   9.743  19.372  0.00  0.00    +0.000 A 
ATOM     13  C   UNL     1       0.824   9.401  20.693  0.00  0.00    +0.000 A 
ATOM     14  N   UNL     1       0.168  10.234  21.524  0.00  0.00    +0.000 N 
ATOM     15  C   UNL     1      -0.470  11.098  20.718  0.00  0.00    +0.000 A 
ATOM     16  N   UNL     1      -1.284  12.106  21.115  0.00  0.00    +0.000 NA
ATOM     17  C   UNL     1      -1.870  12.897  20.169  0.00  0.00    +0.000 A 
ATOM     18  C   UNL     1      -1.632  12.668  18.795  0.00  0.00    +0.000 A 
ATOM     19  C   UNL     1      -0.788  11.613  18.393  0.00  0.00    +0.000 A 
ATOM     20  C   UNL     1      -0.220  10.833  19.396  0.00  0.00    +0.000 A 
ATOM     21  C   UNL     1       1.653   8.246  21.108  0.00  0.00    +0.000 C 
ATOM     22  H   UNL     1       0.145  10.202  22.568  0.00  0.00    +0.000 HD
ENDBRANCH   5   7
BRANCH   1  23
ATOM     23  O   UNL     1       5.373   3.464  18.087  0.00  0.00    +0.000 OA
BRANCH  23  26
ATOM     24  C   UNL     1       6.882   4.880  15.085  0.00  0.00    +0.000 A 
ATOM     25  C   UNL     1       6.132   4.024  15.901  0.00  0.00    +0.000 A 
ATOM     26  C   UNL     1       6.095   4.272  17.271  0.00  0.00    +0.000 A 
ATOM     27  N   UNL     1       6.769   5.342  17.777  0.00  0.00    +0.000 NA
ATOM     28  C   UNL     1       7.475   6.176  16.973  0.00  0.00    +0.000 A 
ATOM     29  N   UNL     1       7.532   5.941  15.638  0.00  0.00    +0.000 NA
BRANCH  24  30
ATOM     30  C   UNL     1       6.992   4.627  13.613  0.00  0.00    +0.000 C 
BRANCH  30  31
ATOM     31  N   UNL     1       6.301   3.394  13.254  0.00  0.00    +0.000 NA
ATOM     32  H   UNL     1       6.080   2.870  14.131  0.00  0.00    +0.000 HD
ATOM     33  H   UNL     1       6.942   2.803  12.677  0.00  0.00    +0.000 HD
ENDBRANCH  30  31
ENDBRANCH  24  30
ENDBRANCH  23  26
ENDBRANCH   1  23
TORSDOF 5
ENDMDL
MODEL 4
REMARK VINA RESULT:      -8.5      1.388      1.802
REMARK  Name = 
REMARK  5 active torsions:
REMARK  status: ('A' for Active; 'I' for Inactive)
REMARK    1  A    between atoms: N_1  and  C_2
REMARK    2  A    between atoms: C_2  and  C_3
REMARK    3  A    between atoms: C_5  and  O_6
REMARK    4  A    between atoms: O_6  and  C_7
REMARK    5  A    between atoms: C_11  and  C_12
REMARK                            x       y       z     vdW  Elec       q    Type
REMARK                         _______ _______ _______ _____ _____    ______ ____
ROOT
ATOM      1  C   UNL     1       3.559   3.243  17.744  0.00  0.00    +0.000 A 
ATOM      2  C   UNL     1       2.640   2.180  17.728  0.00  0.00    +0.000 A 
ATOM      3  C   UNL     1       1.429   2.293  18.400  0.00  0.00    +0.000 A 
ATOM      4  C   UNL     1       1.124   3.460  19.097  0.00  0.00    +0.000 A 
ATOM      5  C   UNL     1       2.019   4.554  19.116  0.00  0.00    +0.000 A 
ATOM      6  C   UNL     1       3.243   4.423  18.426  0.00  0.00    +0.000 A 
ENDROOT
BRANCH   5   7
ATOM      7  C   UNL     1       1.699   5.729  19.994  0.00  0.00    +0.000 C 
ATOM      8  O   UNL     1       1.206   5.447  21.081  0.00  0.00    +0.000 OA
ATOM      9  N   UNL     1       2.000   7.051  19.729  0.00  0.00    +0.000 N 
ATOM     10  C   UNL     1       2.316   7.594  18.400  0.00  0.00    +0.000 C 
ATOM     11  C   UNL     1       1.287   8.691  17.992  0.00  0.00    +0.000 C 
ATOM     12  C   UNL     1       0.898   9.541  19.167  0.00  0.00    +0.000 A 
ATOM     13  C   UNL     1       1.230   9.232  20.469  0.00  0.00    +0.000 A 
ATOM     14  N   UNL     1       0.760  10.152  21.334  0.00  0.00    +0.000 N 
ATOM     15  C   UNL     1       0.101  11.041  20.572  0.00  0.00    +0.000 A 
ATOM     16  N   UNL     1      -0.565  12.133  21.018  0.00  0.00    +0.000 NA
ATOM     17  C   UNL     1      -1.196  12.939  20.115  0.00  0.00    +0.000 A 
ATOM     18  C   UNL     1      -1.157  12.638  18.734  0.00  0.00    +0.000 A 
ATOM     19  C   UNL     1      -0.466  11.496  18.282  0.00  0.00    +0.000 A 
ATOM     20  C   UNL     1       0.156  10.704  19.244  0.00  0.00    +0.000 A 
ATOM     21  C   UNL     1       2.002   8.022  20.834  0.00  0.00    +0.000 C 
ATOM     22  H   UNL     1       0.868  10.161  22.373  0.00  0.00    +0.000 HD
ENDBRANCH   5   7
BRANCH   1  23
ATOM     23  O   UNL     1       4.760   3.141  17.123  0.00  0.00    +0.000 OA
BRANCH  23  26
ATOM     24  C   UNL     1       7.236   5.724  17.817  0.00  0.00    +0.000 A 
ATOM     25  C   UNL     1       6.355   4.658  18.029  0.00  0.00    +0.000 A 
ATOM     26  C   UNL     1       5.618   4.176  16.950  0.00  0.00    +0.000 A 
ATOM     27  N   UNL     1       5.786   4.738  15.721  0.00  0.00    +0.000 NA
ATOM     28  C   UNL     1       6.659   5.758  15.524  0.00  0.00    +0.000 A 
ATOM     29  N   UNL     1       7.374   6.247  16.567  0.00  0.00    +0.000 NA
BRANCH  24  30
ATOM     30  C   UNL     1       8.014   6.309  18.956  0.00  0.00    +0.000 C 
BRANCH  30  31
ATOM     31  N   UNL     1       7.891   5.470  20.142  0.00  0.00    +0.000 NA
ATOM     32  H   UNL     1       8.845   5.152  20.424  0.00  0.00    +0.000 HD
ATOM     33  H   UNL     1       7.326   4.623  19.900  0.00  0.00    +0.000 HD
ENDBRANCH  30  31
ENDBRANCH  24  30
ENDBRANCH  23  26
ENDBRANCH   1  23
TORSDOF 5
ENDMDL
MODEL 5
REMARK VINA RESULT:      -8.5      2.181      4.270
REMARK  Name = 
REMARK  5 active torsions:
REMARK  status: ('A' for Active; 'I' for Inactive)
REMARK    1  A    between atoms: N_1  and  C_2
REMARK    2  A    between atoms: C_2  and  C_3
REMARK    3  A    between atoms: C_5  and  O_6
REMARK    4  A    between atoms: O_6  and  C_7
REMARK    5  A    between atoms: C_11  and  C_12
REMARK                            x       y       z     vdW  Elec       q    Type
REMARK                         _______ _______ _______ _____ _____    ______ ____
ROOT
ATOM      1  C   UNL     1       2.563   7.149  19.491  0.00  0.00    +0.000 A 
ATOM      2  C   UNL     1       2.620   7.859  18.279  0.00  0.00    +0.000 A 
ATOM      3  C   UNL     1       1.831   8.988  18.092  0.00  0.00    +0.000 A 
ATOM      4  C   UNL     1       0.976   9.417  19.105  0.00  0.00    +0.000 A 
ATOM      5  C   UNL     1       0.910   8.737  20.342  0.00  0.00    +0.000 A 
ATOM      6  C   UNL     1       1.721   7.593  20.516  0.00  0.00    +0.000 A 
ENDROOT
BRANCH   5   7
ATOM      7  C   UNL     1      -0.126   9.162  21.341  0.00  0.00    +0.000 C 
ATOM      8  O   UNL     1      -0.806   8.253  21.804  0.00  0.00    +0.000 OA
ATOM      9  N   UNL     1      -0.300  10.438  21.842  0.00  0.00    +0.000 N 
ATOM     10  C   UNL     1       0.208  11.667  21.216  0.00  0.00    +0.000 C 
ATOM     11  C   UNL     1      -0.964  12.628  20.852  0.00  0.00    +0.000 C 
ATOM     12  C   UNL     1      -2.033  12.611  21.907  0.00  0.00    +0.000 A 
ATOM     13  C   UNL     1      -2.071  11.691  22.933  0.00  0.00    +0.000 A 
ATOM     14  N   UNL     1      -3.131  11.892  23.741  0.00  0.00    +0.000 N 
ATOM     15  C   UNL     1      -3.784  12.936  23.206  0.00  0.00    +0.000 A 
ATOM     16  N   UNL     1      -4.936  13.478  23.671  0.00  0.00    +0.000 NA
ATOM     17  C   UNL     1      -5.485  14.537  23.007  0.00  0.00    +0.000 A 
ATOM     18  C   UNL     1      -4.862  15.060  21.851  0.00  0.00    +0.000 A 
ATOM     19  C   UNL     1      -3.668  14.485  21.373  0.00  0.00    +0.000 A 
ATOM     20  C   UNL     1      -3.151  13.404  22.083  0.00  0.00    +0.000 A 
ATOM     21  C   UNL     1      -1.059  10.622  23.088  0.00  0.00    +0.000 C 
ATOM     22  H   UNL     1      -3.397  11.341  24.589  0.00  0.00    +0.000 HD
ENDBRANCH   5   7
BRANCH   1  23
ATOM     23  O   UNL     1       3.300   6.027  19.682  0.00  0.00    +0.000 OA
BRANCH  23  26
ATOM     24  C   UNL     1       5.697   4.622  17.323  0.00  0.00    +0.000 A 
ATOM     25  C   UNL     1       5.180   5.406  18.360  0.00  0.00    +0.000 A 
ATOM     26  C   UNL     1       3.829   5.284  18.679  0.00  0.00    +0.000 A 
ATOM     27  N   UNL     1       3.057   4.398  17.991  0.00  0.00    +0.000 NA
ATOM     28  C   UNL     1       3.575   3.628  17.002  0.00  0.00    +0.000 A 
ATOM     29  N   UNL     1       4.885   3.745  16.670  0.00  0.00    +0.000 NA
BRANCH  24  30
ATOM     30  C   UNL     1       7.131   4.752  16.910  0.00  0.00    +0.000 C 
BRANCH  30  31
ATOM     31  N   UNL     1       7.358   6.033  16.250  0.00  0.00    +0.000 NA
ATOM     32  H   UNL     1       8.231   5.961  15.680  0.00  0.00    +0.000 HD
ATOM     33  H   UNL     1       7.508   6.767  16.980  0.00  0.00    +0.000 HD
ENDBRANCH  30  31
ENDBRANCH  24  30
ENDBRANCH  23  26
ENDBRANCH   1  23
TORSDOF 5
ENDMDL
MODEL 6
REMARK VINA RESULT:      -8.4      3.323      5.585
REMARK  Name = 
REMARK  5 active torsions:
REMARK  status: ('A' for Active; 'I' for Inactive)
REMARK    1  A    between atoms: N_1  and  C_2
REMARK    2  A    between atoms: C_2  and  C_3
REMARK    3  A    between atoms: C_5  and  O_6
REMARK    4  A    between atoms: O_6  and  C_7
REMARK    5  A    between atoms: C_11  and  C_12
REMARK                            x       y       z     vdW  Elec       q    Type
REMARK                         _______ _______ _______ _____ _____    ______ ____
ROOT
ATOM      1  C   UNL     1       2.341   7.761  19.038  0.00  0.00    +0.000 A 
ATOM      2  C   UNL     1       2.365   8.619  17.926  0.00  0.00    +0.000 A 
ATOM      3  C   UNL     1       1.605   9.782  17.923  0.00  0.00    +0.000 A 
ATOM      4  C   UNL     1       0.810  10.099  19.022  0.00  0.00    +0.000 A 
ATOM      5  C   UNL     1       0.778   9.267  20.164  0.00  0.00    +0.000 A 
ATOM      6  C   UNL     1       1.559   8.090  20.151  0.00  0.00    +0.000 A 
ENDROOT
BRANCH   5   7
ATOM      7  C   UNL     1      -0.198   9.586  21.259  0.00  0.00    +0.000 C 
ATOM      8  O   UNL     1      -0.662   8.613  21.842  0.00  0.00    +0.000 OA
ATOM      9  N   UNL     1      -0.526  10.849  21.717  0.00  0.00    +0.000 N 
ATOM     10  C   UNL     1      -0.301  12.099  20.978  0.00  0.00    +0.000 C 
ATOM     11  C   UNL     1      -1.648  12.834  20.712  0.00  0.00    +0.000 C 
ATOM     12  C   UNL     1      -2.577  12.717  21.886  0.00  0.00    +0.000 A 
ATOM     13  C   UNL     1      -2.349  11.872  22.951  0.00  0.00    +0.000 A 
ATOM     14  N   UNL     1      -3.332  11.954  23.870  0.00  0.00    +0.000 N 
ATOM     15  C   UNL     1      -4.204  12.843  23.368  0.00  0.00    +0.000 A 
ATOM     16  N   UNL     1      -5.372  13.224  23.941  0.00  0.00    +0.000 NA
ATOM     17  C   UNL     1      -6.159  14.136  23.298  0.00  0.00    +0.000 A 
ATOM     18  C   UNL     1      -5.762  14.675  22.053  0.00  0.00    +0.000 A 
ATOM     19  C   UNL     1      -4.548  14.267  21.464  0.00  0.00    +0.000 A 
ATOM     20  C   UNL     1      -3.785  13.331  22.157  0.00  0.00    +0.000 A 
ATOM     21  C   UNL     1      -1.163  10.990  23.035  0.00  0.00    +0.000 C 
ATOM     22  H   UNL     1      -3.408  11.425  24.768  0.00  0.00    +0.000 HD
ENDBRANCH   5   7
BRANCH   1  23
ATOM     23  O   UNL     1       3.049   6.605  19.048  0.00  0.00    +0.000 OA
BRANCH  23  26
ATOM     24  C   UNL     1       1.614   3.420  20.092  0.00  0.00    +0.000 A 
ATOM     25  C   UNL     1       2.194   4.691  20.177  0.00  0.00    +0.000 A 
ATOM     26  C   UNL     1       2.491   5.370  18.998  0.00  0.00    +0.000 A 
ATOM     27  N   UNL     1       2.196   4.792  17.800  0.00  0.00    +0.000 NA
ATOM     28  C   UNL     1       1.615   3.568  17.731  0.00  0.00    +0.000 A 
ATOM     29  N   UNL     1       1.331   2.888  18.870  0.00  0.00    +0.000 NA
BRANCH  24  30
ATOM     30  C   UNL     1       1.321   2.631  21.330  0.00  0.00    +0.000 C 
BRANCH  30  31
ATOM     31  N   UNL     1       2.487   2.602  22.205  0.00  0.00    +0.000 NA
ATOM     32  H   UNL     1       2.902   3.561  22.235  0.00  0.00    +0.000 HD
ATOM     33  H   UNL     1       3.199   1.953  21.798  0.00  0.00    +0.000 HD
ENDBRANCH  30  31
ENDBRANCH  24  30
ENDBRANCH  23  26
ENDBRANCH   1  23
TORSDOF 5
ENDMDL
MODEL 7
REMARK VINA RESULT:      -8.4      1.640      1.981
REMARK  Name = 
REMARK  5 active torsions:
REMARK  status: ('A' for Active; 'I' for Inactive)
REMARK    1  A    between atoms: N_1  and  C_2
REMARK    2  A    between atoms: C_2  and  C_3
REMARK    3  A    between atoms: C_5  and  O_6
REMARK    4  A    between atoms: O_6  and  C_7
REMARK    5  A    between atoms: C_11  and  C_12
REMARK                            x       y       z     vdW  Elec       q    Type
REMARK                         _______ _______ _______ _____ _____    ______ ____
ROOT
ATOM      1  C   UNL     1       3.494   3.473  17.210  0.00  0.00    +0.000 A 
ATOM      2  C   UNL     1       3.640   2.204  17.797  0.00  0.00    +0.000 A 
ATOM      3  C   UNL     1       3.113   1.953  19.058  0.00  0.00    +0.000 A 
ATOM      4  C   UNL     1       2.444   2.960  19.748  0.00  0.00    +0.000 A 
ATOM      5  C   UNL     1       2.263   4.241  19.178  0.00  0.00    +0.000 A 
ATOM      6  C   UNL     1       2.802   4.478  17.894  0.00  0.00    +0.000 A 
ENDROOT
BRANCH   5   7
ATOM      7  C   UNL     1       1.656   5.324  20.021  0.00  0.00    +0.000 C 
ATOM      8  O   UNL     1       0.844   4.940  20.855  0.00  0.00    +0.000 OA
ATOM      9  N   UNL     1       2.003   6.662  20.003  0.00  0.00    +0.000 N 
ATOM     10  C   UNL     1       2.720   7.333  18.911  0.00  0.00    +0.000 C 
ATOM     11  C   UNL     1       1.858   8.482  18.307  0.00  0.00    +0.000 C 
ATOM     12  C   UNL     1       1.094   9.213  19.374  0.00  0.00    +0.000 A 
ATOM     13  C   UNL     1       0.995   8.767  20.674  0.00  0.00    +0.000 A 
ATOM     14  N   UNL     1       0.254   9.600  21.431  0.00  0.00    +0.000 N 
ATOM     15  C   UNL     1      -0.140  10.573  20.592  0.00  0.00    +0.000 A 
ATOM     16  N   UNL     1      -0.934  11.624  20.909  0.00  0.00    +0.000 NA
ATOM     17  C   UNL     1      -1.255  12.529  19.938  0.00  0.00    +0.000 A 
ATOM     18  C   UNL     1      -0.767  12.371  18.621  0.00  0.00    +0.000 A 
ATOM     19  C   UNL     1       0.054  11.270  18.301  0.00  0.00    +0.000 A 
ATOM     20  C   UNL     1       0.347  10.374  19.326  0.00  0.00    +0.000 A 
ATOM     21  C   UNL     1       1.630   7.514  21.143  0.00  0.00    +0.000 C 
ATOM     22  H   UNL     1       0.020   9.501  22.445  0.00  0.00    +0.000 HD
ENDBRANCH   5   7
BRANCH   1  23
ATOM     23  O   UNL     1       4.028   3.749  15.995  0.00  0.00    +0.000 OA
BRANCH  23  26
ATOM     24  C   UNL     1       6.958   5.826  16.622  0.00  0.00    +0.000 A 
ATOM     25  C   UNL     1       5.744   5.166  16.842  0.00  0.00    +0.000 A 
ATOM     26  C   UNL     1       5.201   4.404  15.810  0.00  0.00    +0.000 A 
ATOM     27  N   UNL     1       5.870   4.306  14.628  0.00  0.00    +0.000 NA
ATOM     28  C   UNL     1       7.057   4.934  14.433  0.00  0.00    +0.000 A 
ATOM     29  N   UNL     1       7.592   5.690  15.424  0.00  0.00    +0.000 NA
BRANCH  24  30
ATOM     30  C   UNL     1       7.558   6.695  17.684  0.00  0.00    +0.000 C 
BRANCH  30  31
ATOM     31  N   UNL     1       7.608   8.083  17.238  0.00  0.00    +0.000 NA
ATOM     32  H   UNL     1       7.665   8.094  16.195  0.00  0.00    +0.000 HD
ATOM     33  H   UNL     1       8.478   8.527  17.614  0.00  0.00    +0.000 HD
ENDBRANCH  30  31
ENDBRANCH  24  30
ENDBRANCH  23  26
ENDBRANCH   1  23
TORSDOF 5
ENDMDL
MODEL 8
REMARK VINA RESULT:      -8.4      3.139     10.009
REMARK  Name = 
REMARK  5 active torsions:
REMARK  status: ('A' for Active; 'I' for Inactive)
REMARK    1  A    between atoms: N_1  and  C_2
REMARK    2  A    between atoms: C_2  and  C_3
REMARK    3  A    between atoms: C_5  and  O_6
REMARK    4  A    between atoms: O_6  and  C_7
REMARK    5  A    between atoms: C_11  and  C_12
REMARK                            x       y       z     vdW  Elec       q    Type
REMARK                         _______ _______ _______ _____ _____    ______ ____
ROOT
ATOM      1  C   UNL     1      -0.913  14.019  20.112  0.00  0.00    +0.000 A 
ATOM      2  C   UNL     1      -0.015  14.771  19.335  0.00  0.00    +0.000 A 
ATOM      3  C   UNL     1       1.184  14.209  18.914  0.00  0.00    +0.000 A 
ATOM      4  C   UNL     1       1.504  12.900  19.266  0.00  0.00    +0.000 A 
ATOM      5  C   UNL     1       0.613  12.111  20.030  0.00  0.00    +0.000 A 
ATOM      6  C   UNL     1      -0.602  12.697  20.447  0.00  0.00    +0.000 A 
ENDROOT
BRANCH   5   7
ATOM      7  C   UNL     1       1.069  10.759  20.494  0.00  0.00    +0.000 C 
ATOM      8  O   UNL     1       1.447  10.708  21.658  0.00  0.00    +0.000 OA
ATOM      9  N   UNL     1       1.001   9.583  19.769  0.00  0.00    +0.000 N 
ATOM     10  C   UNL     1       0.853   9.498  18.310  0.00  0.00    +0.000 C 
ATOM     11  C   UNL     1       2.068   8.758  17.673  0.00  0.00    +0.000 C 
ATOM     12  C   UNL     1       2.523   7.613  18.532  0.00  0.00    +0.000 A 
ATOM     13  C   UNL     1       2.071   7.404  19.817  0.00  0.00    +0.000 A 
ATOM     14  N   UNL     1       2.634   6.311  20.370  0.00  0.00    +0.000 N 
ATOM     15  C   UNL     1       3.471   5.838  19.432  0.00  0.00    +0.000 A 
ATOM     16  N   UNL     1       4.278   4.757  19.557  0.00  0.00    +0.000 NA
ATOM     17  C   UNL     1       5.082   4.406  18.511  0.00  0.00    +0.000 A 
ATOM     18  C   UNL     1       5.074   5.160  17.315  0.00  0.00    +0.000 A 
ATOM     19  C   UNL     1       4.234   6.286  17.198  0.00  0.00    +0.000 A 
ATOM     20  C   UNL     1       3.437   6.604  18.295  0.00  0.00    +0.000 A 
ATOM     21  C   UNL     1       1.094   8.298  20.479  0.00  0.00    +0.000 C 
ATOM     22  H   UNL     1       2.471   5.928  21.329  0.00  0.00    +0.000 HD
ENDBRANCH   5   7
BRANCH   1  23
ATOM     23  O   UNL     1      -2.074  14.558  20.561  0.00  0.00    +0.000 OA
BRANCH  23  26
ATOM     24  C   UNL     1      -4.136  12.925  23.085  0.00  0.00    +0.000 A 
ATOM     25  C   UNL     1      -3.089  13.662  22.519  0.00  0.00    +0.000 A 
ATOM     26  C   UNL     1      -3.072  13.844  21.138  0.00  0.00    +0.000 A 
ATOM     27  N   UNL     1      -4.075  13.320  20.381  0.00  0.00    +0.000 NA
ATOM     28  C   UNL     1      -5.095  12.624  20.944  0.00  0.00    +0.000 A 
ATOM     29  N   UNL     1      -5.120  12.427  22.286  0.00  0.00    +0.000 NA
BRANCH  24  30
ATOM     30  C   UNL     1      -4.173  12.661  24.559  0.00  0.00    +0.000 C 
BRANCH  30  31
ATOM     31  N   UNL     1      -5.409  11.978  24.924  0.00  0.00    +0.000 NA
ATOM     32  H   UNL     1      -5.311  11.615  25.899  0.00  0.00    +0.000 HD
ATOM     33  H   UNL     1      -5.543  11.160  24.286  0.00  0.00    +0.000 HD
ENDBRANCH  30  31
ENDBRANCH  24  30
ENDBRANCH  23  26
ENDBRANCH   1  23
TORSDOF 5
ENDMDL
MODEL 9
REMARK VINA RESULT:      -8.4      3.628      5.875
REMARK  Name = 
REMARK  5 active torsions:
REMARK  status: ('A' for Active; 'I' for Inactive)
REMARK    1  A    between atoms: N_1  and  C_2
REMARK    2  A    between atoms: C_2  and  C_3
REMARK    3  A    between atoms: C_5  and  O_6
REMARK    4  A    between atoms: O_6  and  C_7
REMARK    5  A    between atoms: C_11  and  C_12
REMARK                            x       y       z     vdW  Elec       q    Type
REMARK                         _______ _______ _______ _____ _____    ______ ____
ROOT
ATOM      1  C   UNL     1       1.857   7.504  19.855  0.00  0.00    +0.000 A 
ATOM      2  C   UNL     1       2.584   7.361  18.660  0.00  0.00    +0.000 A 
ATOM      3  C   UNL     1       2.553   8.365  17.700  0.00  0.00    +0.000 A 
ATOM      4  C   UNL     1       1.796   9.514  17.915  0.00  0.00    +0.000 A 
ATOM      5  C   UNL     1       1.071   9.697  19.114  0.00  0.00    +0.000 A 
ATOM      6  C   UNL     1       1.115   8.668  20.081  0.00  0.00    +0.000 A 
ENDROOT
BRANCH   5   7
ATOM      7  C   UNL     1       0.167  10.889  19.232  0.00  0.00    +0.000 C 
ATOM      8  O   UNL     1      -1.003  10.688  18.925  0.00  0.00    +0.000 OA
ATOM      9  N   UNL     1       0.512  12.127  19.742  0.00  0.00    +0.000 N 
ATOM     10  C   UNL     1       1.887  12.626  19.885  0.00  0.00    +0.000 C 
ATOM     11  C   UNL     1       2.094  13.923  19.046  0.00  0.00    +0.000 C 
ATOM     12  C   UNL     1       0.879  14.805  19.091  0.00  0.00    +0.000 A 
ATOM     13  C   UNL     1      -0.332  14.400  19.610  0.00  0.00    +0.000 A 
ATOM     14  N   UNL     1      -1.259  15.375  19.530  0.00  0.00    +0.000 N 
ATOM     15  C   UNL     1      -0.633  16.400  18.929  0.00  0.00    +0.000 A 
ATOM     16  N   UNL     1      -1.187  17.595  18.611  0.00  0.00    +0.000 NA
ATOM     17  C   UNL     1      -0.419  18.538  17.990  0.00  0.00    +0.000 A 
ATOM     18  C   UNL     1       0.935  18.271  17.682  0.00  0.00    +0.000 A 
ATOM     19  C   UNL     1       1.499  17.023  18.012  0.00  0.00    +0.000 A 
ATOM     20  C   UNL     1       0.672  16.094  18.640  0.00  0.00    +0.000 A 
ATOM     21  C   UNL     1      -0.551  13.047  20.171  0.00  0.00    +0.000 C 
ATOM     22  H   UNL     1      -2.253  15.335  19.847  0.00  0.00    +0.000 HD
ENDBRANCH   5   7
BRANCH   1  23
ATOM     23  O   UNL     1       1.847   6.523  20.791  0.00  0.00    +0.000 OA
BRANCH  23  26
ATOM     24  C   UNL     1       3.134   3.187  20.081  0.00  0.00    +0.000 A 
ATOM     25  C   UNL     1       3.121   4.557  20.370  0.00  0.00    +0.000 A 
ATOM     26  C   UNL     1       1.892   5.198  20.507  0.00  0.00    +0.000 A 
ATOM     27  N   UNL     1       0.743   4.479  20.376  0.00  0.00    +0.000 NA
ATOM     28  C   UNL     1       0.769   3.148  20.116  0.00  0.00    +0.000 A 
ATOM     29  N   UNL     1       1.958   2.511  19.966  0.00  0.00    +0.000 NA
BRANCH  24  30
ATOM     30  C   UNL     1       4.429   2.463  19.876  0.00  0.00    +0.000 C 
BRANCH  30  31
ATOM     31  N   UNL     1       5.396   3.326  19.207  0.00  0.00    +0.000 NA
ATOM     32  H   UNL     1       5.119   3.418  18.203  0.00  0.00    +0.000 HD
ATOM     33  H   UNL     1       6.336   2.869  19.242  0.00  0.00    +0.000 HD
ENDBRANCH  30  31
ENDBRANCH  24  30
ENDBRANCH  23  26
ENDBRANCH   1  23
TORSDOF 5
ENDMDL
