MODEL 1
REMARK VINA RESULT:      -7.0      0.000      0.000
REMARK  Name = 
REMARK  8 active torsions:
REMARK  status: ('A' for Active; 'I' for Inactive)
REMARK    1  A    between atoms: C_1  and  C_2
REMARK    2  A    between atoms: N_4  and  C_5
REMARK    3  A    between atoms: C_5  and  C_6
REMARK    4  A    between atoms: C_5  and  C_18
REMARK    5  A    between atoms: C_6  and  S_7
REMARK    6  A    between atoms: S_7  and  C_8
REMARK    7  A    between atoms: N_10  and  C_11
REMARK    8  A    between atoms: C_18  and  O_20
REMARK                            x       y       z     vdW  Elec       q    Type
REMARK                         _______ _______ _______ _____ _____    ______ ____
ROOT
ATOM      1  S   UNK A   1       3.948   4.097  17.269  0.00  0.00    +0.000 S 
ENDROOT
BRANCH   1   2
ATOM      2  C   UNK A   1       2.623   5.079  17.878  0.00  0.00    +0.000 C 
ATOM      3  O   UNK A   1       1.482   4.657  17.923  0.00  0.00    +0.000 OA
ATOM      4  N   UNK A   1       3.118   6.312  18.209  0.00  0.00    +0.000 N 
ATOM      5  H   UNK A   1       4.082   6.470  17.961  0.00  0.00    +0.000 HD
BRANCH   4   6
ATOM      6  C   UNK A   1       2.385   7.391  18.734  0.00  0.00    +0.000 A 
ATOM      7  C   UNK A   1       2.004   7.450  20.078  0.00  0.00    +0.000 A 
ATOM      8  C   UNK A   1       1.266   8.533  20.559  0.00  0.00    +0.000 A 
ATOM      9  C   UNK A   1       0.895   9.556  19.695  0.00  0.00    +0.000 A 
ATOM     10 BR   UNK A   1      -0.126  11.005  20.350  0.00  0.00    +0.000 Br
ATOM     11  C   UNK A   1       1.274   9.518  18.353  0.00  0.00    +0.000 A 
ATOM     12  C   UNK A   1       2.033   8.442  17.878  0.00  0.00    +0.000 A 
ENDBRANCH   4   6
ENDBRANCH   1   2
BRANCH   1  13
ATOM     13  C   UNK A   1       4.920   5.431  16.484  0.00  0.00    +0.000 C 
BRANCH  13  14
ATOM     14  C   UNK A   1       6.289   5.596  17.154  0.00  0.00    +0.000 C 
BRANCH  14  18
ATOM     15  C   UNK A   0       8.048   8.937  17.669  0.00  0.00    +0.000 C 
ATOM     16  C   UNK A   0       7.701   7.496  17.935  0.00  0.00    +0.000 C 
ATOM     17  O   UNK A   0       8.227   6.833  18.823  0.00  0.00    +0.000 OA
ATOM     18  N   UNK A   1       6.758   6.984  17.083  0.00  0.00    +0.000 N 
ATOM     19  H   UNK A   1       6.454   7.530  16.278  0.00  0.00    +0.000 HD
ENDBRANCH  14  18
BRANCH  14  20
ATOM     20  C   UNK A   1       7.361   4.760  16.451  0.00  0.00    +0.000 C 
ATOM     21  O   UNK A   1       7.500   4.732  15.235  0.00  0.00    +0.000 OA
BRANCH  20  22
ATOM     22  O   UNK A   1       8.171   4.065  17.281  0.00  0.00    +0.000 OA
ATOM     23  H   UNK A   1       8.522   4.584  18.032  0.00  0.00    +0.000 HD
ENDBRANCH  20  22
ENDBRANCH  14  20
ENDBRANCH  13  14
ENDBRANCH   1  13
TORSDOF 7
ENDMDL
MODEL 2
REMARK VINA RESULT:      -6.8      1.474      1.835
REMARK  Name = 
REMARK  8 active torsions:
REMARK  status: ('A' for Active; 'I' for Inactive)
REMARK    1  A    between atoms: C_1  and  C_2
REMARK    2  A    between atoms: N_4  and  C_5
REMARK    3  A    between atoms: C_5  and  C_6
REMARK    4  A    between atoms: C_5  and  C_18
REMARK    5  A    between atoms: C_6  and  S_7
REMARK    6  A    between atoms: S_7  and  C_8
REMARK    7  A    between atoms: N_10  and  C_11
REMARK    8  A    between atoms: C_18  and  O_20
REMARK                            x       y       z     vdW  Elec       q    Type
REMARK                         _______ _______ _______ _____ _____    ______ ____
ROOT
ATOM      1  S   UNK A   1       3.900   3.763  18.507  0.00  0.00    +0.000 S 
ENDROOT
BRANCH   1   2
ATOM      2  C   UNK A   1       2.612   4.959  18.428  0.00  0.00    +0.000 C 
ATOM      3  O   UNK A   1       1.528   4.701  17.937  0.00  0.00    +0.000 OA
ATOM      4  N   UNK A   1       3.082   6.133  18.952  0.00  0.00    +0.000 N 
ATOM      5  H   UNK A   1       4.064   6.140  19.181  0.00  0.00    +0.000 HD
BRANCH   4   6
ATOM      6  C   UNK A   1       2.366   7.337  19.074  0.00  0.00    +0.000 A 
ATOM      7  C   UNK A   1       1.790   7.742  20.281  0.00  0.00    +0.000 A 
ATOM      8  C   UNK A   1       1.076   8.939  20.360  0.00  0.00    +0.000 A 
ATOM      9  C   UNK A   1       0.925   9.731  19.228  0.00  0.00    +0.000 A 
ATOM     10 BR   UNK A   1      -0.065  11.337  19.339  0.00  0.00    +0.000 Br
ATOM     11  C   UNK A   1       1.501   9.347  18.018  0.00  0.00    +0.000 A 
ATOM     12  C   UNK A   1       2.236   8.157  17.946  0.00  0.00    +0.000 A 
ENDBRANCH   4   6
ENDBRANCH   1   2
BRANCH   1  13
ATOM     13  C   UNK A   1       4.273   3.667  16.720  0.00  0.00    +0.000 C 
BRANCH  13  14
ATOM     14  C   UNK A   1       5.704   4.128  16.421  0.00  0.00    +0.000 C 
BRANCH  14  18
ATOM     15  C   UNK A   0       7.842   5.933  19.008  0.00  0.00    +0.000 C 
ATOM     16  C   UNK A   0       7.521   4.941  17.922  0.00  0.00    +0.000 C 
ATOM     17  O   UNK A   0       8.350   4.166  17.456  0.00  0.00    +0.000 OA
ATOM     18  N   UNK A   1       6.223   4.994  17.485  0.00  0.00    +0.000 N 
ATOM     19  H   UNK A   1       5.613   5.745  17.804  0.00  0.00    +0.000 HD
ENDBRANCH  14  18
BRANCH  14  20
ATOM     20  C   UNK A   1       5.766   4.963  15.140  0.00  0.00    +0.000 C 
ATOM     21  O   UNK A   1       5.565   6.170  15.116  0.00  0.00    +0.000 OA
BRANCH  20  22
ATOM     22  O   UNK A   1       6.089   4.268  14.027  0.00  0.00    +0.000 OA
ATOM     23  H   UNK A   1       6.288   4.822  13.246  0.00  0.00    +0.000 HD
ENDBRANCH  20  22
ENDBRANCH  14  20
ENDBRANCH  13  14
ENDBRANCH   1  13
TORSDOF 7
ENDMDL
MODEL 3
REMARK VINA RESULT:      -6.7      1.453      2.089
REMARK  Name = 
REMARK  8 active torsions:
REMARK  status: ('A' for Active; 'I' for Inactive)
REMARK    1  A    between atoms: C_1  and  C_2
REMARK    2  A    between atoms: N_4  and  C_5
REMARK    3  A    between atoms: C_5  and  C_6
REMARK    4  A    between atoms: C_5  and  C_18
REMARK    5  A    between atoms: C_6  and  S_7
REMARK    6  A    between atoms: S_7  and  C_8
REMARK    7  A    between atoms: N_10  and  C_11
REMARK    8  A    between atoms: C_18  and  O_20
REMARK                            x       y       z     vdW  Elec       q    Type
REMARK                         _______ _______ _______ _____ _____    ______ ____
ROOT
ATOM      1  S   UNK A   1       4.105   3.780  18.688  0.00  0.00    +0.000 S 
ENDROOT
BRANCH   1   2
ATOM      2  C   UNK A   1       2.731   4.878  18.704  0.00  0.00    +0.000 C 
ATOM      3  O   UNK A   1       1.598   4.489  18.484  0.00  0.00    +0.000 OA
ATOM      4  N   UNK A   1       3.193   6.143  18.949  0.00  0.00    +0.000 N 
ATOM      5  H   UNK A   1       4.197   6.238  18.971  0.00  0.00    +0.000 HD
BRANCH   4   6
ATOM      6  C   UNK A   1       2.416   7.311  19.043  0.00  0.00    +0.000 A 
ATOM      7  C   UNK A   1       2.173   8.135  17.941  0.00  0.00    +0.000 A 
ATOM      8  C   UNK A   1       1.406   9.294  18.076  0.00  0.00    +0.000 A 
ATOM      9  C   UNK A   1       0.887   9.639  19.319  0.00  0.00    +0.000 A 
ATOM     10 BR   UNK A   1      -0.128  11.222  19.498  0.00  0.00    +0.000 Br
ATOM     11  C   UNK A   1       1.112   8.824  20.427  0.00  0.00    +0.000 A 
ATOM     12  C   UNK A   1       1.863   7.650  20.284  0.00  0.00    +0.000 A 
ENDBRANCH   4   6
ENDBRANCH   1   2
BRANCH   1  13
ATOM     13  C   UNK A   1       4.369   3.722  16.880  0.00  0.00    +0.000 C 
BRANCH  13  14
ATOM     14  C   UNK A   1       5.778   4.192  16.504  0.00  0.00    +0.000 C 
BRANCH  14  18
ATOM     15  C   UNK A   0       7.938   6.062  19.026  0.00  0.00    +0.000 C 
ATOM     16  C   UNK A   0       7.581   4.991  18.030  0.00  0.00    +0.000 C 
ATOM     17  O   UNK A   0       8.353   4.096  17.703  0.00  0.00    +0.000 OA
ATOM     18  N   UNK A   1       6.322   5.117  17.505  0.00  0.00    +0.000 N 
ATOM     19  H   UNK A   1       5.773   5.952  17.703  0.00  0.00    +0.000 HD
ENDBRANCH  14  18
BRANCH  14  20
ATOM     20  C   UNK A   1       5.777   4.965  15.183  0.00  0.00    +0.000 C 
ATOM     21  O   UNK A   1       5.434   6.137  15.092  0.00  0.00    +0.000 OA
BRANCH  20  22
ATOM     22  O   UNK A   1       6.212   4.260  14.115  0.00  0.00    +0.000 OA
ATOM     23  H   UNK A   1       5.674   4.377  13.307  0.00  0.00    +0.000 HD
ENDBRANCH  20  22
ENDBRANCH  14  20
ENDBRANCH  13  14
ENDBRANCH   1  13
TORSDOF 7
ENDMDL
MODEL 4
REMARK VINA RESULT:      -6.7      1.001      1.477
REMARK  Name = 
REMARK  8 active torsions:
REMARK  status: ('A' for Active; 'I' for Inactive)
REMARK    1  A    between atoms: C_1  and  C_2
REMARK    2  A    between atoms: N_4  and  C_5
REMARK    3  A    between atoms: C_5  and  C_6
REMARK    4  A    between atoms: C_5  and  C_18
REMARK    5  A    between atoms: C_6  and  S_7
REMARK    6  A    between atoms: S_7  and  C_8
REMARK    7  A    between atoms: N_10  and  C_11
REMARK    8  A    between atoms: C_18  and  O_20
REMARK                            x       y       z     vdW  Elec       q    Type
REMARK                         _______ _______ _______ _____ _____    ______ ____
ROOT
ATOM      1  S   UNK A   1       4.520   4.607  18.751  0.00  0.00    +0.000 S 
ENDROOT
BRANCH   1   2
ATOM      2  C   UNK A   1       2.977   5.443  18.852  0.00  0.00    +0.000 C 
ATOM      3  O   UNK A   1       1.918   4.847  18.762  0.00  0.00    +0.000 OA
ATOM      4  N   UNK A   1       3.221   6.783  18.994  0.00  0.00    +0.000 N 
ATOM      5  H   UNK A   1       4.189   7.055  18.913  0.00  0.00    +0.000 HD
BRANCH   4   6
ATOM      6  C   UNK A   1       2.256   7.799  19.111  0.00  0.00    +0.000 A 
ATOM      7  C   UNK A   1       1.879   8.597  18.028  0.00  0.00    +0.000 A 
ATOM      8  C   UNK A   1       0.925   9.604  18.187  0.00  0.00    +0.000 A 
ATOM      9  C   UNK A   1       0.352   9.825  19.434  0.00  0.00    +0.000 A 
ATOM     10 BR   UNK A   1      -0.919  11.207  19.644  0.00  0.00    +0.000 Br
ATOM     11  C   UNK A   1       0.710   9.032  20.523  0.00  0.00    +0.000 A 
ATOM     12  C   UNK A   1       1.651   8.008  20.357  0.00  0.00    +0.000 A 
ENDBRANCH   4   6
ENDBRANCH   1   2
BRANCH   1  13
ATOM     13  C   UNK A   1       4.930   5.029  17.020  0.00  0.00    +0.000 C 
BRANCH  13  14
ATOM     14  C   UNK A   1       6.442   5.179  16.823  0.00  0.00    +0.000 C 
BRANCH  14  18
ATOM     15  C   UNK A   0       7.940   8.577  17.681  0.00  0.00    +0.000 C 
ATOM     16  C   UNK A   0       7.623   7.115  17.859  0.00  0.00    +0.000 C 
ATOM     17  O   UNK A   0       8.033   6.451  18.804  0.00  0.00    +0.000 OA
ATOM     18  N   UNK A   1       6.852   6.588  16.857  0.00  0.00    +0.000 N 
ATOM     19  H   UNK A   1       6.653   7.143  16.026  0.00  0.00    +0.000 HD
ENDBRANCH  14  18
BRANCH  14  20
ATOM     20  C   UNK A   1       6.884   4.653  15.455  0.00  0.00    +0.000 C 
ATOM     21  O   UNK A   1       7.698   5.229  14.746  0.00  0.00    +0.000 OA
BRANCH  20  22
ATOM     22  O   UNK A   1       6.323   3.476  15.094  0.00  0.00    +0.000 OA
ATOM     23  H   UNK A   1       6.829   2.976  14.424  0.00  0.00    +0.000 HD
ENDBRANCH  20  22
ENDBRANCH  14  20
ENDBRANCH  13  14
ENDBRANCH   1  13
TORSDOF 7
ENDMDL
MODEL 5
REMARK VINA RESULT:      -6.5      1.482      2.799
REMARK  Name = 
REMARK  8 active torsions:
REMARK  status: ('A' for Active; 'I' for Inactive)
REMARK    1  A    between atoms: C_1  and  C_2
REMARK    2  A    between atoms: N_4  and  C_5
REMARK    3  A    between atoms: C_5  and  C_6
REMARK    4  A    between atoms: C_5  and  C_18
REMARK    5  A    between atoms: C_6  and  S_7
REMARK    6  A    between atoms: S_7  and  C_8
REMARK    7  A    between atoms: N_10  and  C_11
REMARK    8  A    between atoms: C_18  and  O_20
REMARK                            x       y       z     vdW  Elec       q    Type
REMARK                         _______ _______ _______ _____ _____    ______ ____
ROOT
ATOM      1  S   UNK A   1       4.254   4.107  19.191  0.00  0.00    +0.000 S 
ENDROOT
BRANCH   1   2
ATOM      2  C   UNK A   1       3.052   5.303  18.728  0.00  0.00    +0.000 C 
ATOM      3  O   UNK A   1       2.403   5.196  17.703  0.00  0.00    +0.000 OA
ATOM      4  N   UNK A   1       3.051   6.299  19.668  0.00  0.00    +0.000 N 
ATOM      5  H   UNK A   1       3.774   6.232  20.367  0.00  0.00    +0.000 HD
BRANCH   4   6
ATOM      6  C   UNK A   1       2.235   7.444  19.669  0.00  0.00    +0.000 A 
ATOM      7  C   UNK A   1       2.170   8.315  18.578  0.00  0.00    +0.000 A 
ATOM      8  C   UNK A   1       1.356   9.448  18.621  0.00  0.00    +0.000 A 
ATOM      9  C   UNK A   1       0.612   9.722  19.763  0.00  0.00    +0.000 A 
ATOM     10 BR   UNK A   1      -0.467  11.272  19.822  0.00  0.00    +0.000 Br
ATOM     11  C   UNK A   1       0.657   8.860  20.858  0.00  0.00    +0.000 A 
ATOM     12  C   UNK A   1       1.457   7.711  20.803  0.00  0.00    +0.000 A 
ENDBRANCH   4   6
ENDBRANCH   1   2
BRANCH   1  13
ATOM     13  C   UNK A   1       5.703   5.217  19.281  0.00  0.00    +0.000 C 
BRANCH  13  14
ATOM     14  C   UNK A   1       5.957   5.916  17.941  0.00  0.00    +0.000 C 
BRANCH  14  18
ATOM     15  C   UNK A   0       5.951   4.108  14.586  0.00  0.00    +0.000 C 
ATOM     16  C   UNK A   0       5.729   5.242  15.551  0.00  0.00    +0.000 C 
ATOM     17  O   UNK A   0       5.294   6.336  15.210  0.00  0.00    +0.000 OA
ATOM     18  N   UNK A   1       6.076   4.949  16.844  0.00  0.00    +0.000 N 
ATOM     19  H   UNK A   1       6.561   4.077  17.052  0.00  0.00    +0.000 HD
ENDBRANCH  14  18
BRANCH  14  20
ATOM     20  C   UNK A   1       7.279   6.689  17.954  0.00  0.00    +0.000 C 
ATOM     21  O   UNK A   1       8.164   6.490  18.776  0.00  0.00    +0.000 OA
BRANCH  20  22
ATOM     22  O   UNK A   1       7.410   7.602  16.965  0.00  0.00    +0.000 OA
ATOM     23  H   UNK A   1       7.360   7.229  16.062  0.00  0.00    +0.000 HD
ENDBRANCH  20  22
ENDBRANCH  14  20
ENDBRANCH  13  14
ENDBRANCH   1  13
TORSDOF 7
ENDMDL
MODEL 6
REMARK VINA RESULT:      -6.4      1.421      1.705
REMARK  Name = 
REMARK  8 active torsions:
REMARK  status: ('A' for Active; 'I' for Inactive)
REMARK    1  A    between atoms: C_1  and  C_2
REMARK    2  A    between atoms: N_4  and  C_5
REMARK    3  A    between atoms: C_5  and  C_6
REMARK    4  A    between atoms: C_5  and  C_18
REMARK    5  A    between atoms: C_6  and  S_7
REMARK    6  A    between atoms: S_7  and  C_8
REMARK    7  A    between atoms: N_10  and  C_11
REMARK    8  A    between atoms: C_18  and  O_20
REMARK                            x       y       z     vdW  Elec       q    Type
REMARK                         _______ _______ _______ _____ _____    ______ ____
ROOT
ATOM      1  S   UNK A   1       4.183   4.456  17.734  0.00  0.00    +0.000 S 
ENDROOT
BRANCH   1   2
ATOM      2  C   UNK A   1       3.765   6.163  17.776  0.00  0.00    +0.000 C 
ATOM      3  O   UNK A   1       4.383   6.990  17.129  0.00  0.00    +0.000 OA
ATOM      4  N   UNK A   1       2.725   6.331  18.650  0.00  0.00    +0.000 N 
ATOM      5  H   UNK A   1       2.462   5.508  19.170  0.00  0.00    +0.000 HD
BRANCH   4   6
ATOM      6  C   UNK A   1       2.093   7.545  18.970  0.00  0.00    +0.000 A 
ATOM      7  C   UNK A   1       1.721   7.870  20.278  0.00  0.00    +0.000 A 
ATOM      8  C   UNK A   1       1.084   9.081  20.555  0.00  0.00    +0.000 A 
ATOM      9  C   UNK A   1       0.805   9.969  19.522  0.00  0.00    +0.000 A 
ATOM     10 BR   UNK A   1      -0.080  11.594  19.902  0.00  0.00    +0.000 Br
ATOM     11  C   UNK A   1       1.176   9.665  18.212  0.00  0.00    +0.000 A 
ATOM     12  C   UNK A   1       1.835   8.459  17.940  0.00  0.00    +0.000 A 
ENDBRANCH   4   6
ENDBRANCH   1   2
BRANCH   1  13
ATOM     13  C   UNK A   1       4.830   4.390  16.026  0.00  0.00    +0.000 C 
BRANCH  13  14
ATOM     14  C   UNK A   1       6.362   4.442  16.005  0.00  0.00    +0.000 C 
BRANCH  14  18
ATOM     15  C   UNK A   0       7.997   6.897  18.417  0.00  0.00    +0.000 C 
ATOM     16  C   UNK A   0       7.553   5.559  17.889  0.00  0.00    +0.000 C 
ATOM     17  O   UNK A   0       7.796   4.500  18.457  0.00  0.00    +0.000 OA
ATOM     18  N   UNK A   1       6.869   5.628  16.704  0.00  0.00    +0.000 N 
ATOM     19  H   UNK A   1       6.814   6.514  16.203  0.00  0.00    +0.000 HD
ENDBRANCH  14  18
BRANCH  14  20
ATOM     20  C   UNK A   1       6.899   4.543  14.575  0.00  0.00    +0.000 C 
ATOM     21  O   UNK A   1       6.496   3.842  13.656  0.00  0.00    +0.000 OA
BRANCH  20  22
ATOM     22  O   UNK A   1       7.845   5.491  14.392  0.00  0.00    +0.000 OA
ATOM     23  H   UNK A   1       7.495   6.398  14.293  0.00  0.00    +0.000 HD
ENDBRANCH  20  22
ENDBRANCH  14  20
ENDBRANCH  13  14
ENDBRANCH   1  13
TORSDOF 7
ENDMDL
MODEL 7
REMARK VINA RESULT:      -6.4      1.472      2.583
REMARK  Name = 
REMARK  8 active torsions:
REMARK  status: ('A' for Active; 'I' for Inactive)
REMARK    1  A    between atoms: C_1  and  C_2
REMARK    2  A    between atoms: N_4  and  C_5
REMARK    3  A    between atoms: C_5  and  C_6
REMARK    4  A    between atoms: C_5  and  C_18
REMARK    5  A    between atoms: C_6  and  S_7
REMARK    6  A    between atoms: S_7  and  C_8
REMARK    7  A    between atoms: N_10  and  C_11
REMARK    8  A    between atoms: C_18  and  O_20
REMARK                            x       y       z     vdW  Elec       q    Type
REMARK                         _______ _______ _______ _____ _____    ______ ____
ROOT
ATOM      1  S   UNK A   1       3.868   3.572  18.249  0.00  0.00    +0.000 S 
ENDROOT
BRANCH   1   2
ATOM      2  C   UNK A   1       2.634   4.823  18.202  0.00  0.00    +0.000 C 
ATOM      3  O   UNK A   1       1.593   4.673  17.587  0.00  0.00    +0.000 OA
ATOM      4  N   UNK A   1       3.091   5.906  18.903  0.00  0.00    +0.000 N 
ATOM      5  H   UNK A   1       4.046   5.843  19.219  0.00  0.00    +0.000 HD
BRANCH   4   6
ATOM      6  C   UNK A   1       2.406   7.117  19.107  0.00  0.00    +0.000 A 
ATOM      7  C   UNK A   1       2.262   8.072  18.096  0.00  0.00    +0.000 A 
ATOM      8  C   UNK A   1       1.585   9.268  18.341  0.00  0.00    +0.000 A 
ATOM      9  C   UNK A   1       1.059   9.520  19.602  0.00  0.00    +0.000 A 
ATOM     10 BR   UNK A   1       0.167  11.153  19.931  0.00  0.00    +0.000 Br
ATOM     11  C   UNK A   1       1.185   8.576  20.620  0.00  0.00    +0.000 A 
ATOM     12  C   UNK A   1       1.845   7.367  20.366  0.00  0.00    +0.000 A 
ENDBRANCH   4   6
ENDBRANCH   1   2
BRANCH   1  13
ATOM     13  C   UNK A   1       5.153   4.511  19.149  0.00  0.00    +0.000 C 
BRANCH  13  14
ATOM     14  C   UNK A   1       5.939   5.429  18.207  0.00  0.00    +0.000 C 
BRANCH  14  18
ATOM     15  C   UNK A   0       6.625   4.384  14.607  0.00  0.00    +0.000 C 
ATOM     16  C   UNK A   0       6.134   5.263  15.727  0.00  0.00    +0.000 C 
ATOM     17  O   UNK A   0       5.625   6.362  15.542  0.00  0.00    +0.000 OA
ATOM     18  N   UNK A   1       6.327   4.732  16.976  0.00  0.00    +0.000 N 
ATOM     19  H   UNK A   1       6.878   3.882  17.084  0.00  0.00    +0.000 HD
ENDBRANCH  14  18
BRANCH  14  20
ATOM     20  C   UNK A   1       7.249   5.898  18.847  0.00  0.00    +0.000 C 
ATOM     21  O   UNK A   1       8.033   6.656  18.291  0.00  0.00    +0.000 OA
BRANCH  20  22
ATOM     22  O   UNK A   1       7.467   5.430  20.096  0.00  0.00    +0.000 OA
ATOM     23  H   UNK A   1       7.410   4.458  20.180  0.00  0.00    +0.000 HD
ENDBRANCH  20  22
ENDBRANCH  14  20
ENDBRANCH  13  14
ENDBRANCH   1  13
TORSDOF 7
ENDMDL
MODEL 8
REMARK VINA RESULT:      -6.4      1.654      2.921
REMARK  Name = 
REMARK  8 active torsions:
REMARK  status: ('A' for Active; 'I' for Inactive)
REMARK    1  A    between atoms: C_1  and  C_2
REMARK    2  A    between atoms: N_4  and  C_5
REMARK    3  A    between atoms: C_5  and  C_6
REMARK    4  A    between atoms: C_5  and  C_18
REMARK    5  A    between atoms: C_6  and  S_7
REMARK    6  A    between atoms: S_7  and  C_8
REMARK    7  A    between atoms: N_10  and  C_11
REMARK    8  A    between atoms: C_18  and  O_20
REMARK                            x       y       z     vdW  Elec       q    Type
REMARK                         _______ _______ _______ _____ _____    ______ ____
ROOT
ATOM      1  S   UNK A   1       4.648   4.017  17.459  0.00  0.00    +0.000 S 
ENDROOT
BRANCH   1   2
ATOM      2  C   UNK A   1       4.229   5.329  18.552  0.00  0.00    +0.000 C 
ATOM      3  O   UNK A   1       4.857   5.536  19.575  0.00  0.00    +0.000 OA
ATOM      4  N   UNK A   1       3.122   5.965  18.057  0.00  0.00    +0.000 N 
ATOM      5  H   UNK A   1       2.698   5.529  17.253  0.00  0.00    +0.000 HD
BRANCH   4   6
ATOM      6  C   UNK A   1       2.468   7.069  18.632  0.00  0.00    +0.000 A 
ATOM      7  C   UNK A   1       2.156   8.216  17.897  0.00  0.00    +0.000 A 
ATOM      8  C   UNK A   1       1.516   9.297  18.507  0.00  0.00    +0.000 A 
ATOM      9  C   UNK A   1       1.196   9.240  19.859  0.00  0.00    +0.000 A 
ATOM     10 BR   UNK A   1       0.353  10.717  20.681  0.00  0.00    +0.000 Br
ATOM     11  C   UNK A   1       1.491   8.099  20.605  0.00  0.00    +0.000 A 
ATOM     12  C   UNK A   1       2.113   7.007  19.986  0.00  0.00    +0.000 A 
ENDBRANCH   4   6
ENDBRANCH   1   2
BRANCH   1  13
ATOM     13  C   UNK A   1       6.416   4.422  17.233  0.00  0.00    +0.000 C 
BRANCH  13  14
ATOM     14  C   UNK A   1       6.595   5.765  16.516  0.00  0.00    +0.000 C 
BRANCH  14  18
ATOM     15  C   UNK A   0       7.813   4.972  12.994  0.00  0.00    +0.000 C 
ATOM     16  C   UNK A   0       6.861   4.997  14.160  0.00  0.00    +0.000 C 
ATOM     17  O   UNK A   0       5.730   4.524  14.111  0.00  0.00    +0.000 OA
ATOM     18  N   UNK A   1       7.362   5.614  15.275  0.00  0.00    +0.000 N 
ATOM     19  H   UNK A   1       8.250   6.111  15.222  0.00  0.00    +0.000 HD
ENDBRANCH  14  18
BRANCH  14  20
ATOM     20  C   UNK A   1       7.387   6.755  17.374  0.00  0.00    +0.000 C 
ATOM     21  O   UNK A   1       7.695   7.877  16.992  0.00  0.00    +0.000 OA
BRANCH  20  22
ATOM     22  O   UNK A   1       7.703   6.306  18.610  0.00  0.00    +0.000 OA
ATOM     23  H   UNK A   1       6.948   5.945  19.115  0.00  0.00    +0.000 HD
ENDBRANCH  20  22
ENDBRANCH  14  20
ENDBRANCH  13  14
ENDBRANCH   1  13
TORSDOF 7
ENDMDL
MODEL 9
REMARK VINA RESULT:      -6.3      1.563      2.546
REMARK  Name = 
REMARK  8 active torsions:
REMARK  status: ('A' for Active; 'I' for Inactive)
REMARK    1  A    between atoms: C_1  and  C_2
REMARK    2  A    between atoms: N_4  and  C_5
REMARK    3  A    between atoms: C_5  and  C_6
REMARK    4  A    between atoms: C_5  and  C_18
REMARK    5  A    between atoms: C_6  and  S_7
REMARK    6  A    between atoms: S_7  and  C_8
REMARK    7  A    between atoms: N_10  and  C_11
REMARK    8  A    between atoms: C_18  and  O_20
REMARK                            x       y       z     vdW  Elec       q    Type
REMARK                         _______ _______ _______ _____ _____    ______ ____
ROOT
ATOM      1  S   UNK A   1       4.377   4.277  18.919  0.00  0.00    +0.000 S 
ENDROOT
BRANCH   1   2
ATOM      2  C   UNK A   1       3.196   5.385  19.607  0.00  0.00    +0.000 C 
ATOM      3  O   UNK A   1       2.570   5.108  20.614  0.00  0.00    +0.000 OA
ATOM      4  N   UNK A   1       3.123   6.490  18.802  0.00  0.00    +0.000 N 
ATOM      5  H   UNK A   1       3.651   6.435  17.945  0.00  0.00    +0.000 HD
BRANCH   4   6
ATOM      6  C   UNK A   1       2.299   7.612  19.000  0.00  0.00    +0.000 A 
ATOM      7  C   UNK A   1       1.795   7.955  20.257  0.00  0.00    +0.000 A 
ATOM      8  C   UNK A   1       0.969   9.070  20.411  0.00  0.00    +0.000 A 
ATOM      9  C   UNK A   1       0.634   9.841  19.304  0.00  0.00    +0.000 A 
ATOM     10 BR   UNK A   1      -0.505  11.333  19.518  0.00  0.00    +0.000 Br
ATOM     11  C   UNK A   1       1.135   9.519  18.044  0.00  0.00    +0.000 A 
ATOM     12  C   UNK A   1       1.981   8.413  17.895  0.00  0.00    +0.000 A 
ENDBRANCH   4   6
ENDBRANCH   1   2
BRANCH   1  13
ATOM     13  C   UNK A   1       5.863   5.320  19.129  0.00  0.00    +0.000 C 
BRANCH  13  14
ATOM     14  C   UNK A   1       6.223   6.050  17.831  0.00  0.00    +0.000 C 
BRANCH  14  18
ATOM     15  C   UNK A   0       6.423   4.229  14.490  0.00  0.00    +0.000 C 
ATOM     16  C   UNK A   0       6.033   5.315  15.456  0.00  0.00    +0.000 C 
ATOM     17  O   UNK A   0       5.392   6.307  15.126  0.00  0.00    +0.000 OA
ATOM     18  N   UNK A   1       6.476   5.107  16.736  0.00  0.00    +0.000 N 
ATOM     19  H   UNK A   1       7.120   4.342  16.930  0.00  0.00    +0.000 HD
ENDBRANCH  14  18
BRANCH  14  20
ATOM     20  C   UNK A   1       7.512   6.861  17.984  0.00  0.00    +0.000 C 
ATOM     21  O   UNK A   1       7.839   7.754  17.213  0.00  0.00    +0.000 OA
BRANCH  20  22
ATOM     22  O   UNK A   1       8.261   6.535  19.062  0.00  0.00    +0.000 OA
ATOM     23  H   UNK A   1       8.135   7.120  19.835  0.00  0.00    +0.000 HD
ENDBRANCH  20  22
ENDBRANCH  14  20
ENDBRANCH  13  14
ENDBRANCH   1  13
TORSDOF 7
ENDMDL
