MODEL 1
REMARK VINA RESULT:      -8.2      0.000      0.000
REMARK  Name = 
REMARK  7 active torsions:
REMARK  status: ('A' for Active; 'I' for Inactive)
REMARK    1  A    between atoms: C_1  and  C_2
REMARK    2  A    between atoms: C_2  and  C_3
REMARK    3  A    between atoms: C_2  and  C_4
REMARK    4  A    between atoms: C_2  and  C_5
REMARK    5  A    between atoms: C_9  and  C_10
REMARK    6  A    between atoms: C_14  and  C_15
REMARK    7  A    between atoms: C_22  and  O_23
REMARK                            x       y       z     vdW  Elec       q    Type
REMARK                         _______ _______ _______ _____ _____    ______ ____
ROOT
ATOM      1  C   UNL     1       2.627   7.229  18.523  0.00  0.00    +0.000 A 
ATOM      2  N   UNL     1       3.584   7.589  17.682  0.00  0.00    +0.000 NA
ATOM      3  C   UNL     1       4.074   6.423  17.141  0.00  0.00    +0.000 A 
ATOM      4  C   UNL     1       5.091   6.227  16.195  0.00  0.00    +0.000 A 
ATOM      5  C   UNL     1       5.423   4.908  15.838  0.00  0.00    +0.000 A 
ATOM      6  C   UNL     1       4.761   3.820  16.425  0.00  0.00    +0.000 A 
ATOM      7  C   UNL     1       3.736   4.005  17.357  0.00  0.00    +0.000 A 
ATOM      8  C   UNL     1       3.422   5.322  17.681  0.00  0.00    +0.000 A 
ATOM      9  N   UNL     1       2.500   5.860  18.543  0.00  0.00    +0.000 N 
ATOM     10  H   UNL     1       1.872   5.337  19.137  0.00  0.00    +0.000 HD
ENDROOT
BRANCH   1  15
ATOM     11  C   UNL     1       0.674  10.287  19.698  0.00  0.00    +0.000 A 
ATOM     12  C   UNL     1       0.493   9.920  21.050  0.00  0.00    +0.000 A 
ATOM     13  C   UNL     1       0.948   8.698  21.555  0.00  0.00    +0.000 A 
ATOM     14  C   UNL     1       1.628   7.808  20.730  0.00  0.00    +0.000 A 
ATOM     15  C   UNL     1       1.868   8.136  19.393  0.00  0.00    +0.000 A 
ATOM     16  C   UNL     1       1.380   9.368  18.892  0.00  0.00    +0.000 A 
BRANCH  11  18
ATOM     17  C   UNL     1      -0.461  12.422  20.387  0.00  0.00    +0.000 C 
ATOM     18  C   UNL     1       0.130  11.646  19.192  0.00  0.00    +0.000 C 
ATOM     19  C   UNL     1      -0.989  11.458  18.134  0.00  0.00    +0.000 C 
ATOM     20  C   UNL     1       1.187  12.545  18.507  0.00  0.00    +0.000 C 
ENDBRANCH  11  18
BRANCH  16  21
ATOM     21  O   UNL     1       1.625   9.682  17.577  0.00  0.00    +0.000 OA
ATOM     22  H   UNL     1       1.986  10.594  17.547  0.00  0.00    +0.000 HD
ENDBRANCH  16  21
ENDBRANCH   1  15
BRANCH   5  23
ATOM     23  C   UNL     1       6.507   4.672  14.842  0.00  0.00    +0.000 C 
ATOM     24  N   UNL     1       7.589   5.386  14.795  0.00  0.00    +0.000 NA
ATOM     25  N   UNL     1       6.397   3.683  13.914  0.00  0.00    +0.000 N 
ATOM     26  H   UNL     1       7.623   6.073  15.551  0.00  0.00    +0.000 HD
ATOM     27  H   UNL     1       5.470   3.499  13.553  0.00  0.00    +0.000 HD
ATOM     28  H   UNL     1       7.091   3.795  13.180  0.00  0.00    +0.000 HD
ENDBRANCH   5  23
TORSDOF 4
ENDMDL
MODEL 2
REMARK VINA RESULT:      -8.0      0.200      1.141
REMARK  Name = 
REMARK  7 active torsions:
REMARK  status: ('A' for Active; 'I' for Inactive)
REMARK    1  A    between atoms: C_1  and  C_2
REMARK    2  A    between atoms: C_2  and  C_3
REMARK    3  A    between atoms: C_2  and  C_4
REMARK    4  A    between atoms: C_2  and  C_5
REMARK    5  A    between atoms: C_9  and  C_10
REMARK    6  A    between atoms: C_14  and  C_15
REMARK    7  A    between atoms: C_22  and  O_23
REMARK                            x       y       z     vdW  Elec       q    Type
REMARK                         _______ _______ _______ _____ _____    ______ ____
ROOT
ATOM      1  C   UNL     1       2.767   7.140  18.448  0.00  0.00    +0.000 A 
ATOM      2  N   UNL     1       3.693   7.513  17.579  0.00  0.00    +0.000 NA
ATOM      3  C   UNL     1       4.200   6.352  17.041  0.00  0.00    +0.000 A 
ATOM      4  C   UNL     1       5.199   6.171  16.073  0.00  0.00    +0.000 A 
ATOM      5  C   UNL     1       5.556   4.856  15.724  0.00  0.00    +0.000 A 
ATOM      6  C   UNL     1       4.936   3.759  16.340  0.00  0.00    +0.000 A 
ATOM      7  C   UNL     1       3.929   3.930  17.295  0.00  0.00    +0.000 A 
ATOM      8  C   UNL     1       3.590   5.243  17.610  0.00  0.00    +0.000 A 
ATOM      9  N   UNL     1       2.675   5.768  18.488  0.00  0.00    +0.000 N 
ATOM     10  H   UNL     1       2.076   5.237  19.103  0.00  0.00    +0.000 HD
ENDROOT
BRANCH   1  15
ATOM     11  C   UNL     1       0.837  10.199  19.658  0.00  0.00    +0.000 A 
ATOM     12  C   UNL     1       0.628   9.805  20.998  0.00  0.00    +0.000 A 
ATOM     13  C   UNL     1       1.056   8.565  21.483  0.00  0.00    +0.000 A 
ATOM     14  C   UNL     1       1.738   7.684  20.650  0.00  0.00    +0.000 A 
ATOM     15  C   UNL     1       2.006   8.038  19.325  0.00  0.00    +0.000 A 
ATOM     16  C   UNL     1       1.544   9.288  18.843  0.00  0.00    +0.000 A 
BRANCH  11  18
ATOM     17  C   UNL     1      -0.751  11.353  18.088  0.00  0.00    +0.000 C 
ATOM     18  C   UNL     1       0.322  11.577  19.173  0.00  0.00    +0.000 C 
ATOM     19  C   UNL     1       1.462  12.433  18.560  0.00  0.00    +0.000 C 
ATOM     20  C   UNL     1      -0.292  12.460  20.286  0.00  0.00    +0.000 C 
ENDBRANCH  11  18
BRANCH  16  21
ATOM     21  O   UNL     1       1.816   9.627  17.540  0.00  0.00    +0.000 OA
ATOM     22  H   UNL     1       2.154   8.826  17.084  0.00  0.00    +0.000 HD
ENDBRANCH  16  21
ENDBRANCH   1  15
BRANCH   5  23
ATOM     23  C   UNL     1       6.621   4.635  14.705  0.00  0.00    +0.000 C 
ATOM     24  N   UNL     1       6.539   3.722  13.787  0.00  0.00    +0.000 NA
ATOM     25  N   UNL     1       7.752   5.392  14.703  0.00  0.00    +0.000 N 
ATOM     26  H   UNL     1       5.644   3.230  13.821  0.00  0.00    +0.000 HD
ATOM     27  H   UNL     1       8.110   5.678  15.604  0.00  0.00    +0.000 HD
ATOM     28  H   UNL     1       8.464   4.979  14.107  0.00  0.00    +0.000 HD
ENDBRANCH   5  23
TORSDOF 4
ENDMDL
MODEL 3
REMARK VINA RESULT:      -7.7      2.986      7.962
REMARK  Name = 
REMARK  7 active torsions:
REMARK  status: ('A' for Active; 'I' for Inactive)
REMARK    1  A    between atoms: C_1  and  C_2
REMARK    2  A    between atoms: C_2  and  C_3
REMARK    3  A    between atoms: C_2  and  C_4
REMARK    4  A    between atoms: C_2  and  C_5
REMARK    5  A    between atoms: C_9  and  C_10
REMARK    6  A    between atoms: C_14  and  C_15
REMARK    7  A    between atoms: C_22  and  O_23
REMARK                            x       y       z     vdW  Elec       q    Type
REMARK                         _______ _______ _______ _____ _____    ______ ____
ROOT
ATOM      1  C   UNL     1       2.253   7.667  18.718  0.00  0.00    +0.000 A 
ATOM      2  N   UNL     1       1.764   8.559  17.871  0.00  0.00    +0.000 NA
ATOM      3  C   UNL     1       1.083   9.478  18.636  0.00  0.00    +0.000 A 
ATOM      4  C   UNL     1       0.379  10.627  18.247  0.00  0.00    +0.000 A 
ATOM      5  C   UNL     1      -0.266  11.381  19.244  0.00  0.00    +0.000 A 
ATOM      6  C   UNL     1      -0.216  10.982  20.588  0.00  0.00    +0.000 A 
ATOM      7  C   UNL     1       0.496   9.847  20.986  0.00  0.00    +0.000 A 
ATOM      8  C   UNL     1       1.133   9.128  19.978  0.00  0.00    +0.000 A 
ATOM      9  N   UNL     1       1.893   7.986  20.006  0.00  0.00    +0.000 N 
ATOM     10  H   UNL     1       2.104   7.437  20.828  0.00  0.00    +0.000 HD
ENDROOT
BRANCH   1  15
ATOM     11  C   UNL     1       3.293   4.001  18.557  0.00  0.00    +0.000 A 
ATOM     12  C   UNL     1       4.430   4.137  17.730  0.00  0.00    +0.000 A 
ATOM     13  C   UNL     1       4.822   5.371  17.202  0.00  0.00    +0.000 A 
ATOM     14  C   UNL     1       4.104   6.523  17.506  0.00  0.00    +0.000 A 
ATOM     15  C   UNL     1       2.991   6.453  18.349  0.00  0.00    +0.000 A 
ATOM     16  C   UNL     1       2.595   5.192  18.856  0.00  0.00    +0.000 A 
BRANCH  11  18
ATOM     17  C   UNL     1       3.197   2.552  20.609  0.00  0.00    +0.000 C 
ATOM     18  C   UNL     1       2.898   2.604  19.096  0.00  0.00    +0.000 C 
ATOM     19  C   UNL     1       3.701   1.472  18.403  0.00  0.00    +0.000 C 
ATOM     20  C   UNL     1       1.411   2.232  18.884  0.00  0.00    +0.000 C 
ENDBRANCH  11  18
BRANCH  16  21
ATOM     21  O   UNL     1       1.503   5.135  19.688  0.00  0.00    +0.000 OA
ATOM     22  H   UNL     1       1.517   5.934  20.259  0.00  0.00    +0.000 HD
ENDBRANCH  16  21
ENDBRANCH   1  15
BRANCH   5  23
ATOM     23  C   UNL     1      -1.029  12.603  18.857  0.00  0.00    +0.000 C 
ATOM     24  N   UNL     1      -0.811  13.249  17.754  0.00  0.00    +0.000 NA
ATOM     25  N   UNL     1      -1.997  13.105  19.670  0.00  0.00    +0.000 N 
ATOM     26  H   UNL     1      -0.108  12.785  17.175  0.00  0.00    +0.000 HD
ATOM     27  H   UNL     1      -1.843  13.025  20.666  0.00  0.00    +0.000 HD
ATOM     28  H   UNL     1      -2.258  14.045  19.385  0.00  0.00    +0.000 HD
ENDBRANCH   5  23
TORSDOF 4
ENDMDL
MODEL 4
REMARK VINA RESULT:      -7.7      2.980      7.945
REMARK  Name = 
REMARK  7 active torsions:
REMARK  status: ('A' for Active; 'I' for Inactive)
REMARK    1  A    between atoms: C_1  and  C_2
REMARK    2  A    between atoms: C_2  and  C_3
REMARK    3  A    between atoms: C_2  and  C_4
REMARK    4  A    between atoms: C_2  and  C_5
REMARK    5  A    between atoms: C_9  and  C_10
REMARK    6  A    between atoms: C_14  and  C_15
REMARK    7  A    between atoms: C_22  and  O_23
REMARK                            x       y       z     vdW  Elec       q    Type
REMARK                         _______ _______ _______ _____ _____    ______ ____
ROOT
ATOM      1  C   UNL     1       2.258   7.629  18.709  0.00  0.00    +0.000 A 
ATOM      2  N   UNL     1       1.804   8.543  17.866  0.00  0.00    +0.000 NA
ATOM      3  C   UNL     1       1.136   9.470  18.633  0.00  0.00    +0.000 A 
ATOM      4  C   UNL     1       0.469  10.643  18.248  0.00  0.00    +0.000 A 
ATOM      5  C   UNL     1      -0.171  11.401  19.245  0.00  0.00    +0.000 A 
ATOM      6  C   UNL     1      -0.150  10.985  20.585  0.00  0.00    +0.000 A 
ATOM      7  C   UNL     1       0.525   9.826  20.979  0.00  0.00    +0.000 A 
ATOM      8  C   UNL     1       1.158   9.103  19.971  0.00  0.00    +0.000 A 
ATOM      9  N   UNL     1       1.887   7.941  19.996  0.00  0.00    +0.000 N 
ATOM     10  H   UNL     1       2.071   7.377  20.814  0.00  0.00    +0.000 HD
ENDROOT
BRANCH   1  15
ATOM     11  C   UNL     1       3.250   3.949  18.575  0.00  0.00    +0.000 A 
ATOM     12  C   UNL     1       4.359   4.057  17.707  0.00  0.00    +0.000 A 
ATOM     13  C   UNL     1       4.746   5.278  17.145  0.00  0.00    +0.000 A 
ATOM     14  C   UNL     1       4.052   6.443  17.453  0.00  0.00    +0.000 A 
ATOM     15  C   UNL     1       2.969   6.400  18.336  0.00  0.00    +0.000 A 
ATOM     16  C   UNL     1       2.576   5.152  18.878  0.00  0.00    +0.000 A 
BRANCH  11  18
ATOM     17  C   UNL     1       3.727   1.482  18.480  0.00  0.00    +0.000 C 
ATOM     18  C   UNL     1       2.858   2.565  19.152  0.00  0.00    +0.000 C 
ATOM     19  C   UNL     1       1.368   2.231  18.879  0.00  0.00    +0.000 C 
ATOM     20  C   UNL     1       3.027   2.438  20.684  0.00  0.00    +0.000 C 
ENDBRANCH  11  18
BRANCH  16  21
ATOM     21  O   UNL     1       1.513   5.122  19.747  0.00  0.00    +0.000 OA
ATOM     22  H   UNL     1       1.740   4.511  20.481  0.00  0.00    +0.000 HD
ENDBRANCH  16  21
ENDBRANCH   1  15
BRANCH   5  23
ATOM     23  C   UNL     1      -0.895  12.647  18.862  0.00  0.00    +0.000 C 
ATOM     24  N   UNL     1      -1.473  13.420  19.729  0.00  0.00    +0.000 NA
ATOM     25  N   UNL     1      -0.989  13.026  17.559  0.00  0.00    +0.000 N 
ATOM     26  H   UNL     1      -1.317  13.099  20.686  0.00  0.00    +0.000 HD
ATOM     27  H   UNL     1      -1.071  12.286  16.874  0.00  0.00    +0.000 HD
ATOM     28  H   UNL     1      -1.690  13.752  17.442  0.00  0.00    +0.000 HD
ENDBRANCH   5  23
TORSDOF 4
ENDMDL
MODEL 5
REMARK VINA RESULT:      -7.7      3.472      8.468
REMARK  Name = 
REMARK  7 active torsions:
REMARK  status: ('A' for Active; 'I' for Inactive)
REMARK    1  A    between atoms: C_1  and  C_2
REMARK    2  A    between atoms: C_2  and  C_3
REMARK    3  A    between atoms: C_2  and  C_4
REMARK    4  A    between atoms: C_2  and  C_5
REMARK    5  A    between atoms: C_9  and  C_10
REMARK    6  A    between atoms: C_14  and  C_15
REMARK    7  A    between atoms: C_22  and  O_23
REMARK                            x       y       z     vdW  Elec       q    Type
REMARK                         _______ _______ _______ _____ _____    ______ ____
ROOT
ATOM      1  C   UNL     1       1.731   7.958  19.992  0.00  0.00    +0.000 A 
ATOM      2  N   UNL     1       1.136   9.043  19.522  0.00  0.00    +0.000 NA
ATOM      3  C   UNL     1       0.552   9.658  20.606  0.00  0.00    +0.000 A 
ATOM      4  C   UNL     1      -0.198  10.841  20.673  0.00  0.00    +0.000 A 
ATOM      5  C   UNL     1      -0.717  11.229  21.922  0.00  0.00    +0.000 A 
ATOM      6  C   UNL     1      -0.498  10.444  23.064  0.00  0.00    +0.000 A 
ATOM      7  C   UNL     1       0.262   9.271  23.009  0.00  0.00    +0.000 A 
ATOM      8  C   UNL     1       0.771   8.919  21.761  0.00  0.00    +0.000 A 
ATOM      9  N   UNL     1       1.533   7.855  21.348  0.00  0.00    +0.000 N 
ATOM     10  H   UNL     1       1.846   7.093  21.932  0.00  0.00    +0.000 HD
ENDROOT
BRANCH   1  15
ATOM     11  C   UNL     1       2.899   4.556  18.722  0.00  0.00    +0.000 A 
ATOM     12  C   UNL     1       3.790   4.996  17.718  0.00  0.00    +0.000 A 
ATOM     13  C   UNL     1       3.972   6.353  17.429  0.00  0.00    +0.000 A 
ATOM     14  C   UNL     1       3.288   7.322  18.155  0.00  0.00    +0.000 A 
ATOM     15  C   UNL     1       2.421   6.945  19.185  0.00  0.00    +0.000 A 
ATOM     16  C   UNL     1       2.231   5.566  19.449  0.00  0.00    +0.000 A 
BRANCH  11  18
ATOM     17  C   UNL     1       3.580   2.258  17.966  0.00  0.00    +0.000 C 
ATOM     18  C   UNL     1       2.724   3.040  18.983  0.00  0.00    +0.000 C 
ATOM     19  C   UNL     1       1.247   2.595  18.819  0.00  0.00    +0.000 C 
ATOM     20  C   UNL     1       3.128   2.583  20.406  0.00  0.00    +0.000 C 
ENDBRANCH  11  18
BRANCH  16  21
ATOM     21  O   UNL     1       1.380   5.207  20.466  0.00  0.00    +0.000 OA
ATOM     22  H   UNL     1       1.927   4.909  21.225  0.00  0.00    +0.000 HD
ENDBRANCH  16  21
ENDBRANCH   1  15
BRANCH   5  23
ATOM     23  C   UNL     1      -1.526  12.477  22.020  0.00  0.00    +0.000 C 
ATOM     24  N   UNL     1      -2.566  12.703  21.278  0.00  0.00    +0.000 NA
ATOM     25  N   UNL     1      -1.192  13.456  22.905  0.00  0.00    +0.000 N 
ATOM     26  H   UNL     1      -2.783  11.906  20.677  0.00  0.00    +0.000 HD
ATOM     27  H   UNL     1      -0.205  13.601  23.072  0.00  0.00    +0.000 HD
ATOM     28  H   UNL     1      -1.688  14.318  22.696  0.00  0.00    +0.000 HD
ENDBRANCH   5  23
TORSDOF 4
ENDMDL
MODEL 6
REMARK VINA RESULT:      -7.6      1.161      1.473
REMARK  Name = 
REMARK  7 active torsions:
REMARK  status: ('A' for Active; 'I' for Inactive)
REMARK    1  A    between atoms: C_1  and  C_2
REMARK    2  A    between atoms: C_2  and  C_3
REMARK    3  A    between atoms: C_2  and  C_4
REMARK    4  A    between atoms: C_2  and  C_5
REMARK    5  A    between atoms: C_9  and  C_10
REMARK    6  A    between atoms: C_14  and  C_15
REMARK    7  A    between atoms: C_22  and  O_23
REMARK                            x       y       z     vdW  Elec       q    Type
REMARK                         _______ _______ _______ _____ _____    ______ ____
ROOT
ATOM      1  C   UNL     1       2.316   7.461  19.455  0.00  0.00    +0.000 A 
ATOM      2  N   UNL     1       2.942   7.645  18.303  0.00  0.00    +0.000 NA
ATOM      3  C   UNL     1       3.734   6.535  18.119  0.00  0.00    +0.000 A 
ATOM      4  C   UNL     1       4.601   6.213  17.064  0.00  0.00    +0.000 A 
ATOM      5  C   UNL     1       5.331   5.013  17.146  0.00  0.00    +0.000 A 
ATOM      6  C   UNL     1       5.202   4.171  18.260  0.00  0.00    +0.000 A 
ATOM      7  C   UNL     1       4.329   4.476  19.309  0.00  0.00    +0.000 A 
ATOM      8  C   UNL     1       3.612   5.665  19.194  0.00  0.00    +0.000 A 
ATOM      9  N   UNL     1       2.696   6.267  20.020  0.00  0.00    +0.000 N 
ATOM     10  H   UNL     1       2.396   5.920  20.920  0.00  0.00    +0.000 HD
ENDROOT
BRANCH   1  15
ATOM     11  C   UNL     1      -0.126  10.356  19.911  0.00  0.00    +0.000 A 
ATOM     12  C   UNL     1      -0.232  10.327  21.319  0.00  0.00    +0.000 A 
ATOM     13  C   UNL     1       0.430   9.370  22.095  0.00  0.00    +0.000 A 
ATOM     14  C   UNL     1       1.247   8.421  21.490  0.00  0.00    +0.000 A 
ATOM     15  C   UNL     1       1.418   8.425  20.102  0.00  0.00    +0.000 A 
ATOM     16  C   UNL     1       0.722   9.387  19.330  0.00  0.00    +0.000 A 
BRANCH  11  18
ATOM     17  C   UNL     1       0.103  12.490  18.602  0.00  0.00    +0.000 C 
ATOM     18  C   UNL     1      -0.898  11.429  19.104  0.00  0.00    +0.000 C 
ATOM     19  C   UNL     1      -1.967  12.142  19.973  0.00  0.00    +0.000 C 
ATOM     20  C   UNL     1      -1.673  10.879  17.883  0.00  0.00    +0.000 C 
ENDBRANCH  11  18
BRANCH  16  21
ATOM     21  O   UNL     1       0.901   9.386  17.968  0.00  0.00    +0.000 OA
ATOM     22  H   UNL     1       1.402  10.195  17.728  0.00  0.00    +0.000 HD
ENDBRANCH  16  21
ENDBRANCH   1  15
BRANCH   5  23
ATOM     23  C   UNL     1       6.266   4.651  16.042  0.00  0.00    +0.000 C 
ATOM     24  N   UNL     1       7.139   5.479  15.559  0.00  0.00    +0.000 NA
ATOM     25  N   UNL     1       6.232   3.413  15.479  0.00  0.00    +0.000 N 
ATOM     26  H   UNL     1       7.139   6.368  16.063  0.00  0.00    +0.000 HD
ATOM     27  H   UNL     1       5.325   2.973  15.399  0.00  0.00    +0.000 HD
ATOM     28  H   UNL     1       6.758   3.396  14.609  0.00  0.00    +0.000 HD
ENDBRANCH   5  23
TORSDOF 4
ENDMDL
MODEL 7
REMARK VINA RESULT:      -7.6      3.357      8.370
REMARK  Name = 
REMARK  7 active torsions:
REMARK  status: ('A' for Active; 'I' for Inactive)
REMARK    1  A    between atoms: C_1  and  C_2
REMARK    2  A    between atoms: C_2  and  C_3
REMARK    3  A    between atoms: C_2  and  C_4
REMARK    4  A    between atoms: C_2  and  C_5
REMARK    5  A    between atoms: C_9  and  C_10
REMARK    6  A    between atoms: C_14  and  C_15
REMARK    7  A    between atoms: C_22  and  O_23
REMARK                            x       y       z     vdW  Elec       q    Type
REMARK                         _______ _______ _______ _____ _____    ______ ____
ROOT
ATOM      1  C   UNL     1       1.848   7.839  19.863  0.00  0.00    +0.000 A 
ATOM      2  N   UNL     1       1.306   8.937  19.361  0.00  0.00    +0.000 NA
ATOM      3  C   UNL     1       0.724   9.594  20.421  0.00  0.00    +0.000 A 
ATOM      4  C   UNL     1       0.018  10.806  20.450  0.00  0.00    +0.000 A 
ATOM      5  C   UNL     1      -0.512  11.237  21.679  0.00  0.00    +0.000 A 
ATOM      6  C   UNL     1      -0.347  10.466  22.840  0.00  0.00    +0.000 A 
ATOM      7  C   UNL     1       0.368   9.265  22.823  0.00  0.00    +0.000 A 
ATOM      8  C   UNL     1       0.889   8.870  21.594  0.00  0.00    +0.000 A 
ATOM      9  N   UNL     1       1.618   7.770  21.217  0.00  0.00    +0.000 N 
ATOM     10  H   UNL     1       1.890   7.007  21.821  0.00  0.00    +0.000 HD
ENDROOT
BRANCH   1  15
ATOM     11  C   UNL     1       2.911   4.371  18.682  0.00  0.00    +0.000 A 
ATOM     12  C   UNL     1       3.839   4.758  17.690  0.00  0.00    +0.000 A 
ATOM     13  C   UNL     1       4.079   6.100  17.379  0.00  0.00    +0.000 A 
ATOM     14  C   UNL     1       3.418   7.109  18.072  0.00  0.00    +0.000 A 
ATOM     15  C   UNL     1       2.516   6.785  19.090  0.00  0.00    +0.000 A 
ATOM     16  C   UNL     1       2.268   5.420  19.376  0.00  0.00    +0.000 A 
BRANCH  11  18
ATOM     17  C   UNL     1       3.148   2.553  20.401  0.00  0.00    +0.000 C 
ATOM     18  C   UNL     1       2.673   2.868  18.968  0.00  0.00    +0.000 C 
ATOM     19  C   UNL     1       3.464   1.965  17.985  0.00  0.00    +0.000 C 
ATOM     20  C   UNL     1       1.200   2.414  18.836  0.00  0.00    +0.000 C 
ENDBRANCH  11  18
BRANCH  16  21
ATOM     21  O   UNL     1       1.383   5.113  20.381  0.00  0.00    +0.000 OA
ATOM     22  H   UNL     1       0.928   4.277  20.138  0.00  0.00    +0.000 HD
ENDBRANCH  16  21
ENDBRANCH   1  15
BRANCH   5  23
ATOM     23  C   UNL     1      -1.274  12.517  21.737  0.00  0.00    +0.000 C 
ATOM     24  N   UNL     1      -1.416  13.204  22.828  0.00  0.00    +0.000 NA
ATOM     25  N   UNL     1      -1.872  13.022  20.625  0.00  0.00    +0.000 N 
ATOM     26  H   UNL     1      -0.900  12.790  23.607  0.00  0.00    +0.000 HD
ATOM     27  H   UNL     1      -2.257  12.353  19.971  0.00  0.00    +0.000 HD
ATOM     28  H   UNL     1      -2.529  13.759  20.869  0.00  0.00    +0.000 HD
ENDBRANCH   5  23
TORSDOF 4
ENDMDL
MODEL 8
REMARK VINA RESULT:      -7.6      2.464      3.227
REMARK  Name = 
REMARK  7 active torsions:
REMARK  status: ('A' for Active; 'I' for Inactive)
REMARK    1  A    between atoms: C_1  and  C_2
REMARK    2  A    between atoms: C_2  and  C_3
REMARK    3  A    between atoms: C_2  and  C_4
REMARK    4  A    between atoms: C_2  and  C_5
REMARK    5  A    between atoms: C_9  and  C_10
REMARK    6  A    between atoms: C_14  and  C_15
REMARK    7  A    between atoms: C_22  and  O_23
REMARK                            x       y       z     vdW  Elec       q    Type
REMARK                         _______ _______ _______ _____ _____    ______ ____
ROOT
ATOM      1  C   UNL     1       1.492   7.746  20.392  0.00  0.00    +0.000 A 
ATOM      2  N   UNL     1       1.487   6.507  20.859  0.00  0.00    +0.000 NA
ATOM      3  C   UNL     1       2.286   5.776  20.010  0.00  0.00    +0.000 A 
ATOM      4  C   UNL     1       2.626   4.416  20.042  0.00  0.00    +0.000 A 
ATOM      5  C   UNL     1       3.442   3.910  19.015  0.00  0.00    +0.000 A 
ATOM      6  C   UNL     1       3.891   4.744  17.981  0.00  0.00    +0.000 A 
ATOM      7  C   UNL     1       3.570   6.104  17.948  0.00  0.00    +0.000 A 
ATOM      8  C   UNL     1       2.769   6.578  18.984  0.00  0.00    +0.000 A 
ATOM      9  N   UNL     1       2.265   7.825  19.258  0.00  0.00    +0.000 N 
ATOM     10  H   UNL     1       2.391   8.649  18.689  0.00  0.00    +0.000 HD
ENDROOT
BRANCH   1  15
ATOM     11  C   UNL     1      -0.588  10.940  20.539  0.00  0.00    +0.000 A 
ATOM     12  C   UNL     1      -0.703  11.056  21.941  0.00  0.00    +0.000 A 
ATOM     13  C   UNL     1      -0.164  10.105  22.813  0.00  0.00    +0.000 A 
ATOM     14  C   UNL     1       0.536   9.013  22.312  0.00  0.00    +0.000 A 
ATOM     15  C   UNL     1       0.713   8.866  20.933  0.00  0.00    +0.000 A 
ATOM     16  C   UNL     1       0.141   9.827  20.064  0.00  0.00    +0.000 A 
BRANCH  11  18
ATOM     17  C   UNL     1      -1.965  13.042  20.503  0.00  0.00    +0.000 C 
ATOM     18  C   UNL     1      -1.223  12.016  19.623  0.00  0.00    +0.000 C 
ATOM     19  C   UNL     1      -2.243  11.397  18.632  0.00  0.00    +0.000 C 
ATOM     20  C   UNL     1      -0.212  12.781  18.736  0.00  0.00    +0.000 C 
ENDBRANCH  11  18
BRANCH  16  21
ATOM     21  O   UNL     1       0.325   9.676  18.711  0.00  0.00    +0.000 OA
ATOM     22  H   UNL     1      -0.433  10.101  18.254  0.00  0.00    +0.000 HD
ENDBRANCH  16  21
ENDBRANCH   1  15
BRANCH   5  23
ATOM     23  C   UNL     1       3.812   2.465  19.021  0.00  0.00    +0.000 C 
ATOM     24  N   UNL     1       3.141   1.564  18.373  0.00  0.00    +0.000 NA
ATOM     25  N   UNL     1       4.886   2.024  19.731  0.00  0.00    +0.000 N 
ATOM     26  H   UNL     1       2.383   1.976  17.826  0.00  0.00    +0.000 HD
ATOM     27  H   UNL     1       5.077   2.492  20.607  0.00  0.00    +0.000 HD
ATOM     28  H   UNL     1       4.871   1.012  19.819  0.00  0.00    +0.000 HD
ENDBRANCH   5  23
TORSDOF 4
ENDMDL
MODEL 9
REMARK VINA RESULT:      -7.5      2.721      7.831
REMARK  Name = 
REMARK  7 active torsions:
REMARK  status: ('A' for Active; 'I' for Inactive)
REMARK    1  A    between atoms: C_1  and  C_2
REMARK    2  A    between atoms: C_2  and  C_3
REMARK    3  A    between atoms: C_2  and  C_4
REMARK    4  A    between atoms: C_2  and  C_5
REMARK    5  A    between atoms: C_9  and  C_10
REMARK    6  A    between atoms: C_14  and  C_15
REMARK    7  A    between atoms: C_22  and  O_23
REMARK                            x       y       z     vdW  Elec       q    Type
REMARK                         _______ _______ _______ _____ _____    ______ ____
ROOT
ATOM      1  C   UNL     1       2.236   7.023  19.230  0.00  0.00    +0.000 A 
ATOM      2  N   UNL     1       1.947   8.195  18.686  0.00  0.00    +0.000 NA
ATOM      3  C   UNL     1       1.435   8.970  19.700  0.00  0.00    +0.000 A 
ATOM      4  C   UNL     1       0.973  10.295  19.675  0.00  0.00    +0.000 A 
ATOM      5  C   UNL     1       0.459  10.843  20.864  0.00  0.00    +0.000 A 
ATOM      6  C   UNL     1       0.399  10.077  22.038  0.00  0.00    +0.000 A 
ATOM      7  C   UNL     1       0.870   8.761  22.076  0.00  0.00    +0.000 A 
ATOM      8  C   UNL     1       1.383   8.251  20.886  0.00  0.00    +0.000 A 
ATOM      9  N   UNL     1       1.911   7.025  20.566  0.00  0.00    +0.000 N 
ATOM     10  H   UNL     1       1.992   6.236  21.192  0.00  0.00    +0.000 HD
ENDROOT
BRANCH   1  15
ATOM     11  C   UNL     1       4.409   4.842  16.980  0.00  0.00    +0.000 A 
ATOM     12  C   UNL     1       3.667   3.644  17.060  0.00  0.00    +0.000 A 
ATOM     13  C   UNL     1       2.522   3.530  17.856  0.00  0.00    +0.000 A 
ATOM     14  C   UNL     1       2.062   4.625  18.581  0.00  0.00    +0.000 A 
ATOM     15  C   UNL     1       2.737   5.847  18.510  0.00  0.00    +0.000 A 
ATOM     16  C   UNL     1       3.908   5.937  17.717  0.00  0.00    +0.000 A 
BRANCH  11  18
ATOM     17  C   UNL     1       5.527   6.052  15.081  0.00  0.00    +0.000 C 
ATOM     18  C   UNL     1       5.680   4.901  16.096  0.00  0.00    +0.000 C 
ATOM     19  C   UNL     1       5.892   3.582  15.306  0.00  0.00    +0.000 C 
ATOM     20  C   UNL     1       6.997   5.118  16.879  0.00  0.00    +0.000 C 
ENDBRANCH  11  18
BRANCH  16  21
ATOM     21  O   UNL     1       4.561   7.144  17.651  0.00  0.00    +0.000 OA
ATOM     22  H   UNL     1       3.898   7.834  17.432  0.00  0.00    +0.000 HD
ENDBRANCH  16  21
ENDBRANCH   1  15
BRANCH   5  23
ATOM     23  C   UNL     1      -0.046  12.246  20.863  0.00  0.00    +0.000 C 
ATOM     24  N   UNL     1       0.315  13.125  21.745  0.00  0.00    +0.000 NA
ATOM     25  N   UNL     1      -0.934  12.665  19.921  0.00  0.00    +0.000 N 
ATOM     26  H   UNL     1       1.019  12.753  22.386  0.00  0.00    +0.000 HD
ATOM     27  H   UNL     1      -1.619  11.990  19.608  0.00  0.00    +0.000 HD
ATOM     28  H   UNL     1      -1.349  13.555  20.185  0.00  0.00    +0.000 HD
ENDBRANCH   5  23
TORSDOF 4
ENDMDL
