MODEL 1
REMARK VINA RESULT:      -8.6      0.000      0.000
REMARK  Name = 
REMARK  10 active torsions:
REMARK  status: ('A' for Active; 'I' for Inactive)
REMARK    1  A    between atoms: C_1  and  C_2
REMARK    2  A    between atoms: C_2  and  O_3
REMARK    3  A    between atoms: O_3  and  C_4
REMARK    4  A    between atoms: C_4  and  C_6
REMARK    5  A    between atoms: C_11  and  C_13
REMARK    6  A    between atoms: C_15  and  N_16
REMARK    7  A    between atoms: C_17  and  C_18
REMARK    8  A    between atoms: N_25  and  C_26
REMARK    9  A    between atoms: C_26  and  C_27
REMARK   10  A    between atoms: C_27  and  C_28
REMARK                            x       y       z     vdW  Elec       q    Type
REMARK                         _______ _______ _______ _____ _____    ______ ____
ROOT
ATOM      1  C   UNL     1       0.765   9.308  21.108  0.00  0.00    +0.000 A 
ATOM      2  C   UNL     1       1.072   8.005  21.509  0.00  0.00    +0.000 A 
ATOM      3  C   UNL     1       1.778   7.083  20.715  0.00  0.00    +0.000 A 
ATOM      4  C   UNL     1       2.111   7.532  19.397  0.00  0.00    +0.000 A 
ATOM      5  C   UNL     1       1.693   8.807  18.964  0.00  0.00    +0.000 A 
ATOM      6  C   UNL     1       1.004   9.680  19.802  0.00  0.00    +0.000 A 
ATOM      7  N   UNL     1       2.046   9.074  17.673  0.00  0.00    +0.000 NA
ATOM      8  C   UNL     1       2.647   7.993  17.269  0.00  0.00    +0.000 A 
ATOM      9  N   UNL     1       2.764   7.048  18.268  0.00  0.00    +0.000 N 
ENDROOT
BRANCH   1  15
ATOM     10  C   UNL     1      -2.628  12.204  22.389  0.00  0.00    +0.000 C 
ATOM     11  C   UNL     1      -2.890  12.658  20.944  0.00  0.00    +0.000 C 
ATOM     12  C   UNL     1      -2.008  11.892  19.954  0.00  0.00    +0.000 C 
ATOM     13  C   UNL     1      -0.539  11.986  20.370  0.00  0.00    +0.000 C 
ATOM     14  N   UNL     1      -0.402  11.451  21.724  0.00  0.00    +0.000 N 
ATOM     15  C   UNL     1       0.129  10.214  22.105  0.00  0.00    +0.000 C 
ATOM     16  O   UNL     1       0.141   9.837  23.277  0.00  0.00    +0.000 OA
ATOM     17  C   UNL     1      -1.134  12.229  22.723  0.00  0.00    +0.000 C 
BRANCH  10  18
ATOM     18  C   UNL     1      -3.398  13.038  23.382  0.00  0.00    +0.000 C 
ATOM     19  O   UNL     1      -2.988  14.054  23.925  0.00  0.00    +0.000 OA
BRANCH  18  20
ATOM     20  O   UNL     1      -4.575  12.411  23.670  0.00  0.00    +0.000 OA
BRANCH  20  22
ATOM     21  C   UNL     1      -6.906  12.705  23.292  0.00  0.00    +0.000 C 
ATOM     22  C   UNL     1      -5.674  13.278  23.968  0.00  0.00    +0.000 C 
ENDBRANCH  20  22
ENDBRANCH  18  20
ENDBRANCH  10  18
ENDBRANCH   1  15
BRANCH   3  23
ATOM     23  N   UNL     1       2.159   5.815  21.189  0.00  0.00    +0.000 N 
ATOM     24  C   UNL     1       1.798   4.523  20.956  0.00  0.00    +0.000 C 
ATOM     25  C   UNL     1       0.792   4.019  19.957  0.00  0.00    +0.000 C 
ATOM     26  O   UNL     1       2.395   3.675  21.648  0.00  0.00    +0.000 OA
ATOM     27  H   UNL     1       2.868   5.807  21.905  0.00  0.00    +0.000 HD
ENDBRANCH   3  23
BRANCH   9  28
ATOM     28  C   UNL     1       3.463   5.798  17.979  0.00  0.00    +0.000 C 
BRANCH  28  29
ATOM     29  C   UNL     1       4.570   6.000  16.927  0.00  0.00    +0.000 C 
BRANCH  29  30
ATOM     30  C   UNL     1       5.937   6.371  17.450  0.00  0.00    +0.000 A 
ATOM     31  C   UNL     1       6.487   5.602  18.478  0.00  0.00    +0.000 A 
ATOM     32  C   UNL     1       7.691   5.995  19.054  0.00  0.00    +0.000 A 
ATOM     33  C   UNL     1       8.318   7.142  18.588  0.00  0.00    +0.000 A 
ATOM     34  C   UNL     1       7.712   7.844  17.559  0.00  0.00    +0.000 A 
ATOM     35  N   UNL     1       6.537   7.491  16.985  0.00  0.00    +0.000 NA
ENDBRANCH  29  30
ENDBRANCH  28  29
ENDBRANCH   9  28
TORSDOF 8
ENDMDL
MODEL 2
REMARK VINA RESULT:      -8.6      3.142     10.325
REMARK  Name = 
REMARK  10 active torsions:
REMARK  status: ('A' for Active; 'I' for Inactive)
REMARK    1  A    between atoms: C_1  and  C_2
REMARK    2  A    between atoms: C_2  and  O_3
REMARK    3  A    between atoms: O_3  and  C_4
REMARK    4  A    between atoms: C_4  and  C_6
REMARK    5  A    between atoms: C_11  and  C_13
REMARK    6  A    between atoms: C_15  and  N_16
REMARK    7  A    between atoms: C_17  and  C_18
REMARK    8  A    between atoms: N_25  and  C_26
REMARK    9  A    between atoms: C_26  and  C_27
REMARK   10  A    between atoms: C_27  and  C_28
REMARK                            x       y       z     vdW  Elec       q    Type
REMARK                         _______ _______ _______ _____ _____    ______ ____
ROOT
ATOM      1  C   UNL     1       1.517   8.672  19.191  0.00  0.00    +0.000 A 
ATOM      2  C   UNL     1       0.651   9.166  18.212  0.00  0.00    +0.000 A 
ATOM      3  C   UNL     1      -0.285  10.191  18.434  0.00  0.00    +0.000 A 
ATOM      4  C   UNL     1      -0.368  10.670  19.780  0.00  0.00    +0.000 A 
ATOM      5  C   UNL     1       0.430  10.083  20.783  0.00  0.00    +0.000 A 
ATOM      6  C   UNL     1       1.348   9.076  20.498  0.00  0.00    +0.000 A 
ATOM      7  N   UNL     1       0.208  10.615  22.021  0.00  0.00    +0.000 NA
ATOM      8  C   UNL     1      -0.728  11.499  21.833  0.00  0.00    +0.000 A 
ATOM      9  N   UNL     1      -1.085  11.617  20.505  0.00  0.00    +0.000 N 
ENDROOT
BRANCH   1  15
ATOM     10  C   UNL     1       2.869   4.300  18.422  0.00  0.00    +0.000 C 
ATOM     11  C   UNL     1       1.916   3.737  19.489  0.00  0.00    +0.000 C 
ATOM     12  C   UNL     1       1.054   4.844  20.101  0.00  0.00    +0.000 C 
ATOM     13  C   UNL     1       1.939   5.983  20.610  0.00  0.00    +0.000 C 
ATOM     14  N   UNL     1       2.735   6.491  19.492  0.00  0.00    +0.000 N 
ATOM     15  C   UNL     1       2.546   7.678  18.777  0.00  0.00    +0.000 C 
ATOM     16  O   UNL     1       3.244   7.980  17.808  0.00  0.00    +0.000 OA
ATOM     17  C   UNL     1       3.662   5.496  18.953  0.00  0.00    +0.000 C 
BRANCH  10  18
ATOM     18  C   UNL     1       3.808   3.240  17.902  0.00  0.00    +0.000 C 
ATOM     19  O   UNL     1       3.571   2.042  17.855  0.00  0.00    +0.000 OA
BRANCH  18  20
ATOM     20  O   UNL     1       5.009   3.817  17.608  0.00  0.00    +0.000 OA
BRANCH  20  22
ATOM     21  C   UNL     1       6.733   4.461  16.098  0.00  0.00    +0.000 C 
ATOM     22  C   UNL     1       5.341   3.867  16.216  0.00  0.00    +0.000 C 
ENDBRANCH  20  22
ENDBRANCH  18  20
ENDBRANCH  10  18
ENDBRANCH   1  15
BRANCH   3  23
ATOM     23  N   UNL     1      -1.070  10.734  17.400  0.00  0.00    +0.000 N 
ATOM     24  C   UNL     1      -2.340  10.576  16.936  0.00  0.00    +0.000 C 
ATOM     25  C   UNL     1      -3.420   9.696  17.505  0.00  0.00    +0.000 C 
ATOM     26  O   UNL     1      -2.625  11.261  15.934  0.00  0.00    +0.000 OA
ATOM     27  H   UNL     1      -0.612  11.406  16.805  0.00  0.00    +0.000 HD
ENDBRANCH   3  23
BRANCH   9  28
ATOM     28  C   UNL     1      -2.090  12.608  20.129  0.00  0.00    +0.000 C 
BRANCH  28  29
ATOM     29  C   UNL     1      -3.168  12.762  21.220  0.00  0.00    +0.000 C 
BRANCH  29  30
ATOM     30  C   UNL     1      -4.591  12.474  20.805  0.00  0.00    +0.000 A 
ATOM     31  C   UNL     1      -4.900  12.474  19.443  0.00  0.00    +0.000 A 
ATOM     32  C   UNL     1      -6.225  12.327  19.045  0.00  0.00    +0.000 A 
ATOM     33  C   UNL     1      -7.208  12.178  20.014  0.00  0.00    +0.000 A 
ATOM     34  C   UNL     1      -6.818  12.180  21.343  0.00  0.00    +0.000 A 
ATOM     35  N   UNL     1      -5.537  12.330  21.761  0.00  0.00    +0.000 NA
ENDBRANCH  29  30
ENDBRANCH  28  29
ENDBRANCH   9  28
TORSDOF 8
ENDMDL
MODEL 3
REMARK VINA RESULT:      -8.5      2.941     10.418
REMARK  Name = 
REMARK  10 active torsions:
REMARK  status: ('A' for Active; 'I' for Inactive)
REMARK    1  A    between atoms: C_1  and  C_2
REMARK    2  A    between atoms: C_2  and  O_3
REMARK    3  A    between atoms: O_3  and  C_4
REMARK    4  A    between atoms: C_4  and  C_6
REMARK    5  A    between atoms: C_11  and  C_13
REMARK    6  A    between atoms: C_15  and  N_16
REMARK    7  A    between atoms: C_17  and  C_18
REMARK    8  A    between atoms: N_25  and  C_26
REMARK    9  A    between atoms: C_26  and  C_27
REMARK   10  A    between atoms: C_27  and  C_28
REMARK                            x       y       z     vdW  Elec       q    Type
REMARK                         _______ _______ _______ _____ _____    ______ ____
ROOT
ATOM      1  C   UNL     1       1.493   8.340  19.966  0.00  0.00    +0.000 A 
ATOM      2  C   UNL     1       0.705   9.112  19.108  0.00  0.00    +0.000 A 
ATOM      3  C   UNL     1      -0.166  10.128  19.540  0.00  0.00    +0.000 A 
ATOM      4  C   UNL     1      -0.272  10.289  20.958  0.00  0.00    +0.000 A 
ATOM      5  C   UNL     1       0.441   9.427  21.816  0.00  0.00    +0.000 A 
ATOM      6  C   UNL     1       1.298   8.444  21.327  0.00  0.00    +0.000 A 
ATOM      7  N   UNL     1       0.205   9.674  23.138  0.00  0.00    +0.000 NA
ATOM      8  C   UNL     1      -0.659  10.647  23.138  0.00  0.00    +0.000 A 
ATOM      9  N   UNL     1      -0.951  11.095  21.866  0.00  0.00    +0.000 N 
ENDROOT
BRANCH   1  15
ATOM     10  C   UNL     1       2.661   4.096  18.498  0.00  0.00    +0.000 C 
ATOM     11  C   UNL     1       1.744   3.407  19.521  0.00  0.00    +0.000 C 
ATOM     12  C   UNL     1       0.950   4.434  20.333  0.00  0.00    +0.000 C 
ATOM     13  C   UNL     1       1.896   5.463  20.954  0.00  0.00    +0.000 C 
ATOM     14  N   UNL     1       2.652   6.109  19.881  0.00  0.00    +0.000 N 
ATOM     15  C   UNL     1       2.467   7.392  19.357  0.00  0.00    +0.000 C 
ATOM     16  O   UNL     1       3.126   7.816  18.407  0.00  0.00    +0.000 OA
ATOM     17  C   UNL     1       3.518   5.181  19.154  0.00  0.00    +0.000 C 
BRANCH  10  18
ATOM     18  C   UNL     1       3.538   3.102  17.779  0.00  0.00    +0.000 C 
ATOM     19  O   UNL     1       3.258   1.930  17.569  0.00  0.00    +0.000 OA
BRANCH  18  20
ATOM     20  O   UNL     1       4.742   3.683  17.511  0.00  0.00    +0.000 OA
BRANCH  20  22
ATOM     21  C   UNL     1       6.464   4.334  16.002  0.00  0.00    +0.000 C 
ATOM     22  C   UNL     1       5.002   3.947  16.128  0.00  0.00    +0.000 C 
ENDBRANCH  20  22
ENDBRANCH  18  20
ENDBRANCH  10  18
ENDBRANCH   1  15
BRANCH   3  23
ATOM     23  N   UNL     1      -0.868  10.953  18.642  0.00  0.00    +0.000 N 
ATOM     24  C   UNL     1      -1.978  10.846  17.861  0.00  0.00    +0.000 C 
ATOM     25  C   UNL     1      -2.919   9.676  17.764  0.00  0.00    +0.000 C 
ATOM     26  O   UNL     1      -2.235  11.849  17.168  0.00  0.00    +0.000 OA
ATOM     27  H   UNL     1      -0.475  11.868  18.485  0.00  0.00    +0.000 HD
ENDBRANCH   3  23
BRANCH   9  28
ATOM     28  C   UNL     1      -1.868  12.221  21.707  0.00  0.00    +0.000 C 
BRANCH  28  29
ATOM     29  C   UNL     1      -2.669  12.484  22.997  0.00  0.00    +0.000 C 
BRANCH  29  30
ATOM     30  C   UNL     1      -4.170  12.560  22.854  0.00  0.00    +0.000 A 
ATOM     31  C   UNL     1      -4.711  12.679  21.571  0.00  0.00    +0.000 A 
ATOM     32  C   UNL     1      -6.082  12.867  21.425  0.00  0.00    +0.000 A 
ATOM     33  C   UNL     1      -6.879  12.928  22.559  0.00  0.00    +0.000 A 
ATOM     34  C   UNL     1      -6.267  12.793  23.794  0.00  0.00    +0.000 A 
ATOM     35  N   UNL     1      -4.935  12.617  23.969  0.00  0.00    +0.000 NA
ENDBRANCH  29  30
ENDBRANCH  28  29
ENDBRANCH   9  28
TORSDOF 8
ENDMDL
MODEL 4
REMARK VINA RESULT:      -8.4      3.052     10.421
REMARK  Name = 
REMARK  10 active torsions:
REMARK  status: ('A' for Active; 'I' for Inactive)
REMARK    1  A    between atoms: C_1  and  C_2
REMARK    2  A    between atoms: C_2  and  O_3
REMARK    3  A    between atoms: O_3  and  C_4
REMARK    4  A    between atoms: C_4  and  C_6
REMARK    5  A    between atoms: C_11  and  C_13
REMARK    6  A    between atoms: C_15  and  N_16
REMARK    7  A    between atoms: C_17  and  C_18
REMARK    8  A    between atoms: N_25  and  C_26
REMARK    9  A    between atoms: C_26  and  C_27
REMARK   10  A    between atoms: C_27  and  C_28
REMARK                            x       y       z     vdW  Elec       q    Type
REMARK                         _______ _______ _______ _____ _____    ______ ____
ROOT
ATOM      1  C   UNL     1       1.546   8.583  19.393  0.00  0.00    +0.000 A 
ATOM      2  C   UNL     1       0.673   9.258  18.534  0.00  0.00    +0.000 A 
ATOM      3  C   UNL     1      -0.240  10.241  18.955  0.00  0.00    +0.000 A 
ATOM      4  C   UNL     1      -0.293  10.472  20.366  0.00  0.00    +0.000 A 
ATOM      5  C   UNL     1       0.511   9.702  21.232  0.00  0.00    +0.000 A 
ATOM      6  C   UNL     1       1.405   8.748  20.754  0.00  0.00    +0.000 A 
ATOM      7  N   UNL     1       0.318  10.007  22.549  0.00  0.00    +0.000 NA
ATOM      8  C   UNL     1      -0.604  10.924  22.540  0.00  0.00    +0.000 A 
ATOM      9  N   UNL     1      -0.980  11.284  21.262  0.00  0.00    +0.000 N 
ENDROOT
BRANCH   1  15
ATOM     10  C   UNL     1       2.872   4.360  17.999  0.00  0.00    +0.000 C 
ATOM     11  C   UNL     1       2.003   3.656  19.054  0.00  0.00    +0.000 C 
ATOM     12  C   UNL     1       1.180   4.666  19.857  0.00  0.00    +0.000 C 
ATOM     13  C   UNL     1       2.091   5.749  20.437  0.00  0.00    +0.000 C 
ATOM     14  N   UNL     1       2.800   6.402  19.337  0.00  0.00    +0.000 N 
ATOM     15  C   UNL     1       2.550   7.664  18.788  0.00  0.00    +0.000 C 
ATOM     16  O   UNL     1       3.173   8.093  17.816  0.00  0.00    +0.000 OA
ATOM     17  C   UNL     1       3.693   5.495  18.615  0.00  0.00    +0.000 C 
BRANCH  10  18
ATOM     18  C   UNL     1       3.779   3.388  17.287  0.00  0.00    +0.000 C 
ATOM     19  O   UNL     1       4.015   2.244  17.647  0.00  0.00    +0.000 OA
BRANCH  18  20
ATOM     20  O   UNL     1       4.389   4.028  16.249  0.00  0.00    +0.000 OA
BRANCH  20  22
ATOM     21  C   UNL     1       6.102   3.952  14.597  0.00  0.00    +0.000 C 
ATOM     22  C   UNL     1       5.772   3.710  16.059  0.00  0.00    +0.000 C 
ENDBRANCH  20  22
ENDBRANCH  18  20
ENDBRANCH  10  18
ENDBRANCH   1  15
BRANCH   3  23
ATOM     23  N   UNL     1      -1.031  10.972  18.050  0.00  0.00    +0.000 N 
ATOM     24  C   UNL     1      -2.231  10.806  17.427  0.00  0.00    +0.000 C 
ATOM     25  C   UNL     1      -3.197   9.664  17.592  0.00  0.00    +0.000 C 
ATOM     26  O   UNL     1      -2.552  11.724  16.648  0.00  0.00    +0.000 OA
ATOM     27  H   UNL     1      -0.645  11.847  17.733  0.00  0.00    +0.000 HD
ENDBRANCH   3  23
BRANCH   9  28
ATOM     28  C   UNL     1      -1.973  12.341  21.090  0.00  0.00    +0.000 C 
BRANCH  28  29
ATOM     29  C   UNL     1      -2.233  13.094  22.409  0.00  0.00    +0.000 C 
BRANCH  29  30
ATOM     30  C   UNL     1      -3.638  13.027  22.957  0.00  0.00    +0.000 A 
ATOM     31  C   UNL     1      -3.824  12.537  24.251  0.00  0.00    +0.000 A 
ATOM     32  C   UNL     1      -5.118  12.358  24.732  0.00  0.00    +0.000 A 
ATOM     33  C   UNL     1      -6.192  12.676  23.913  0.00  0.00    +0.000 A 
ATOM     34  C   UNL     1      -5.923  13.166  22.646  0.00  0.00    +0.000 A 
ATOM     35  N   UNL     1      -4.675  13.343  22.147  0.00  0.00    +0.000 NA
ENDBRANCH  29  30
ENDBRANCH  28  29
ENDBRANCH   9  28
TORSDOF 8
ENDMDL
MODEL 5
REMARK VINA RESULT:      -8.3      2.951     10.506
REMARK  Name = 
REMARK  10 active torsions:
REMARK  status: ('A' for Active; 'I' for Inactive)
REMARK    1  A    between atoms: C_1  and  C_2
REMARK    2  A    between atoms: C_2  and  O_3
REMARK    3  A    between atoms: O_3  and  C_4
REMARK    4  A    between atoms: C_4  and  C_6
REMARK    5  A    between atoms: C_11  and  C_13
REMARK    6  A    between atoms: C_15  and  N_16
REMARK    7  A    between atoms: C_17  and  C_18
REMARK    8  A    between atoms: N_25  and  C_26
REMARK    9  A    between atoms: C_26  and  C_27
REMARK   10  A    between atoms: C_27  and  C_28
REMARK                            x       y       z     vdW  Elec       q    Type
REMARK                         _______ _______ _______ _____ _____    ______ ____
ROOT
ATOM      1  C   UNL     1       1.501   8.412  19.876  0.00  0.00    +0.000 A 
ATOM      2  C   UNL     1       0.954   9.466  19.138  0.00  0.00    +0.000 A 
ATOM      3  C   UNL     1       0.149  10.478  19.690  0.00  0.00    +0.000 A 
ATOM      4  C   UNL     1      -0.161  10.331  21.080  0.00  0.00    +0.000 A 
ATOM      5  C   UNL     1       0.302   9.201  21.785  0.00  0.00    +0.000 A 
ATOM      6  C   UNL     1       1.106   8.236  21.184  0.00  0.00    +0.000 A 
ATOM      7  N   UNL     1      -0.111   9.179  23.086  0.00  0.00    +0.000 NA
ATOM      8  C   UNL     1      -0.845  10.245  23.214  0.00  0.00    +0.000 A 
ATOM      9  N   UNL     1      -0.877  11.006  22.063  0.00  0.00    +0.000 N 
ENDROOT
BRANCH   1  15
ATOM     10  C   UNL     1       2.627   4.208  18.264  0.00  0.00    +0.000 C 
ATOM     11  C   UNL     1       1.800   3.489  19.343  0.00  0.00    +0.000 C 
ATOM     12  C   UNL     1       1.052   4.492  20.227  0.00  0.00    +0.000 C 
ATOM     13  C   UNL     1       2.024   5.529  20.790  0.00  0.00    +0.000 C 
ATOM     14  N   UNL     1       2.687   6.202  19.673  0.00  0.00    +0.000 N 
ATOM     15  C   UNL     1       2.443   7.489  19.183  0.00  0.00    +0.000 C 
ATOM     16  O   UNL     1       3.021   7.936  18.192  0.00  0.00    +0.000 OA
ATOM     17  C   UNL     1       3.512   5.299  18.870  0.00  0.00    +0.000 C 
BRANCH  10  18
ATOM     18  C   UNL     1       3.464   3.238  17.469  0.00  0.00    +0.000 C 
ATOM     19  O   UNL     1       3.650   2.063  17.751  0.00  0.00    +0.000 OA
BRANCH  18  20
ATOM     20  O   UNL     1       4.080   3.911  16.455  0.00  0.00    +0.000 OA
BRANCH  20  22
ATOM     21  C   UNL     1       5.994   3.825  15.044  0.00  0.00    +0.000 C 
ATOM     22  C   UNL     1       5.511   3.884  16.481  0.00  0.00    +0.000 C 
ENDBRANCH  20  22
ENDBRANCH  18  20
ENDBRANCH  10  18
ENDBRANCH   1  15
BRANCH   3  23
ATOM     23  N   UNL     1      -0.300  11.579  18.939  0.00  0.00    +0.000 N 
ATOM     24  C   UNL     1       0.067  12.880  18.775  0.00  0.00    +0.000 C 
ATOM     25  C   UNL     1       1.243  13.585  19.396  0.00  0.00    +0.000 C 
ATOM     26  O   UNL     1      -0.657  13.540  18.005  0.00  0.00    +0.000 OA
ATOM     27  H   UNL     1      -1.118  11.422  18.372  0.00  0.00    +0.000 HD
ENDBRANCH   3  23
BRANCH   9  28
ATOM     28  C   UNL     1      -1.621  12.263  22.068  0.00  0.00    +0.000 C 
BRANCH  28  29
ATOM     29  C   UNL     1      -2.548  12.367  23.294  0.00  0.00    +0.000 C 
BRANCH  29  30
ATOM     30  C   UNL     1      -4.008  12.634  23.013  0.00  0.00    +0.000 A 
ATOM     31  C   UNL     1      -4.830  13.016  24.076  0.00  0.00    +0.000 A 
ATOM     32  C   UNL     1      -6.198  13.154  23.864  0.00  0.00    +0.000 A 
ATOM     33  C   UNL     1      -6.712  12.911  22.597  0.00  0.00    +0.000 A 
ATOM     34  C   UNL     1      -5.829  12.544  21.595  0.00  0.00    +0.000 A 
ATOM     35  N   UNL     1      -4.494  12.394  21.774  0.00  0.00    +0.000 NA
ENDBRANCH  29  30
ENDBRANCH  28  29
ENDBRANCH   9  28
TORSDOF 8
ENDMDL
MODEL 6
REMARK VINA RESULT:      -8.3      3.071     10.093
REMARK  Name = 
REMARK  10 active torsions:
REMARK  status: ('A' for Active; 'I' for Inactive)
REMARK    1  A    between atoms: C_1  and  C_2
REMARK    2  A    between atoms: C_2  and  O_3
REMARK    3  A    between atoms: O_3  and  C_4
REMARK    4  A    between atoms: C_4  and  C_6
REMARK    5  A    between atoms: C_11  and  C_13
REMARK    6  A    between atoms: C_15  and  N_16
REMARK    7  A    between atoms: C_17  and  C_18
REMARK    8  A    between atoms: N_25  and  C_26
REMARK    9  A    between atoms: C_26  and  C_27
REMARK   10  A    between atoms: C_27  and  C_28
REMARK                            x       y       z     vdW  Elec       q    Type
REMARK                         _______ _______ _______ _____ _____    ______ ____
ROOT
ATOM      1  C   UNL     1       1.521   8.254  19.930  0.00  0.00    +0.000 A 
ATOM      2  C   UNL     1       0.757   9.086  19.106  0.00  0.00    +0.000 A 
ATOM      3  C   UNL     1      -0.093  10.100  19.583  0.00  0.00    +0.000 A 
ATOM      4  C   UNL     1      -0.204  10.194  21.007  0.00  0.00    +0.000 A 
ATOM      5  C   UNL     1       0.482   9.274  21.825  0.00  0.00    +0.000 A 
ATOM      6  C   UNL     1       1.319   8.296  21.293  0.00  0.00    +0.000 A 
ATOM      7  N   UNL     1       0.243   9.462  23.156  0.00  0.00    +0.000 NA
ATOM      8  C   UNL     1      -0.597  10.454  23.199  0.00  0.00    +0.000 A 
ATOM      9  N   UNL     1      -0.870  10.971  21.949  0.00  0.00    +0.000 N 
ENDROOT
BRANCH   1  15
ATOM     10  C   UNL     1       2.623   4.041  18.327  0.00  0.00    +0.000 C 
ATOM     11  C   UNL     1       1.712   3.333  19.344  0.00  0.00    +0.000 C 
ATOM     12  C   UNL     1       0.942   4.345  20.196  0.00  0.00    +0.000 C 
ATOM     13  C   UNL     1       1.907   5.346  20.831  0.00  0.00    +0.000 C 
ATOM     14  N   UNL     1       2.655   6.014  19.766  0.00  0.00    +0.000 N 
ATOM     15  C   UNL     1       2.476   7.314  19.281  0.00  0.00    +0.000 C 
ATOM     16  O   UNL     1       3.125   7.757  18.333  0.00  0.00    +0.000 OA
ATOM     17  C   UNL     1       3.501   5.098  19.001  0.00  0.00    +0.000 C 
BRANCH  10  18
ATOM     18  C   UNL     1       3.479   3.058  17.568  0.00  0.00    +0.000 C 
ATOM     19  O   UNL     1       3.813   1.953  17.968  0.00  0.00    +0.000 OA
BRANCH  18  20
ATOM     20  O   UNL     1       3.921   3.648  16.421  0.00  0.00    +0.000 OA
BRANCH  20  22
ATOM     21  C   UNL     1       5.528   5.216  15.632  0.00  0.00    +0.000 C 
ATOM     22  C   UNL     1       5.328   3.902  16.364  0.00  0.00    +0.000 C 
ENDBRANCH  20  22
ENDBRANCH  18  20
ENDBRANCH  10  18
ENDBRANCH   1  15
BRANCH   3  23
ATOM     23  N   UNL     1      -0.768  10.985  18.723  0.00  0.00    +0.000 N 
ATOM     24  C   UNL     1      -1.849  10.929  17.896  0.00  0.00    +0.000 C 
ATOM     25  C   UNL     1      -2.776   9.764  17.680  0.00  0.00    +0.000 C 
ATOM     26  O   UNL     1      -2.089  11.979  17.269  0.00  0.00    +0.000 OA
ATOM     27  H   UNL     1      -0.378  11.911  18.647  0.00  0.00    +0.000 HD
ENDBRANCH   3  23
BRANCH   9  28
ATOM     28  C   UNL     1      -1.759  12.125  21.841  0.00  0.00    +0.000 C 
BRANCH  28  29
ATOM     29  C   UNL     1      -1.030  13.436  22.192  0.00  0.00    +0.000 C 
BRANCH  29  30
ATOM     30  C   UNL     1      -1.449  14.117  23.472  0.00  0.00    +0.000 A 
ATOM     31  C   UNL     1      -2.741  13.892  23.954  0.00  0.00    +0.000 A 
ATOM     32  C   UNL     1      -3.186  14.599  25.066  0.00  0.00    +0.000 A 
ATOM     33  C   UNL     1      -2.332  15.510  25.673  0.00  0.00    +0.000 A 
ATOM     34  C   UNL     1      -1.064  15.669  25.140  0.00  0.00    +0.000 A 
ATOM     35  N   UNL     1      -0.605  15.001  24.053  0.00  0.00    +0.000 NA
ENDBRANCH  29  30
ENDBRANCH  28  29
ENDBRANCH   9  28
TORSDOF 8
ENDMDL
MODEL 7
REMARK VINA RESULT:      -8.3      1.515      2.020
REMARK  Name = 
REMARK  10 active torsions:
REMARK  status: ('A' for Active; 'I' for Inactive)
REMARK    1  A    between atoms: C_1  and  C_2
REMARK    2  A    between atoms: C_2  and  O_3
REMARK    3  A    between atoms: O_3  and  C_4
REMARK    4  A    between atoms: C_4  and  C_6
REMARK    5  A    between atoms: C_11  and  C_13
REMARK    6  A    between atoms: C_15  and  N_16
REMARK    7  A    between atoms: C_17  and  C_18
REMARK    8  A    between atoms: N_25  and  C_26
REMARK    9  A    between atoms: C_26  and  C_27
REMARK   10  A    between atoms: C_27  and  C_28
REMARK                            x       y       z     vdW  Elec       q    Type
REMARK                         _______ _______ _______ _____ _____    ______ ____
ROOT
ATOM      1  C   UNL     1       0.411   9.530  21.375  0.00  0.00    +0.000 A 
ATOM      2  C   UNL     1       0.819   8.227  21.678  0.00  0.00    +0.000 A 
ATOM      3  C   UNL     1       1.594   7.427  20.820  0.00  0.00    +0.000 A 
ATOM      4  C   UNL     1       1.890   7.999  19.542  0.00  0.00    +0.000 A 
ATOM      5  C   UNL     1       1.374   9.267  19.205  0.00  0.00    +0.000 A 
ATOM      6  C   UNL     1       0.620  10.017  20.103  0.00  0.00    +0.000 A 
ATOM      7  N   UNL     1       1.704   9.658  17.939  0.00  0.00    +0.000 NA
ATOM      8  C   UNL     1       2.388   8.661  17.458  0.00  0.00    +0.000 A 
ATOM      9  N   UNL     1       2.578   7.655  18.382  0.00  0.00    +0.000 N 
ENDROOT
BRANCH   1  15
ATOM     10  C   UNL     1      -3.083  12.235  22.792  0.00  0.00    +0.000 C 
ATOM     11  C   UNL     1      -3.264  12.861  21.400  0.00  0.00    +0.000 C 
ATOM     12  C   UNL     1      -2.317  12.224  20.379  0.00  0.00    +0.000 C 
ATOM     13  C   UNL     1      -0.877  12.273  20.891  0.00  0.00    +0.000 C 
ATOM     14  N   UNL     1      -0.814  11.576  22.176  0.00  0.00    +0.000 N 
ATOM     15  C   UNL     1      -0.293  10.305  22.435  0.00  0.00    +0.000 C 
ATOM     16  O   UNL     1      -0.346   9.787  23.551  0.00  0.00    +0.000 OA
ATOM     17  C   UNL     1      -1.613  12.224  23.216  0.00  0.00    +0.000 C 
BRANCH  10  18
ATOM     18  C   UNL     1      -3.921  12.939  23.831  0.00  0.00    +0.000 C 
ATOM     19  O   UNL     1      -4.601  12.390  24.685  0.00  0.00    +0.000 OA
BRANCH  18  20
ATOM     20  O   UNL     1      -3.895  14.281  23.587  0.00  0.00    +0.000 OA
BRANCH  20  22
ATOM     21  C   UNL     1      -2.482  15.132  25.303  0.00  0.00    +0.000 C 
ATOM     22  C   UNL     1      -3.895  15.116  24.749  0.00  0.00    +0.000 C 
ENDBRANCH  20  22
ENDBRANCH  18  20
ENDBRANCH  10  18
ENDBRANCH   1  15
BRANCH   3  23
ATOM     23  N   UNL     1       2.073   6.159  21.198  0.00  0.00    +0.000 N 
ATOM     24  C   UNL     1       1.788   4.863  20.894  0.00  0.00    +0.000 C 
ATOM     25  C   UNL     1       0.780   4.357  19.897  0.00  0.00    +0.000 C 
ATOM     26  O   UNL     1       2.462   4.015  21.510  0.00  0.00    +0.000 OA
ATOM     27  H   UNL     1       2.806   6.153  21.889  0.00  0.00    +0.000 HD
ENDBRANCH   3  23
BRANCH   9  28
ATOM     28  C   UNL     1       3.372   6.489  18.003  0.00  0.00    +0.000 C 
BRANCH  28  29
ATOM     29  C   UNL     1       4.579   6.885  17.132  0.00  0.00    +0.000 C 
BRANCH  29  30
ATOM     30  C   UNL     1       5.159   5.804  16.252  0.00  0.00    +0.000 A 
ATOM     31  C   UNL     1       4.809   4.477  16.512  0.00  0.00    +0.000 A 
ATOM     32  C   UNL     1       5.421   3.457  15.790  0.00  0.00    +0.000 A 
ATOM     33  C   UNL     1       6.363   3.785  14.825  0.00  0.00    +0.000 A 
ATOM     34  C   UNL     1       6.648   5.125  14.622  0.00  0.00    +0.000 A 
ATOM     35  N   UNL     1       6.074   6.140  15.315  0.00  0.00    +0.000 NA
ENDBRANCH  29  30
ENDBRANCH  28  29
ENDBRANCH   9  28
TORSDOF 8
ENDMDL
MODEL 8
REMARK VINA RESULT:      -8.2      3.146     10.242
REMARK  Name = 
REMARK  10 active torsions:
REMARK  status: ('A' for Active; 'I' for Inactive)
REMARK    1  A    between atoms: C_1  and  C_2
REMARK    2  A    between atoms: C_2  and  O_3
REMARK    3  A    between atoms: O_3  and  C_4
REMARK    4  A    between atoms: C_4  and  C_6
REMARK    5  A    between atoms: C_11  and  C_13
REMARK    6  A    between atoms: C_15  and  N_16
REMARK    7  A    between atoms: C_17  and  C_18
REMARK    8  A    between atoms: N_25  and  C_26
REMARK    9  A    between atoms: C_26  and  C_27
REMARK   10  A    between atoms: C_27  and  C_28
REMARK                            x       y       z     vdW  Elec       q    Type
REMARK                         _______ _______ _______ _____ _____    ______ ____
ROOT
ATOM      1  C   UNL     1       1.496   8.403  19.872  0.00  0.00    +0.000 A 
ATOM      2  C   UNL     1       0.953   9.455  19.128  0.00  0.00    +0.000 A 
ATOM      3  C   UNL     1       0.148  10.471  19.674  0.00  0.00    +0.000 A 
ATOM      4  C   UNL     1      -0.165  10.330  21.064  0.00  0.00    +0.000 A 
ATOM      5  C   UNL     1       0.294   9.203  21.775  0.00  0.00    +0.000 A 
ATOM      6  C   UNL     1       1.097   8.234  21.180  0.00  0.00    +0.000 A 
ATOM      7  N   UNL     1      -0.123   9.187  23.075  0.00  0.00    +0.000 NA
ATOM      8  C   UNL     1      -0.855  10.256  23.196  0.00  0.00    +0.000 A 
ATOM      9  N   UNL     1      -0.882  11.011  22.042  0.00  0.00    +0.000 N 
ENDROOT
BRANCH   1  15
ATOM     10  C   UNL     1       2.612   4.193  18.270  0.00  0.00    +0.000 C 
ATOM     11  C   UNL     1       1.774   3.479  19.343  0.00  0.00    +0.000 C 
ATOM     12  C   UNL     1       1.026   4.485  20.222  0.00  0.00    +0.000 C 
ATOM     13  C   UNL     1       1.999   5.518  20.791  0.00  0.00    +0.000 C 
ATOM     14  N   UNL     1       2.673   6.188  19.678  0.00  0.00    +0.000 N 
ATOM     15  C   UNL     1       2.438   7.475  19.185  0.00  0.00    +0.000 C 
ATOM     16  O   UNL     1       3.025   7.919  18.198  0.00  0.00    +0.000 OA
ATOM     17  C   UNL     1       3.499   5.280  18.881  0.00  0.00    +0.000 C 
BRANCH  10  18
ATOM     18  C   UNL     1       3.450   3.219  17.480  0.00  0.00    +0.000 C 
ATOM     19  O   UNL     1       3.683   2.062  17.799  0.00  0.00    +0.000 OA
BRANCH  18  20
ATOM     20  O   UNL     1       4.005   3.870  16.418  0.00  0.00    +0.000 OA
BRANCH  20  22
ATOM     21  C   UNL     1       5.860   4.574  15.103  0.00  0.00    +0.000 C 
ATOM     22  C   UNL     1       5.423   3.726  16.284  0.00  0.00    +0.000 C 
ENDBRANCH  20  22
ENDBRANCH  18  20
ENDBRANCH  10  18
ENDBRANCH   1  15
BRANCH   3  23
ATOM     23  N   UNL     1      -0.297  11.570  18.917  0.00  0.00    +0.000 N 
ATOM     24  C   UNL     1       0.127  12.841  18.677  0.00  0.00    +0.000 C 
ATOM     25  C   UNL     1       1.383  13.499  19.181  0.00  0.00    +0.000 C 
ATOM     26  O   UNL     1      -0.618  13.515  17.938  0.00  0.00    +0.000 OA
ATOM     27  H   UNL     1      -1.163  11.440  18.418  0.00  0.00    +0.000 HD
ENDBRANCH   3  23
BRANCH   9  28
ATOM     28  C   UNL     1      -1.624  12.270  22.040  0.00  0.00    +0.000 C 
BRANCH  28  29
ATOM     29  C   UNL     1      -0.734  13.452  22.470  0.00  0.00    +0.000 C 
BRANCH  29  30
ATOM     30  C   UNL     1      -1.222  14.271  23.640  0.00  0.00    +0.000 A 
ATOM     31  C   UNL     1      -2.532  14.078  24.087  0.00  0.00    +0.000 A 
ATOM     32  C   UNL     1      -3.040  14.903  25.086  0.00  0.00    +0.000 A 
ATOM     33  C   UNL     1      -2.229  15.896  25.617  0.00  0.00    +0.000 A 
ATOM     34  C   UNL     1      -0.939  16.017  25.126  0.00  0.00    +0.000 A 
ATOM     35  N   UNL     1      -0.420  15.235  24.149  0.00  0.00    +0.000 NA
ENDBRANCH  29  30
ENDBRANCH  28  29
ENDBRANCH   9  28
TORSDOF 8
ENDMDL
MODEL 9
REMARK VINA RESULT:      -8.2      2.509     10.282
REMARK  Name = 
REMARK  10 active torsions:
REMARK  status: ('A' for Active; 'I' for Inactive)
REMARK    1  A    between atoms: C_1  and  C_2
REMARK    2  A    between atoms: C_2  and  O_3
REMARK    3  A    between atoms: O_3  and  C_4
REMARK    4  A    between atoms: C_4  and  C_6
REMARK    5  A    between atoms: C_11  and  C_13
REMARK    6  A    between atoms: C_15  and  N_16
REMARK    7  A    between atoms: C_17  and  C_18
REMARK    8  A    between atoms: N_25  and  C_26
REMARK    9  A    between atoms: C_26  and  C_27
REMARK   10  A    between atoms: C_27  and  C_28
REMARK                            x       y       z     vdW  Elec       q    Type
REMARK                         _______ _______ _______ _____ _____    ______ ____
ROOT
ATOM      1  C   UNL     1       0.623   9.710  18.534  0.00  0.00    +0.000 A 
ATOM      2  C   UNL     1       0.734  10.615  19.594  0.00  0.00    +0.000 A 
ATOM      3  C   UNL     1      -0.319  11.431  20.045  0.00  0.00    +0.000 A 
ATOM      4  C   UNL     1      -1.533  11.346  19.291  0.00  0.00    +0.000 A 
ATOM      5  C   UNL     1      -1.595  10.515  18.155  0.00  0.00    +0.000 A 
ATOM      6  C   UNL     1      -0.520   9.721  17.763  0.00  0.00    +0.000 A 
ATOM      7  N   UNL     1      -2.800  10.573  17.516  0.00  0.00    +0.000 NA
ATOM      8  C   UNL     1      -3.489  11.439  18.200  0.00  0.00    +0.000 A 
ATOM      9  N   UNL     1      -2.806  11.905  19.305  0.00  0.00    +0.000 N 
ENDROOT
BRANCH   1  15
ATOM     10  C   UNL     1       2.738   5.589  18.805  0.00  0.00    +0.000 C 
ATOM     11  C   UNL     1       2.035   5.229  20.124  0.00  0.00    +0.000 C 
ATOM     12  C   UNL     1       1.038   6.316  20.534  0.00  0.00    +0.000 C 
ATOM     13  C   UNL     1       1.724   7.682  20.558  0.00  0.00    +0.000 C 
ATOM     14  N   UNL     1       2.279   7.949  19.231  0.00  0.00    +0.000 N 
ATOM     15  C   UNL     1       1.781   8.817  18.254  0.00  0.00    +0.000 C 
ATOM     16  O   UNL     1       2.298   8.920  17.141  0.00  0.00    +0.000 OA
ATOM     17  C   UNL     1       3.326   7.001  18.849  0.00  0.00    +0.000 C 
BRANCH  10  18
ATOM     18  C   UNL     1       3.812   4.588  18.457  0.00  0.00    +0.000 C 
ATOM     19  O   UNL     1       3.712   3.374  18.564  0.00  0.00    +0.000 OA
BRANCH  18  20
ATOM     20  O   UNL     1       4.951   5.257  18.122  0.00  0.00    +0.000 OA
BRANCH  20  22
ATOM     21  C   UNL     1       7.288   4.886  17.861  0.00  0.00    +0.000 C 
ATOM     22  C   UNL     1       6.127   4.864  18.838  0.00  0.00    +0.000 C 
ENDBRANCH  20  22
ENDBRANCH  18  20
ENDBRANCH  10  18
ENDBRANCH   1  15
BRANCH   3  23
ATOM     23  N   UNL     1      -0.201  12.256  21.178  0.00  0.00    +0.000 N 
ATOM     24  C   UNL     1      -0.673  12.254  22.456  0.00  0.00    +0.000 C 
ATOM     25  C   UNL     1      -1.525  11.203  23.115  0.00  0.00    +0.000 C 
ATOM     26  O   UNL     1      -0.334  13.236  23.145  0.00  0.00    +0.000 OA
ATOM     27  H   UNL     1       0.350  13.091  21.061  0.00  0.00    +0.000 HD
ENDBRANCH   3  23
BRANCH   9  28
ATOM     28  C   UNL     1      -3.472  12.848  20.200  0.00  0.00    +0.000 C 
BRANCH  28  29
ATOM     29  C   UNL     1      -4.987  12.579  20.280  0.00  0.00    +0.000 C 
BRANCH  29  30
ATOM     30  C   UNL     1      -5.613  12.654  21.652  0.00  0.00    +0.000 A 
ATOM     31  C   UNL     1      -4.809  13.034  22.730  0.00  0.00    +0.000 A 
ATOM     32  C   UNL     1      -5.335  12.997  24.017  0.00  0.00    +0.000 A 
ATOM     33  C   UNL     1      -6.649  12.588  24.198  0.00  0.00    +0.000 A 
ATOM     34  C   UNL     1      -7.382  12.237  23.077  0.00  0.00    +0.000 A 
ATOM     35  N   UNL     1      -6.895  12.254  21.812  0.00  0.00    +0.000 NA
ENDBRANCH  29  30
ENDBRANCH  28  29
ENDBRANCH   9  28
TORSDOF 8
ENDMDL
