MODEL 1
REMARK VINA RESULT:      -8.2      0.000      0.000
REMARK  Name = 
REMARK  6 active torsions:
REMARK  status: ('A' for Active; 'I' for Inactive)
REMARK    1  A    between atoms: C_1  and  O_2
REMARK    2  A    between atoms: O_2  and  C_3
REMARK    3  A    between atoms: C_6  and  C_7
REMARK    4  A    between atoms: N_21  and  C_22
REMARK    5  A    between atoms: C_22  and  C_23
REMARK    6  A    between atoms: C_32  and  C_33
REMARK                            x       y       z     vdW  Elec       q    Type
REMARK                         _______ _______ _______ _____ _____    ______ ____
ROOT
ATOM      1  C   UNL     1      -2.992  10.556  17.525  0.00  0.00    +0.000 A 
ATOM      2  C   UNL     1      -1.604  10.230  17.564  0.00  0.00    +0.000 A 
ATOM      3  C   UNL     1      -0.683  10.974  18.352  0.00  0.00    +0.000 A 
ATOM      4  C   UNL     1       0.734  10.914  18.659  0.00  0.00    +0.000 A 
ATOM      5  C   UNL     1       0.958  11.963  19.546  0.00  0.00    +0.000 A 
ATOM      6 CL   UNL     1       2.393  12.458  20.345  0.00  0.00    +0.000 Cl
ATOM      7  N   UNL     1      -0.205  12.653  19.784  0.00  0.00    +0.000 N 
ATOM      8  C   UNL     1      -1.220  12.074  19.039  0.00  0.00    +0.000 A 
ATOM      9  C   UNL     1      -2.584  12.421  18.984  0.00  0.00    +0.000 A 
ATOM     10  C   UNL     1      -3.493  11.622  18.280  0.00  0.00    +0.000 A 
ATOM     11  C   UNL     1      -4.950  11.963  18.460  0.00  0.00    +0.000 C 
ENDROOT
BRANCH   4  12
ATOM     12  C   UNL     1       1.781   9.965  18.238  0.00  0.00    +0.000 C 
ATOM     13  C   UNL     1       2.036   8.747  18.750  0.00  0.00    +0.000 C 
ATOM     14  C   UNL     1       1.377   8.346  20.057  0.00  0.00    +0.000 C 
ATOM     15  O   UNL     1       0.661   9.000  20.793  0.00  0.00    +0.000 OA
ATOM     16  N   UNL     1       1.821   7.081  20.339  0.00  0.00    +0.000 N 
ATOM     17  C   UNL     1       2.835   6.700  19.473  0.00  0.00    +0.000 A 
ATOM     18  C   UNL     1       3.612   5.571  19.688  0.00  0.00    +0.000 A 
ATOM     19  C   UNL     1       4.493   5.229  18.695  0.00  0.00    +0.000 A 
ATOM     20  C   UNL     1       4.475   5.947  17.479  0.00  0.00    +0.000 A 
ATOM     21 CL   UNL     1       5.409   5.325  16.166  0.00  0.00    +0.000 Cl
ATOM     22  C   UNL     1       3.698   7.126  17.313  0.00  0.00    +0.000 A 
ATOM     23  C   UNL     1       2.948   7.579  18.391  0.00  0.00    +0.000 A 
ATOM     24  H   UNL     1       1.114   6.403  20.583  0.00  0.00    +0.000 HD
ENDBRANCH   4  12
BRANCH   1  26
ATOM     25  C   UNL     1      -3.635   9.777  15.352  0.00  0.00    +0.000 C 
ATOM     26  O   UNL     1      -3.744   9.685  16.770  0.00  0.00    +0.000 OA
ENDBRANCH   1  26
BRANCH   7  27
ATOM     27  C   UNL     1      -0.467  13.628  20.857  0.00  0.00    +0.000 C 
BRANCH  27  28
ATOM     28  C   UNL     1      -1.455  13.236  21.937  0.00  0.00    +0.000 A 
ATOM     29  C   UNL     1      -1.465  11.997  22.589  0.00  0.00    +0.000 A 
ATOM     30  C   UNL     1      -2.477  11.684  23.509  0.00  0.00    +0.000 A 
ATOM     31  C   UNL     1      -3.479  12.608  23.795  0.00  0.00    +0.000 A 
ATOM     32 CL   UNL     1      -4.757  12.190  24.869  0.00  0.00    +0.000 Cl
ATOM     33  C   UNL     1      -3.457  13.865  23.204  0.00  0.00    +0.000 A 
ATOM     34  C   UNL     1      -2.448  14.178  22.287  0.00  0.00    +0.000 A 
ENDBRANCH  27  28
ENDBRANCH   7  27
TORSDOF 4
ENDMDL
MODEL 2
REMARK VINA RESULT:      -7.9      2.300      3.756
REMARK  Name = 
REMARK  6 active torsions:
REMARK  status: ('A' for Active; 'I' for Inactive)
REMARK    1  A    between atoms: C_1  and  O_2
REMARK    2  A    between atoms: O_2  and  C_3
REMARK    3  A    between atoms: C_6  and  C_7
REMARK    4  A    between atoms: N_21  and  C_22
REMARK    5  A    between atoms: C_22  and  C_23
REMARK    6  A    between atoms: C_32  and  C_33
REMARK                            x       y       z     vdW  Elec       q    Type
REMARK                         _______ _______ _______ _____ _____    ______ ____
ROOT
ATOM      1  C   UNL     1       2.585  14.329  19.071  0.00  0.00    +0.000 A 
ATOM      2  C   UNL     1       2.562  12.924  18.826  0.00  0.00    +0.000 A 
ATOM      3  C   UNL     1       1.345  12.188  18.801  0.00  0.00    +0.000 A 
ATOM      4  C   UNL     1       0.945  10.816  18.554  0.00  0.00    +0.000 A 
ATOM      5  C   UNL     1      -0.442  10.816  18.666  0.00  0.00    +0.000 A 
ATOM      6 CL   UNL     1      -1.575   9.544  18.461  0.00  0.00    +0.000 Cl
ATOM      7  N   UNL     1      -0.903  12.072  18.973  0.00  0.00    +0.000 N 
ATOM      8  C   UNL     1       0.183  12.925  19.084  0.00  0.00    +0.000 A 
ATOM      9  C   UNL     1       0.198  14.306  19.355  0.00  0.00    +0.000 A 
ATOM     10  C   UNL     1       1.394  15.032  19.283  0.00  0.00    +0.000 A 
ATOM     11  C   UNL     1       1.264  16.531  19.382  0.00  0.00    +0.000 C 
ENDROOT
BRANCH   4  12
ATOM     12  C   UNL     1       1.734   9.623  18.192  0.00  0.00    +0.000 C 
ATOM     13  C   UNL     1       1.878   8.491  18.905  0.00  0.00    +0.000 C 
ATOM     14  C   UNL     1       1.410   8.464  20.348  0.00  0.00    +0.000 C 
ATOM     15  O   UNL     1       0.951   9.365  21.027  0.00  0.00    +0.000 OA
ATOM     16  N   UNL     1       1.688   7.209  20.820  0.00  0.00    +0.000 N 
ATOM     17  C   UNL     1       2.456   6.491  19.914  0.00  0.00    +0.000 A 
ATOM     18  C   UNL     1       3.067   5.291  20.245  0.00  0.00    +0.000 A 
ATOM     19  C   UNL     1       3.689   4.614  19.229  0.00  0.00    +0.000 A 
ATOM     20  C   UNL     1       3.569   5.092  17.906  0.00  0.00    +0.000 A 
ATOM     21 CL   UNL     1       4.139   4.077  16.630  0.00  0.00    +0.000 Cl
ATOM     22  C   UNL     1       2.973   6.349  17.612  0.00  0.00    +0.000 A 
ATOM     23  C   UNL     1       2.512   7.124  18.669  0.00  0.00    +0.000 A 
ATOM     24  H   UNL     1       0.937   6.735  21.299  0.00  0.00    +0.000 HD
ENDBRANCH   4  12
BRANCH   1  26
ATOM     25  C   UNL     1       4.249  15.400  17.720  0.00  0.00    +0.000 C 
ATOM     26  O   UNL     1       3.840  14.885  18.985  0.00  0.00    +0.000 OA
ENDBRANCH   1  26
BRANCH   7  27
ATOM     27  C   UNL     1      -2.290  12.562  18.897  0.00  0.00    +0.000 C 
BRANCH  27  28
ATOM     28  C   UNL     1      -3.055  12.712  20.196  0.00  0.00    +0.000 A 
ATOM     29  C   UNL     1      -2.478  12.625  21.469  0.00  0.00    +0.000 A 
ATOM     30  C   UNL     1      -3.279  12.680  22.620  0.00  0.00    +0.000 A 
ATOM     31  C   UNL     1      -4.659  12.834  22.511  0.00  0.00    +0.000 A 
ATOM     32 CL   UNL     1      -5.642  12.826  23.923  0.00  0.00    +0.000 Cl
ATOM     33  C   UNL     1      -5.247  12.980  21.261  0.00  0.00    +0.000 A 
ATOM     34  C   UNL     1      -4.449  12.927  20.113  0.00  0.00    +0.000 A 
ENDBRANCH  27  28
ENDBRANCH   7  27
TORSDOF 4
ENDMDL
MODEL 3
REMARK VINA RESULT:      -7.9      1.795      2.445
REMARK  Name = 
REMARK  6 active torsions:
REMARK  status: ('A' for Active; 'I' for Inactive)
REMARK    1  A    between atoms: C_1  and  O_2
REMARK    2  A    between atoms: O_2  and  C_3
REMARK    3  A    between atoms: C_6  and  C_7
REMARK    4  A    between atoms: N_21  and  C_22
REMARK    5  A    between atoms: C_22  and  C_23
REMARK    6  A    between atoms: C_32  and  C_33
REMARK                            x       y       z     vdW  Elec       q    Type
REMARK                         _______ _______ _______ _____ _____    ______ ____
ROOT
ATOM      1  C   UNL     1      -3.042  10.266  16.852  0.00  0.00    +0.000 A 
ATOM      2  C   UNL     1      -1.658   9.981  17.041  0.00  0.00    +0.000 A 
ATOM      3  C   UNL     1      -0.895  10.619  18.059  0.00  0.00    +0.000 A 
ATOM      4  C   UNL     1       0.466  10.555  18.555  0.00  0.00    +0.000 A 
ATOM      5  C   UNL     1       0.510  11.456  19.615  0.00  0.00    +0.000 A 
ATOM      6 CL   UNL     1       1.793  11.862  20.679  0.00  0.00    +0.000 Cl
ATOM      7  N   UNL     1      -0.710  12.063  19.784  0.00  0.00    +0.000 N 
ATOM      8  C   UNL     1      -1.580  11.579  18.821  0.00  0.00    +0.000 A 
ATOM      9  C   UNL     1      -2.939  11.888  18.623  0.00  0.00    +0.000 A 
ATOM     10  C   UNL     1      -3.699  11.183  17.680  0.00  0.00    +0.000 A 
ATOM     11  C   UNL     1      -5.183  11.446  17.698  0.00  0.00    +0.000 C 
ENDROOT
BRANCH   4  12
ATOM     12  C   UNL     1       1.611   9.717  18.150  0.00  0.00    +0.000 C 
ATOM     13  C   UNL     1       1.987   8.537  18.675  0.00  0.00    +0.000 C 
ATOM     14  C   UNL     1       1.363   8.079  19.980  0.00  0.00    +0.000 C 
ATOM     15  O   UNL     1       0.576   8.660  20.705  0.00  0.00    +0.000 OA
ATOM     16  N   UNL     1       1.934   6.870  20.277  0.00  0.00    +0.000 N 
ATOM     17  C   UNL     1       2.990   6.590  19.421  0.00  0.00    +0.000 A 
ATOM     18  C   UNL     1       3.879   5.550  19.652  0.00  0.00    +0.000 A 
ATOM     19  C   UNL     1       4.799   5.295  18.669  0.00  0.00    +0.000 A 
ATOM     20  C   UNL     1       4.717   5.998  17.447  0.00  0.00    +0.000 A 
ATOM     21 CL   UNL     1       5.722   5.466  16.146  0.00  0.00    +0.000 Cl
ATOM     22  C   UNL     1       3.822   7.087  17.265  0.00  0.00    +0.000 A 
ATOM     23  C   UNL     1       3.020   7.467  18.333  0.00  0.00    +0.000 A 
ATOM     24  H   UNL     1       1.300   6.124  20.521  0.00  0.00    +0.000 HD
ENDBRANCH   4  12
BRANCH   1  26
ATOM     25  C   UNL     1      -3.624  10.013  14.542  0.00  0.00    +0.000 C 
ATOM     26  O   UNL     1      -3.635   9.503  15.873  0.00  0.00    +0.000 OA
ENDBRANCH   1  26
BRANCH   7  27
ATOM     27  C   UNL     1      -1.169  12.847  20.944  0.00  0.00    +0.000 C 
BRANCH  27  28
ATOM     28  C   UNL     1      -1.502  14.307  20.718  0.00  0.00    +0.000 A 
ATOM     29  C   UNL     1      -2.626  14.954  21.248  0.00  0.00    +0.000 A 
ATOM     30  C   UNL     1      -2.909  16.285  20.909  0.00  0.00    +0.000 A 
ATOM     31  C   UNL     1      -2.068  16.986  20.047  0.00  0.00    +0.000 A 
ATOM     32 CL   UNL     1      -2.460  18.594  19.577  0.00  0.00    +0.000 Cl
ATOM     33  C   UNL     1      -0.916  16.385  19.554  0.00  0.00    +0.000 A 
ATOM     34  C   UNL     1      -0.634  15.057  19.894  0.00  0.00    +0.000 A 
ENDBRANCH  27  28
ENDBRANCH   7  27
TORSDOF 4
ENDMDL
MODEL 4
REMARK VINA RESULT:      -7.8      2.328      8.285
REMARK  Name = 
REMARK  6 active torsions:
REMARK  status: ('A' for Active; 'I' for Inactive)
REMARK    1  A    between atoms: C_1  and  O_2
REMARK    2  A    between atoms: O_2  and  C_3
REMARK    3  A    between atoms: C_6  and  C_7
REMARK    4  A    between atoms: N_21  and  C_22
REMARK    5  A    between atoms: C_22  and  C_23
REMARK    6  A    between atoms: C_32  and  C_33
REMARK                            x       y       z     vdW  Elec       q    Type
REMARK                         _______ _______ _______ _____ _____    ______ ____
ROOT
ATOM      1  C   UNL     1      -3.846  11.043  17.254  0.00  0.00    +0.000 A 
ATOM      2  C   UNL     1      -3.508  11.677  18.485  0.00  0.00    +0.000 A 
ATOM      3  C   UNL     1      -2.204  11.577  19.046  0.00  0.00    +0.000 A 
ATOM      4  C   UNL     1      -1.512  12.098  20.209  0.00  0.00    +0.000 A 
ATOM      5  C   UNL     1      -0.213  11.607  20.110  0.00  0.00    +0.000 A 
ATOM      6 CL   UNL     1       1.151  11.853  21.121  0.00  0.00    +0.000 Cl
ATOM      7  N   UNL     1      -0.076  10.824  18.990  0.00  0.00    +0.000 N 
ATOM      8  C   UNL     1      -1.297  10.774  18.336  0.00  0.00    +0.000 A 
ATOM      9  C   UNL     1      -1.629  10.121  17.134  0.00  0.00    +0.000 A 
ATOM     10  C   UNL     1      -2.888  10.307  16.548  0.00  0.00    +0.000 A 
ATOM     11  C   UNL     1      -3.063   9.735  15.164  0.00  0.00    +0.000 C 
ENDROOT
BRANCH   4  12
ATOM     12  C   UNL     1      -1.960  13.003  21.284  0.00  0.00    +0.000 C 
ATOM     13  C   UNL     1      -2.002  14.348  21.257  0.00  0.00    +0.000 C 
ATOM     14  C   UNL     1      -1.303  15.084  20.130  0.00  0.00    +0.000 C 
ATOM     15  O   UNL     1      -0.620  14.640  19.225  0.00  0.00    +0.000 OA
ATOM     16  N   UNL     1      -1.498  16.420  20.362  0.00  0.00    +0.000 N 
ATOM     17  C   UNL     1      -2.072  16.633  21.607  0.00  0.00    +0.000 A 
ATOM     18  C   UNL     1      -2.157  17.894  22.180  0.00  0.00    +0.000 A 
ATOM     19  C   UNL     1      -2.860  17.994  23.352  0.00  0.00    +0.000 A 
ATOM     20  C   UNL     1      -3.556  16.864  23.838  0.00  0.00    +0.000 A 
ATOM     21 CL   UNL     1      -4.637  17.097  25.165  0.00  0.00    +0.000 Cl
ATOM     22  C   UNL     1      -3.408  15.579  23.249  0.00  0.00    +0.000 A 
ATOM     23  C   UNL     1      -2.542  15.443  22.171  0.00  0.00    +0.000 A 
ATOM     24  H   UNL     1      -1.825  16.966  19.580  0.00  0.00    +0.000 HD
ENDBRANCH   4  12
BRANCH   1  26
ATOM     25  C   UNL     1      -5.787  12.441  17.387  0.00  0.00    +0.000 C 
ATOM     26  O   UNL     1      -5.126  11.308  16.828  0.00  0.00    +0.000 OA
ENDBRANCH   1  26
BRANCH   7  27
ATOM     27  C   UNL     1       1.175  10.358  18.368  0.00  0.00    +0.000 C 
BRANCH  27  28
ATOM     28  C   UNL     1       1.692   8.991  18.766  0.00  0.00    +0.000 A 
ATOM     29  C   UNL     1       2.406   8.136  17.916  0.00  0.00    +0.000 A 
ATOM     30  C   UNL     1       2.763   6.847  18.338  0.00  0.00    +0.000 A 
ATOM     31  C   UNL     1       2.423   6.405  19.614  0.00  0.00    +0.000 A 
ATOM     32 CL   UNL     1       2.800   4.797  20.099  0.00  0.00    +0.000 Cl
ATOM     33  C   UNL     1       1.766   7.255  20.495  0.00  0.00    +0.000 A 
ATOM     34  C   UNL     1       1.411   8.541  20.075  0.00  0.00    +0.000 A 
ENDBRANCH  27  28
ENDBRANCH   7  27
TORSDOF 4
ENDMDL
MODEL 5
REMARK VINA RESULT:      -7.8      1.753      2.282
REMARK  Name = 
REMARK  6 active torsions:
REMARK  status: ('A' for Active; 'I' for Inactive)
REMARK    1  A    between atoms: C_1  and  O_2
REMARK    2  A    between atoms: O_2  and  C_3
REMARK    3  A    between atoms: C_6  and  C_7
REMARK    4  A    between atoms: N_21  and  C_22
REMARK    5  A    between atoms: C_22  and  C_23
REMARK    6  A    between atoms: C_32  and  C_33
REMARK                            x       y       z     vdW  Elec       q    Type
REMARK                         _______ _______ _______ _____ _____    ______ ____
ROOT
ATOM      1  C   UNL     1      -3.071  10.330  16.883  0.00  0.00    +0.000 A 
ATOM      2  C   UNL     1      -1.690  10.035  17.083  0.00  0.00    +0.000 A 
ATOM      3  C   UNL     1      -0.960  10.578  18.177  0.00  0.00    +0.000 A 
ATOM      4  C   UNL     1       0.388  10.474  18.702  0.00  0.00    +0.000 A 
ATOM      5  C   UNL     1       0.396  11.270  19.844  0.00  0.00    +0.000 A 
ATOM      6 CL   UNL     1       1.647  11.579  20.977  0.00  0.00    +0.000 Cl
ATOM      7  N   UNL     1      -0.833  11.852  20.036  0.00  0.00    +0.000 N 
ATOM      8  C   UNL     1      -1.673  11.458  19.007  0.00  0.00    +0.000 A 
ATOM      9  C   UNL     1      -3.028  11.777  18.802  0.00  0.00    +0.000 A 
ATOM     10  C   UNL     1      -3.757  11.161  17.776  0.00  0.00    +0.000 A 
ATOM     11  C   UNL     1      -5.243  11.413  17.778  0.00  0.00    +0.000 C 
ENDROOT
BRANCH   4  12
ATOM     12  C   UNL     1       1.550   9.684  18.252  0.00  0.00    +0.000 C 
ATOM     13  C   UNL     1       1.967   8.497  18.728  0.00  0.00    +0.000 C 
ATOM     14  C   UNL     1       1.375   7.975  20.024  0.00  0.00    +0.000 C 
ATOM     15  O   UNL     1       0.583   8.507  20.780  0.00  0.00    +0.000 OA
ATOM     16  N   UNL     1       1.984   6.772  20.269  0.00  0.00    +0.000 N 
ATOM     17  C   UNL     1       3.035   6.554  19.389  0.00  0.00    +0.000 A 
ATOM     18  C   UNL     1       3.956   5.532  19.570  0.00  0.00    +0.000 A 
ATOM     19  C   UNL     1       4.868   5.339  18.566  0.00  0.00    +0.000 A 
ATOM     20  C   UNL     1       4.748   6.082  17.371  0.00  0.00    +0.000 A 
ATOM     21 CL   UNL     1       5.748   5.626  16.038  0.00  0.00    +0.000 Cl
ATOM     22  C   UNL     1       3.820   7.151  17.241  0.00  0.00    +0.000 A 
ATOM     23  C   UNL     1       3.023   7.470  18.333  0.00  0.00    +0.000 A 
ATOM     24  H   UNL     1       1.375   6.001  20.495  0.00  0.00    +0.000 HD
ENDBRANCH   4  12
BRANCH   1  26
ATOM     25  C   UNL     1      -3.253  10.071  14.508  0.00  0.00    +0.000 C 
ATOM     26  O   UNL     1      -3.631   9.661  15.820  0.00  0.00    +0.000 OA
ENDBRANCH   1  26
BRANCH   7  27
ATOM     27  C   UNL     1      -1.329  12.520  21.252  0.00  0.00    +0.000 C 
BRANCH  27  28
ATOM     28  C   UNL     1      -0.877  13.943  21.507  0.00  0.00    +0.000 A 
ATOM     29  C   UNL     1      -0.573  14.463  22.772  0.00  0.00    +0.000 A 
ATOM     30  C   UNL     1      -0.256  15.820  22.928  0.00  0.00    +0.000 A 
ATOM     31  C   UNL     1      -0.225  16.667  21.823  0.00  0.00    +0.000 A 
ATOM     32 CL   UNL     1       0.093  18.345  22.030  0.00  0.00    +0.000 Cl
ATOM     33  C   UNL     1      -0.466  16.163  20.550  0.00  0.00    +0.000 A 
ATOM     34  C   UNL     1      -0.782  14.809  20.395  0.00  0.00    +0.000 A 
ENDBRANCH  27  28
ENDBRANCH   7  27
TORSDOF 4
ENDMDL
MODEL 6
REMARK VINA RESULT:      -7.7      2.395      4.071
REMARK  Name = 
REMARK  6 active torsions:
REMARK  status: ('A' for Active; 'I' for Inactive)
REMARK    1  A    between atoms: C_1  and  O_2
REMARK    2  A    between atoms: O_2  and  C_3
REMARK    3  A    between atoms: C_6  and  C_7
REMARK    4  A    between atoms: N_21  and  C_22
REMARK    5  A    between atoms: C_22  and  C_23
REMARK    6  A    between atoms: C_32  and  C_33
REMARK                            x       y       z     vdW  Elec       q    Type
REMARK                         _______ _______ _______ _____ _____    ______ ____
ROOT
ATOM      1  C   UNL     1       1.341  13.694  20.803  0.00  0.00    +0.000 A 
ATOM      2  C   UNL     1       1.579  12.462  20.127  0.00  0.00    +0.000 A 
ATOM      3  C   UNL     1       0.568  11.823  19.356  0.00  0.00    +0.000 A 
ATOM      4  C   UNL     1       0.461  10.635  18.531  0.00  0.00    +0.000 A 
ATOM      5  C   UNL     1      -0.844  10.645  18.046  0.00  0.00    +0.000 A 
ATOM      6 CL   UNL     1      -1.645   9.563  16.983  0.00  0.00    +0.000 Cl
ATOM      7  N   UNL     1      -1.529  11.735  18.524  0.00  0.00    +0.000 N 
ATOM      8  C   UNL     1      -0.685  12.458  19.351  0.00  0.00    +0.000 A 
ATOM      9  C   UNL     1      -0.937  13.660  20.039  0.00  0.00    +0.000 A 
ATOM     10  C   UNL     1       0.094  14.324  20.715  0.00  0.00    +0.000 A 
ATOM     11  C   UNL     1      -0.234  15.700  21.234  0.00  0.00    +0.000 C 
ENDROOT
BRANCH   4  12
ATOM     12  C   UNL     1       1.458   9.612  18.164  0.00  0.00    +0.000 C 
ATOM     13  C   UNL     1       1.758   8.484  18.834  0.00  0.00    +0.000 C 
ATOM     14  C   UNL     1       1.229   8.302  20.244  0.00  0.00    +0.000 C 
ATOM     15  O   UNL     1       0.590   9.076  20.934  0.00  0.00    +0.000 OA
ATOM     16  N   UNL     1       1.693   7.088  20.677  0.00  0.00    +0.000 N 
ATOM     17  C   UNL     1       2.616   6.559  19.786  0.00  0.00    +0.000 A 
ATOM     18  C   UNL     1       3.406   5.462  20.099  0.00  0.00    +0.000 A 
ATOM     19  C   UNL     1       4.184   4.953  19.092  0.00  0.00    +0.000 A 
ATOM     20  C   UNL     1       4.050   5.475  17.786  0.00  0.00    +0.000 A 
ATOM     21 CL   UNL     1       4.848   4.638  16.503  0.00  0.00    +0.000 Cl
ATOM     22  C   UNL     1       3.265   6.628  17.514  0.00  0.00    +0.000 A 
ATOM     23  C   UNL     1       2.625   7.256  18.575  0.00  0.00    +0.000 A 
ATOM     24  H   UNL     1       1.011   6.470  21.090  0.00  0.00    +0.000 HD
ENDBRANCH   4  12
BRANCH   1  26
ATOM     25  C   UNL     1       3.589  14.504  20.633  0.00  0.00    +0.000 C 
ATOM     26  O   UNL     1       2.452  14.201  21.436  0.00  0.00    +0.000 OA
ENDBRANCH   1  26
BRANCH   7  27
ATOM     27  C   UNL     1      -2.813  12.270  18.041  0.00  0.00    +0.000 C 
BRANCH  27  28
ATOM     28  C   UNL     1      -4.068  11.876  18.794  0.00  0.00    +0.000 A 
ATOM     29  C   UNL     1      -5.029  10.977  18.315  0.00  0.00    +0.000 A 
ATOM     30  C   UNL     1      -6.209  10.744  19.036  0.00  0.00    +0.000 A 
ATOM     31  C   UNL     1      -6.435  11.395  20.246  0.00  0.00    +0.000 A 
ATOM     32 CL   UNL     1      -7.917  11.161  21.089  0.00  0.00    +0.000 Cl
ATOM     33  C   UNL     1      -5.470  12.248  20.770  0.00  0.00    +0.000 A 
ATOM     34  C   UNL     1      -4.293  12.480  20.051  0.00  0.00    +0.000 A 
ENDBRANCH  27  28
ENDBRANCH   7  27
TORSDOF 4
ENDMDL
MODEL 7
REMARK VINA RESULT:      -7.5      2.308      7.828
REMARK  Name = 
REMARK  6 active torsions:
REMARK  status: ('A' for Active; 'I' for Inactive)
REMARK    1  A    between atoms: C_1  and  O_2
REMARK    2  A    between atoms: O_2  and  C_3
REMARK    3  A    between atoms: C_6  and  C_7
REMARK    4  A    between atoms: N_21  and  C_22
REMARK    5  A    between atoms: C_22  and  C_23
REMARK    6  A    between atoms: C_32  and  C_33
REMARK                            x       y       z     vdW  Elec       q    Type
REMARK                         _______ _______ _______ _____ _____    ______ ____
ROOT
ATOM      1  C   UNL     1      -3.565  11.148  17.365  0.00  0.00    +0.000 A 
ATOM      2  C   UNL     1      -3.076  12.048  18.357  0.00  0.00    +0.000 A 
ATOM      3  C   UNL     1      -1.733  11.988  18.824  0.00  0.00    +0.000 A 
ATOM      4  C   UNL     1      -0.904  12.731  19.754  0.00  0.00    +0.000 A 
ATOM      5  C   UNL     1       0.348  12.126  19.689  0.00  0.00    +0.000 A 
ATOM      6 CL   UNL     1       1.814  12.511  20.494  0.00  0.00    +0.000 Cl
ATOM      7  N   UNL     1       0.331  11.073  18.808  0.00  0.00    +0.000 N 
ATOM      8  C   UNL     1      -0.946  10.958  18.284  0.00  0.00    +0.000 A 
ATOM      9  C   UNL     1      -1.429  10.047  17.325  0.00  0.00    +0.000 A 
ATOM     10  C   UNL     1      -2.724  10.179  16.808  0.00  0.00    +0.000 A 
ATOM     11  C   UNL     1      -3.063   9.287  15.641  0.00  0.00    +0.000 C 
ENDROOT
BRANCH   4  12
ATOM     12  C   UNL     1      -1.194  13.916  20.583  0.00  0.00    +0.000 C 
ATOM     13  C   UNL     1      -1.573  13.939  21.874  0.00  0.00    +0.000 C 
ATOM     14  C   UNL     1      -2.004  12.644  22.537  0.00  0.00    +0.000 C 
ATOM     15  O   UNL     1      -2.126  11.533  22.054  0.00  0.00    +0.000 OA
ATOM     16  N   UNL     1      -2.342  12.965  23.826  0.00  0.00    +0.000 N 
ATOM     17  C   UNL     1      -2.366  14.340  24.010  0.00  0.00    +0.000 A 
ATOM     18  C   UNL     1      -2.901  14.928  25.146  0.00  0.00    +0.000 A 
ATOM     19  C   UNL     1      -2.750  16.284  25.270  0.00  0.00    +0.000 A 
ATOM     20  C   UNL     1      -1.963  16.980  24.325  0.00  0.00    +0.000 A 
ATOM     21 CL   UNL     1      -1.580  18.631  24.659  0.00  0.00    +0.000 Cl
ATOM     22  C   UNL     1      -1.468  16.351  23.150  0.00  0.00    +0.000 A 
ATOM     23  C   UNL     1      -1.786  15.016  22.932  0.00  0.00    +0.000 A 
ATOM     24  H   UNL     1      -1.941  12.387  24.550  0.00  0.00    +0.000 HD
ENDBRANCH   4  12
BRANCH   1  26
ATOM     25  C   UNL     1      -5.888  11.196  17.952  0.00  0.00    +0.000 C 
ATOM     26  O   UNL     1      -4.862  11.400  16.983  0.00  0.00    +0.000 OA
ENDBRANCH   1  26
BRANCH   7  27
ATOM     27  C   UNL     1       1.488  10.362  18.237  0.00  0.00    +0.000 C 
BRANCH  27  28
ATOM     28  C   UNL     1       1.818   8.993  18.796  0.00  0.00    +0.000 A 
ATOM     29  C   UNL     1       2.463   7.979  18.077  0.00  0.00    +0.000 A 
ATOM     30  C   UNL     1       2.642   6.707  18.643  0.00  0.00    +0.000 A 
ATOM     31  C   UNL     1       2.191   6.441  19.933  0.00  0.00    +0.000 A 
ATOM     32 CL   UNL     1       2.348   4.859  20.593  0.00  0.00    +0.000 Cl
ATOM     33  C   UNL     1       1.599   7.447  20.687  0.00  0.00    +0.000 A 
ATOM     34  C   UNL     1       1.422   8.715  20.123  0.00  0.00    +0.000 A 
ENDBRANCH  27  28
ENDBRANCH   7  27
TORSDOF 4
ENDMDL
MODEL 8
REMARK VINA RESULT:      -7.2      3.318     10.100
REMARK  Name = 
REMARK  6 active torsions:
REMARK  status: ('A' for Active; 'I' for Inactive)
REMARK    1  A    between atoms: C_1  and  O_2
REMARK    2  A    between atoms: O_2  and  C_3
REMARK    3  A    between atoms: C_6  and  C_7
REMARK    4  A    between atoms: N_21  and  C_22
REMARK    5  A    between atoms: C_22  and  C_23
REMARK    6  A    between atoms: C_32  and  C_33
REMARK                            x       y       z     vdW  Elec       q    Type
REMARK                         _______ _______ _______ _____ _____    ______ ____
ROOT
ATOM      1  C   UNL     1       2.146   3.143  18.488  0.00  0.00    +0.000 A 
ATOM      2  C   UNL     1       2.053   4.559  18.356  0.00  0.00    +0.000 A 
ATOM      3  C   UNL     1       3.192   5.360  18.060  0.00  0.00    +0.000 A 
ATOM      4  C   UNL     1       3.462   6.765  17.822  0.00  0.00    +0.000 A 
ATOM      5  C   UNL     1       4.826   6.833  17.554  0.00  0.00    +0.000 A 
ATOM      6 CL   UNL     1       5.816   8.174  17.150  0.00  0.00    +0.000 Cl
ATOM      7  N   UNL     1       5.396   5.585  17.626  0.00  0.00    +0.000 N 
ATOM      8  C   UNL     1       4.411   4.670  17.960  0.00  0.00    +0.000 A 
ATOM      9  C   UNL     1       4.517   3.275  18.116  0.00  0.00    +0.000 A 
ATOM     10  C   UNL     1       3.373   2.492  18.314  0.00  0.00    +0.000 A 
ATOM     11  C   UNL     1       3.575   0.999  18.257  0.00  0.00    +0.000 C 
ENDROOT
BRANCH   4  12
ATOM     12  C   UNL     1       2.565   7.935  17.782  0.00  0.00    +0.000 C 
ATOM     13  C   UNL     1       1.914   8.503  18.813  0.00  0.00    +0.000 C 
ATOM     14  C   UNL     1       1.857   7.771  20.141  0.00  0.00    +0.000 C 
ATOM     15  O   UNL     1       2.276   6.665  20.430  0.00  0.00    +0.000 OA
ATOM     16  N   UNL     1       1.133   8.567  20.989  0.00  0.00    +0.000 N 
ATOM     17  C   UNL     1       0.554   9.628  20.308  0.00  0.00    +0.000 A 
ATOM     18  C   UNL     1      -0.412  10.441  20.883  0.00  0.00    +0.000 A 
ATOM     19  C   UNL     1      -0.812  11.533  20.158  0.00  0.00    +0.000 A 
ATOM     20  C   UNL     1      -0.145  11.842  18.952  0.00  0.00    +0.000 A 
ATOM     21 CL   UNL     1      -0.497  13.360  18.206  0.00  0.00    +0.000 Cl
ATOM     22  C   UNL     1       0.808  10.961  18.373  0.00  0.00    +0.000 A 
ATOM     23  C   UNL     1       1.073   9.760  19.017  0.00  0.00    +0.000 A 
ATOM     24  H   UNL     1       1.540   8.739  21.896  0.00  0.00    +0.000 HD
ENDBRANCH   4  12
BRANCH   1  26
ATOM     25  C   UNL     1       0.284   2.764  19.947  0.00  0.00    +0.000 C 
ATOM     26  O   UNL     1       0.935   2.526  18.701  0.00  0.00    +0.000 OA
ENDBRANCH   1  26
BRANCH   7  27
ATOM     27  C   UNL     1       6.724   5.176  17.140  0.00  0.00    +0.000 C 
BRANCH  27  28
ATOM     28  C   UNL     1       6.865   4.851  15.667  0.00  0.00    +0.000 A 
ATOM     29  C   UNL     1       7.833   5.409  14.821  0.00  0.00    +0.000 A 
ATOM     30  C   UNL     1       7.829   5.125  13.448  0.00  0.00    +0.000 A 
ATOM     31  C   UNL     1       6.869   4.272  12.908  0.00  0.00    +0.000 A 
ATOM     32 CL   UNL     1       6.826   3.985  11.212  0.00  0.00    +0.000 Cl
ATOM     33  C   UNL     1       5.935   3.661  13.736  0.00  0.00    +0.000 A 
ATOM     34  C   UNL     1       5.939   3.944  15.106  0.00  0.00    +0.000 A 
ENDBRANCH  27  28
ENDBRANCH   7  27
TORSDOF 4
ENDMDL
MODEL 9
REMARK VINA RESULT:      -7.2      2.237      4.083
REMARK  Name = 
REMARK  6 active torsions:
REMARK  status: ('A' for Active; 'I' for Inactive)
REMARK    1  A    between atoms: C_1  and  O_2
REMARK    2  A    between atoms: O_2  and  C_3
REMARK    3  A    between atoms: C_6  and  C_7
REMARK    4  A    between atoms: N_21  and  C_22
REMARK    5  A    between atoms: C_22  and  C_23
REMARK    6  A    between atoms: C_32  and  C_33
REMARK                            x       y       z     vdW  Elec       q    Type
REMARK                         _______ _______ _______ _____ _____    ______ ____
ROOT
ATOM      1  C   UNL     1       2.576  14.278  20.750  0.00  0.00    +0.000 A 
ATOM      2  C   UNL     1       2.536  12.955  20.217  0.00  0.00    +0.000 A 
ATOM      3  C   UNL     1       1.310  12.330  19.856  0.00  0.00    +0.000 A 
ATOM      4  C   UNL     1       0.900  11.067  19.272  0.00  0.00    +0.000 A 
ATOM      5  C   UNL     1      -0.485  11.146  19.171  0.00  0.00    +0.000 A 
ATOM      6 CL   UNL     1      -1.621  10.027  18.538  0.00  0.00    +0.000 Cl
ATOM      7  N   UNL     1      -0.939  12.346  19.659  0.00  0.00    +0.000 N 
ATOM      8  C   UNL     1       0.149  13.078  20.108  0.00  0.00    +0.000 A 
ATOM      9  C   UNL     1       0.176  14.373  20.659  0.00  0.00    +0.000 A 
ATOM     10  C   UNL     1       1.396  15.010  20.921  0.00  0.00    +0.000 A 
ATOM     11  C   UNL     1       1.312  16.464  21.309  0.00  0.00    +0.000 C 
ENDROOT
BRANCH   4  12
ATOM     12  C   UNL     1       1.688   9.916  18.793  0.00  0.00    +0.000 C 
ATOM     13  C   UNL     1       1.776   8.695  19.353  0.00  0.00    +0.000 C 
ATOM     14  C   UNL     1       1.231   8.486  20.754  0.00  0.00    +0.000 C 
ATOM     15  O   UNL     1       0.752   9.299  21.524  0.00  0.00    +0.000 OA
ATOM     16  N   UNL     1       1.464   7.173  21.066  0.00  0.00    +0.000 N 
ATOM     17  C   UNL     1       2.267   6.566  20.112  0.00  0.00    +0.000 A 
ATOM     18  C   UNL     1       2.841   5.318  20.308  0.00  0.00    +0.000 A 
ATOM     19  C   UNL     1       3.505   4.769  19.243  0.00  0.00    +0.000 A 
ATOM     20  C   UNL     1       3.463   5.423  17.992  0.00  0.00    +0.000 A 
ATOM     21 CL   UNL     1       4.085   4.574  16.621  0.00  0.00    +0.000 Cl
ATOM     22  C   UNL     1       2.904   6.721  17.840  0.00  0.00    +0.000 A 
ATOM     23  C   UNL     1       2.399   7.358  18.967  0.00  0.00    +0.000 A 
ATOM     24  H   UNL     1       0.681   6.657  21.438  0.00  0.00    +0.000 HD
ENDBRANCH   4  12
BRANCH   1  26
ATOM     25  C   UNL     1       4.427  14.508  22.253  0.00  0.00    +0.000 C 
ATOM     26  O   UNL     1       3.850  14.747  20.971  0.00  0.00    +0.000 OA
ENDBRANCH   1  26
BRANCH   7  27
ATOM     27  C   UNL     1      -2.274  12.942  19.479  0.00  0.00    +0.000 C 
BRANCH  27  28
ATOM     28  C   UNL     1      -3.275  12.778  20.604  0.00  0.00    +0.000 A 
ATOM     29  C   UNL     1      -4.664  12.731  20.427  0.00  0.00    +0.000 A 
ATOM     30  C   UNL     1      -5.522  12.674  21.535  0.00  0.00    +0.000 A 
ATOM     31  C   UNL     1      -5.003  12.650  22.827  0.00  0.00    +0.000 A 
ATOM     32 CL   UNL     1      -6.062  12.654  24.183  0.00  0.00    +0.000 Cl
ATOM     33  C   UNL     1      -3.628  12.637  23.026  0.00  0.00    +0.000 A 
ATOM     34  C   UNL     1      -2.772  12.693  21.921  0.00  0.00    +0.000 A 
ENDBRANCH  27  28
ENDBRANCH   7  27
TORSDOF 4
ENDMDL
