MODEL 1
REMARK VINA RESULT:      -7.5      0.000      0.000
REMARK  Name = 
REMARK  7 active torsions:
REMARK  status: ('A' for Active; 'I' for Inactive)
REMARK    1  A    between atoms: C_1  and  C_2
REMARK    2  A    between atoms: C_2  and  C_3
REMARK    3  A    between atoms: C_8  and  N_9
REMARK    4  A    between atoms: C_10  and  C_12
REMARK    5  A    between atoms: C_12  and  C_13
REMARK    6  A    between atoms: C_12  and  C_15
REMARK    7  A    between atoms: C_15  and  C_16
REMARK                            x       y       z     vdW  Elec       q    Type
REMARK                         _______ _______ _______ _____ _____    ______ ____
ROOT
ATOM      1  N   UNL     1       4.458   3.592  18.289  0.00  0.00    +0.000 N 
ATOM      2  C   UNL     1       5.139   4.797  18.164  0.00  0.00    +0.000 C 
ATOM      3  O   UNL     1       4.978   5.790  18.869  0.00  0.00    +0.000 OA
ATOM      4  H   UNL     1       4.638   2.877  17.596  0.00  0.00    +0.000 HD
ENDROOT
BRANCH   1  10
ATOM      5  C   UNL     1       2.086   3.598  18.953  0.00  0.00    +0.000 A 
ATOM      6  C   UNL     1       1.097   3.296  19.916  0.00  0.00    +0.000 A 
ATOM      7  C   UNL     1       1.430   2.726  21.141  0.00  0.00    +0.000 A 
ATOM      8  C   UNL     1       2.754   2.439  21.424  0.00  0.00    +0.000 A 
ATOM      9  C   UNL     1       3.743   2.705  20.474  0.00  0.00    +0.000 A 
ATOM     10  C   UNL     1       3.437   3.293  19.239  0.00  0.00    +0.000 A 
BRANCH   5  12
ATOM     11  C   UNL     1       1.680   5.849  17.931  0.00  0.00    +0.000 C 
ATOM     12  C   UNL     1       1.625   4.340  17.718  0.00  0.00    +0.000 C 
ENDBRANCH   5  12
ENDBRANCH   1  10
BRANCH   2  13
ATOM     13  C   UNL     1       6.124   4.846  16.999  0.00  0.00    +0.000 C 
BRANCH  13  14
ATOM     14  C   UNL     1       7.442   4.468  17.527  0.00  0.00    +0.000 C 
ATOM     15  N   UNL     1       8.478   4.147  17.937  0.00  0.00    +0.000 NA
ENDBRANCH  13  14
BRANCH  13  16
ATOM     16  C   UNL     1       5.659   3.872  15.897  0.00  0.00    +0.000 C 
BRANCH  16  17
ATOM     17  C   UNL     1       6.238   4.150  14.534  0.00  0.00    +0.000 A 
ATOM     18  C   UNL     1       5.826   3.411  13.418  0.00  0.00    +0.000 A 
ATOM     19  C   UNL     1       6.400   3.658  12.177  0.00  0.00    +0.000 A 
ATOM     20  C   UNL     1       7.364   4.642  12.085  0.00  0.00    +0.000 A 
ATOM     21  N   UNL     1       7.778   5.389  13.137  0.00  0.00    +0.000 NA
ATOM     22  C   UNL     1       7.202   5.129  14.332  0.00  0.00    +0.000 A 
ENDBRANCH  16  17
ENDBRANCH  13  16
ENDBRANCH   2  13
TORSDOF 6
ENDMDL
MODEL 2
REMARK VINA RESULT:      -7.3      1.138      1.726
REMARK  Name = 
REMARK  7 active torsions:
REMARK  status: ('A' for Active; 'I' for Inactive)
REMARK    1  A    between atoms: C_1  and  C_2
REMARK    2  A    between atoms: C_2  and  C_3
REMARK    3  A    between atoms: C_8  and  N_9
REMARK    4  A    between atoms: C_10  and  C_12
REMARK    5  A    between atoms: C_12  and  C_13
REMARK    6  A    between atoms: C_12  and  C_15
REMARK    7  A    between atoms: C_15  and  C_16
REMARK                            x       y       z     vdW  Elec       q    Type
REMARK                         _______ _______ _______ _____ _____    ______ ____
ROOT
ATOM      1  N   UNL     1       3.914   4.615  17.865  0.00  0.00    +0.000 N 
ATOM      2  C   UNL     1       5.267   4.595  18.179  0.00  0.00    +0.000 C 
ATOM      3  O   UNL     1       5.742   4.444  19.302  0.00  0.00    +0.000 OA
ATOM      4  H   UNL     1       3.657   4.819  16.908  0.00  0.00    +0.000 HD
ENDROOT
BRANCH   1  10
ATOM      5  C   UNL     1       2.106   3.274  18.864  0.00  0.00    +0.000 A 
ATOM      6  C   UNL     1       1.034   3.176  19.779  0.00  0.00    +0.000 A 
ATOM      7  C   UNL     1       0.669   4.252  20.584  0.00  0.00    +0.000 A 
ATOM      8  C   UNL     1       1.373   5.440  20.497  0.00  0.00    +0.000 A 
ATOM      9  C   UNL     1       2.452   5.548  19.617  0.00  0.00    +0.000 A 
ATOM     10  C   UNL     1       2.831   4.486  18.784  0.00  0.00    +0.000 A 
BRANCH   5  12
ATOM     11  C   UNL     1       3.562   1.301  18.353  0.00  0.00    +0.000 C 
ATOM     12  C   UNL     1       2.324   2.091  17.946  0.00  0.00    +0.000 C 
ENDBRANCH   5  12
ENDBRANCH   1  10
BRANCH   2  13
ATOM     13  C   UNL     1       6.194   4.837  16.991  0.00  0.00    +0.000 C 
BRANCH  13  14
ATOM     14  C   UNL     1       7.551   4.467  17.415  0.00  0.00    +0.000 C 
ATOM     15  N   UNL     1       8.613   4.157  17.763  0.00  0.00    +0.000 NA
ENDBRANCH  13  14
BRANCH  13  16
ATOM     16  C   UNL     1       5.724   3.982  15.796  0.00  0.00    +0.000 C 
BRANCH  16  17
ATOM     17  C   UNL     1       6.393   4.317  14.489  0.00  0.00    +0.000 A 
ATOM     18  C   UNL     1       6.078   3.609  13.322  0.00  0.00    +0.000 A 
ATOM     19  C   UNL     1       6.734   3.909  12.134  0.00  0.00    +0.000 A 
ATOM     20  C   UNL     1       7.680   4.914  12.144  0.00  0.00    +0.000 A 
ATOM     21  N   UNL     1       8.002   5.632  13.247  0.00  0.00    +0.000 NA
ATOM     22  C   UNL     1       7.347   5.321  14.388  0.00  0.00    +0.000 A 
ENDBRANCH  16  17
ENDBRANCH  13  16
ENDBRANCH   2  13
TORSDOF 6
ENDMDL
MODEL 3
REMARK VINA RESULT:      -7.2      1.604      2.004
REMARK  Name = 
REMARK  7 active torsions:
REMARK  status: ('A' for Active; 'I' for Inactive)
REMARK    1  A    between atoms: C_1  and  C_2
REMARK    2  A    between atoms: C_2  and  C_3
REMARK    3  A    between atoms: C_8  and  N_9
REMARK    4  A    between atoms: C_10  and  C_12
REMARK    5  A    between atoms: C_12  and  C_13
REMARK    6  A    between atoms: C_12  and  C_15
REMARK    7  A    between atoms: C_15  and  C_16
REMARK                            x       y       z     vdW  Elec       q    Type
REMARK                         _______ _______ _______ _____ _____    ______ ____
ROOT
ATOM      1  N   UNL     1       4.347   5.096  18.092  0.00  0.00    +0.000 N 
ATOM      2  C   UNL     1       4.549   6.226  17.309  0.00  0.00    +0.000 C 
ATOM      3  O   UNL     1       3.781   7.180  17.213  0.00  0.00    +0.000 OA
ATOM      4  H   UNL     1       5.028   4.351  18.025  0.00  0.00    +0.000 HD
ENDROOT
BRANCH   1  10
ATOM      5  C   UNL     1       2.423   3.675  18.676  0.00  0.00    +0.000 A 
ATOM      6  C   UNL     1       1.299   3.436  19.497  0.00  0.00    +0.000 A 
ATOM      7  C   UNL     1       0.943   4.319  20.513  0.00  0.00    +0.000 A 
ATOM      8  C   UNL     1       1.709   5.451  20.733  0.00  0.00    +0.000 A 
ATOM      9  C   UNL     1       2.839   5.691  19.948  0.00  0.00    +0.000 A 
ATOM     10  C   UNL     1       3.210   4.826  18.909  0.00  0.00    +0.000 A 
BRANCH   5  12
ATOM     11  C   UNL     1       3.598   1.605  17.896  0.00  0.00    +0.000 C 
ATOM     12  C   UNL     1       2.632   2.722  17.519  0.00  0.00    +0.000 C 
ENDBRANCH   5  12
ENDBRANCH   1  10
BRANCH   2  13
ATOM     13  C   UNL     1       5.830   6.198  16.479  0.00  0.00    +0.000 C 
BRANCH  13  14
ATOM     14  C   UNL     1       6.897   6.774  17.309  0.00  0.00    +0.000 C 
ATOM     15  N   UNL     1       7.744   7.245  17.946  0.00  0.00    +0.000 NA
ENDBRANCH  13  14
BRANCH  13  16
ATOM     16  C   UNL     1       6.148   4.742  16.082  0.00  0.00    +0.000 C 
BRANCH  16  17
ATOM     17  C   UNL     1       6.445   4.546  14.619  0.00  0.00    +0.000 A 
ATOM     18  C   UNL     1       5.701   3.640  13.853  0.00  0.00    +0.000 A 
ATOM     19  C   UNL     1       6.017   3.447  12.513  0.00  0.00    +0.000 A 
ATOM     20  C   UNL     1       7.063   4.170  11.976  0.00  0.00    +0.000 A 
ATOM     21  N   UNL     1       7.796   5.067  12.678  0.00  0.00    +0.000 NA
ATOM     22  C   UNL     1       7.466   5.237  13.978  0.00  0.00    +0.000 A 
ENDBRANCH  16  17
ENDBRANCH  13  16
ENDBRANCH   2  13
TORSDOF 6
ENDMDL
MODEL 4
REMARK VINA RESULT:      -7.1      1.740      2.357
REMARK  Name = 
REMARK  7 active torsions:
REMARK  status: ('A' for Active; 'I' for Inactive)
REMARK    1  A    between atoms: C_1  and  C_2
REMARK    2  A    between atoms: C_2  and  C_3
REMARK    3  A    between atoms: C_8  and  N_9
REMARK    4  A    between atoms: C_10  and  C_12
REMARK    5  A    between atoms: C_12  and  C_13
REMARK    6  A    between atoms: C_12  and  C_15
REMARK    7  A    between atoms: C_15  and  C_16
REMARK                            x       y       z     vdW  Elec       q    Type
REMARK                         _______ _______ _______ _____ _____    ______ ____
ROOT
ATOM      1  N   UNL     1       4.030   5.400  17.722  0.00  0.00    +0.000 N 
ATOM      2  C   UNL     1       5.382   5.622  17.954  0.00  0.00    +0.000 C 
ATOM      3  O   UNL     1       5.950   5.531  19.039  0.00  0.00    +0.000 OA
ATOM      4  H   UNL     1       3.677   5.578  16.791  0.00  0.00    +0.000 HD
ENDROOT
BRANCH   1  10
ATOM      5  C   UNL     1       2.496   3.747  18.713  0.00  0.00    +0.000 A 
ATOM      6  C   UNL     1       1.526   3.427  19.688  0.00  0.00    +0.000 A 
ATOM      7  C   UNL     1       1.095   4.369  20.617  0.00  0.00    +0.000 A 
ATOM      8  C   UNL     1       1.633   5.645  20.596  0.00  0.00    +0.000 A 
ATOM      9  C   UNL     1       2.613   5.972  19.656  0.00  0.00    +0.000 A 
ATOM     10  C   UNL     1       3.052   5.047  18.699  0.00  0.00    +0.000 A 
BRANCH   5  12
ATOM     11  C   UNL     1       3.462   1.473  18.296  0.00  0.00    +0.000 C 
ATOM     12  C   UNL     1       2.785   2.688  17.671  0.00  0.00    +0.000 C 
ENDBRANCH   5  12
ENDBRANCH   1  10
BRANCH   2  13
ATOM     13  C   UNL     1       6.168   6.064  16.722  0.00  0.00    +0.000 C 
BRANCH  13  14
ATOM     14  C   UNL     1       6.987   7.217  17.119  0.00  0.00    +0.000 C 
ATOM     15  N   UNL     1       7.653   8.114  17.429  0.00  0.00    +0.000 NA
ENDBRANCH  13  14
BRANCH  13  16
ATOM     16  C   UNL     1       7.043   4.893  16.229  0.00  0.00    +0.000 C 
BRANCH  16  17
ATOM     17  C   UNL     1       6.967   4.638  14.747  0.00  0.00    +0.000 A 
ATOM     18  C   UNL     1       7.794   5.335  13.857  0.00  0.00    +0.000 A 
ATOM     19  C   UNL     1       7.681   5.111  12.490  0.00  0.00    +0.000 A 
ATOM     20  C   UNL     1       6.750   4.192  12.052  0.00  0.00    +0.000 A 
ATOM     21  N   UNL     1       5.943   3.486  12.880  0.00  0.00    +0.000 NA
ATOM     22  C   UNL     1       6.075   3.721  14.205  0.00  0.00    +0.000 A 
ENDBRANCH  16  17
ENDBRANCH  13  16
ENDBRANCH   2  13
TORSDOF 6
ENDMDL
MODEL 5
REMARK VINA RESULT:      -7.1      1.210      1.267
REMARK  Name = 
REMARK  7 active torsions:
REMARK  status: ('A' for Active; 'I' for Inactive)
REMARK    1  A    between atoms: C_1  and  C_2
REMARK    2  A    between atoms: C_2  and  C_3
REMARK    3  A    between atoms: C_8  and  N_9
REMARK    4  A    between atoms: C_10  and  C_12
REMARK    5  A    between atoms: C_12  and  C_13
REMARK    6  A    between atoms: C_12  and  C_15
REMARK    7  A    between atoms: C_15  and  C_16
REMARK                            x       y       z     vdW  Elec       q    Type
REMARK                         _______ _______ _______ _____ _____    ______ ____
ROOT
ATOM      1  N   UNL     1       4.318   4.225  18.699  0.00  0.00    +0.000 N 
ATOM      2  C   UNL     1       4.246   4.022  17.327  0.00  0.00    +0.000 C 
ATOM      3  O   UNL     1       3.313   3.495  16.727  0.00  0.00    +0.000 OA
ATOM      4  H   UNL     1       5.176   4.609  19.073  0.00  0.00    +0.000 HD
ENDROOT
BRANCH   1  10
ATOM      5  C   UNL     1       2.137   4.583  19.787  0.00  0.00    +0.000 A 
ATOM      6  C   UNL     1       1.186   4.187  20.754  0.00  0.00    +0.000 A 
ATOM      7  C   UNL     1       1.417   3.102  21.594  0.00  0.00    +0.000 A 
ATOM      8  C   UNL     1       2.596   2.387  21.478  0.00  0.00    +0.000 A 
ATOM      9  C   UNL     1       3.537   2.747  20.511  0.00  0.00    +0.000 A 
ATOM     10  C   UNL     1       3.337   3.845  19.663  0.00  0.00    +0.000 A 
BRANCH   5  12
ATOM     11  C   UNL     1       2.337   7.081  19.789  0.00  0.00    +0.000 C 
ATOM     12  C   UNL     1       1.840   5.857  19.026  0.00  0.00    +0.000 C 
ENDBRANCH   5  12
ENDBRANCH   1  10
BRANCH   2  13
ATOM     13  C   UNL     1       5.487   4.467  16.558  0.00  0.00    +0.000 C 
BRANCH  13  14
ATOM     14  C   UNL     1       6.599   4.515  17.517  0.00  0.00    +0.000 C 
ATOM     15  N   UNL     1       7.491   4.560  18.256  0.00  0.00    +0.000 NA
ENDBRANCH  13  14
BRANCH  13  16
ATOM     16  C   UNL     1       5.767   3.465  15.419  0.00  0.00    +0.000 C 
BRANCH  16  17
ATOM     17  C   UNL     1       6.460   4.060  14.222  0.00  0.00    +0.000 A 
ATOM     18  C   UNL     1       6.245   3.541  12.939  0.00  0.00    +0.000 A 
ATOM     19  C   UNL     1       6.924   4.081  11.853  0.00  0.00    +0.000 A 
ATOM     20  C   UNL     1       7.792   5.129  12.079  0.00  0.00    +0.000 A 
ATOM     21  N   UNL     1       8.017   5.669  13.300  0.00  0.00    +0.000 NA
ATOM     22  C   UNL     1       7.342   5.127  14.339  0.00  0.00    +0.000 A 
ENDBRANCH  16  17
ENDBRANCH  13  16
ENDBRANCH   2  13
TORSDOF 6
ENDMDL
MODEL 6
REMARK VINA RESULT:      -7.0      2.717      5.277
REMARK  Name = 
REMARK  7 active torsions:
REMARK  status: ('A' for Active; 'I' for Inactive)
REMARK    1  A    between atoms: C_1  and  C_2
REMARK    2  A    between atoms: C_2  and  C_3
REMARK    3  A    between atoms: C_8  and  N_9
REMARK    4  A    between atoms: C_10  and  C_12
REMARK    5  A    between atoms: C_12  and  C_13
REMARK    6  A    between atoms: C_12  and  C_15
REMARK    7  A    between atoms: C_15  and  C_16
REMARK                            x       y       z     vdW  Elec       q    Type
REMARK                         _______ _______ _______ _____ _____    ______ ____
ROOT
ATOM      1  N   UNL     1       2.687   6.073  20.256  0.00  0.00    +0.000 N 
ATOM      2  C   UNL     1       2.141   4.809  20.064  0.00  0.00    +0.000 C 
ATOM      3  O   UNL     1       1.102   4.560  19.459  0.00  0.00    +0.000 OA
ATOM      4  H   UNL     1       3.514   6.145  20.835  0.00  0.00    +0.000 HD
ENDROOT
BRANCH   1  10
ATOM      5  C   UNL     1       2.284   7.705  18.456  0.00  0.00    +0.000 A 
ATOM      6  C   UNL     1       1.733   8.937  18.039  0.00  0.00    +0.000 A 
ATOM      7  C   UNL     1       1.067   9.771  18.932  0.00  0.00    +0.000 A 
ATOM      8  C   UNL     1       0.932   9.386  20.255  0.00  0.00    +0.000 A 
ATOM      9  C   UNL     1       1.447   8.160  20.680  0.00  0.00    +0.000 A 
ATOM     10  C   UNL     1       2.136   7.308  19.805  0.00  0.00    +0.000 A 
BRANCH   5  12
ATOM     11  C   UNL     1       4.507   7.530  17.313  0.00  0.00    +0.000 C 
ATOM     12  C   UNL     1       3.103   6.948  17.433  0.00  0.00    +0.000 C 
ENDBRANCH   5  12
ENDBRANCH   1  10
BRANCH   2  13
ATOM     13  C   UNL     1       2.920   3.679  20.731  0.00  0.00    +0.000 C 
BRANCH  13  14
ATOM     14  C   UNL     1       1.990   2.979  21.628  0.00  0.00    +0.000 C 
ATOM     15  N   UNL     1       1.274   2.420  22.349  0.00  0.00    +0.000 NA
ENDBRANCH  13  14
BRANCH  13  16
ATOM     16  C   UNL     1       3.476   2.734  19.646  0.00  0.00    +0.000 C 
BRANCH  16  17
ATOM     17  C   UNL     1       4.437   3.383  18.686  0.00  0.00    +0.000 A 
ATOM     18  C   UNL     1       4.207   3.343  17.306  0.00  0.00    +0.000 A 
ATOM     19  C   UNL     1       5.126   3.917  16.435  0.00  0.00    +0.000 A 
ATOM     20  C   UNL     1       6.246   4.521  16.970  0.00  0.00    +0.000 A 
ATOM     21  N   UNL     1       6.497   4.595  18.299  0.00  0.00    +0.000 NA
ATOM     22  C   UNL     1       5.586   4.031  19.123  0.00  0.00    +0.000 A 
ENDBRANCH  16  17
ENDBRANCH  13  16
ENDBRANCH   2  13
TORSDOF 6
ENDMDL
MODEL 7
REMARK VINA RESULT:      -7.0      1.768      2.347
REMARK  Name = 
REMARK  7 active torsions:
REMARK  status: ('A' for Active; 'I' for Inactive)
REMARK    1  A    between atoms: C_1  and  C_2
REMARK    2  A    between atoms: C_2  and  C_3
REMARK    3  A    between atoms: C_8  and  N_9
REMARK    4  A    between atoms: C_10  and  C_12
REMARK    5  A    between atoms: C_12  and  C_13
REMARK    6  A    between atoms: C_12  and  C_15
REMARK    7  A    between atoms: C_15  and  C_16
REMARK                            x       y       z     vdW  Elec       q    Type
REMARK                         _______ _______ _______ _____ _____    ______ ____
ROOT
ATOM      1  N   UNL     1       4.254   5.779  17.790  0.00  0.00    +0.000 N 
ATOM      2  C   UNL     1       5.622   5.844  18.022  0.00  0.00    +0.000 C 
ATOM      3  O   UNL     1       6.188   5.550  19.073  0.00  0.00    +0.000 OA
ATOM      4  H   UNL     1       3.912   6.118  16.900  0.00  0.00    +0.000 HD
ENDROOT
BRANCH   1  10
ATOM      5  C   UNL     1       2.803   4.041  18.759  0.00  0.00    +0.000 A 
ATOM      6  C   UNL     1       1.809   3.676  19.694  0.00  0.00    +0.000 A 
ATOM      7  C   UNL     1       1.257   4.610  20.566  0.00  0.00    +0.000 A 
ATOM      8  C   UNL     1       1.694   5.922  20.526  0.00  0.00    +0.000 A 
ATOM      9  C   UNL     1       2.694   6.297  19.627  0.00  0.00    +0.000 A 
ATOM     10  C   UNL     1       3.256   5.380  18.727  0.00  0.00    +0.000 A 
BRANCH   5  12
ATOM     11  C   UNL     1       3.188   1.590  18.407  0.00  0.00    +0.000 C 
ATOM     12  C   UNL     1       3.230   2.976  17.772  0.00  0.00    +0.000 C 
ENDBRANCH   5  12
ENDBRANCH   1  10
BRANCH   2  13
ATOM     13  C   UNL     1       6.436   6.384  16.849  0.00  0.00    +0.000 C 
BRANCH  13  14
ATOM     14  C   UNL     1       7.260   7.487  17.362  0.00  0.00    +0.000 C 
ATOM     15  N   UNL     1       7.907   8.369  17.746  0.00  0.00    +0.000 NA
ENDBRANCH  13  14
BRANCH  13  16
ATOM     16  C   UNL     1       7.308   5.251  16.270  0.00  0.00    +0.000 C 
BRANCH  16  17
ATOM     17  C   UNL     1       6.900   4.791  14.895  0.00  0.00    +0.000 A 
ATOM     18  C   UNL     1       5.729   4.046  14.707  0.00  0.00    +0.000 A 
ATOM     19  C   UNL     1       5.392   3.600  13.435  0.00  0.00    +0.000 A 
ATOM     20  C   UNL     1       6.230   3.918  12.386  0.00  0.00    +0.000 A 
ATOM     21  N   UNL     1       7.362   4.648  12.523  0.00  0.00    +0.000 NA
ATOM     22  C   UNL     1       7.666   5.072  13.770  0.00  0.00    +0.000 A 
ENDBRANCH  16  17
ENDBRANCH  13  16
ENDBRANCH   2  13
TORSDOF 6
ENDMDL
MODEL 8
REMARK VINA RESULT:      -7.0      1.547      1.751
REMARK  Name = 
REMARK  7 active torsions:
REMARK  status: ('A' for Active; 'I' for Inactive)
REMARK    1  A    between atoms: C_1  and  C_2
REMARK    2  A    between atoms: C_2  and  C_3
REMARK    3  A    between atoms: C_8  and  N_9
REMARK    4  A    between atoms: C_10  and  C_12
REMARK    5  A    between atoms: C_12  and  C_13
REMARK    6  A    between atoms: C_12  and  C_15
REMARK    7  A    between atoms: C_15  and  C_16
REMARK                            x       y       z     vdW  Elec       q    Type
REMARK                         _______ _______ _______ _____ _____    ______ ____
ROOT
ATOM      1  N   UNL     1       3.812   4.833  17.723  0.00  0.00    +0.000 N 
ATOM      2  C   UNL     1       5.134   5.222  17.900  0.00  0.00    +0.000 C 
ATOM      3  O   UNL     1       5.734   5.260  18.972  0.00  0.00    +0.000 OA
ATOM      4  H   UNL     1       3.418   4.915  16.794  0.00  0.00    +0.000 HD
ENDROOT
BRANCH   1  10
ATOM      5  C   UNL     1       2.165   5.395  19.467  0.00  0.00    +0.000 A 
ATOM      6  C   UNL     1       1.279   4.965  20.480  0.00  0.00    +0.000 A 
ATOM      7  C   UNL     1       1.138   3.616  20.794  0.00  0.00    +0.000 A 
ATOM      8  C   UNL     1       1.871   2.672  20.096  0.00  0.00    +0.000 A 
ATOM      9  C   UNL     1       2.733   3.075  19.073  0.00  0.00    +0.000 A 
ATOM     10  C   UNL     1       2.905   4.428  18.747  0.00  0.00    +0.000 A 
BRANCH   5  12
ATOM     11  C   UNL     1       1.777   7.639  20.510  0.00  0.00    +0.000 C 
ATOM     12  C   UNL     1       2.338   6.889  19.307  0.00  0.00    +0.000 C 
ENDBRANCH   5  12
ENDBRANCH   1  10
BRANCH   2  13
ATOM     13  C   UNL     1       5.833   5.678  16.623  0.00  0.00    +0.000 C 
BRANCH  13  14
ATOM     14  C   UNL     1       6.641   6.856  16.966  0.00  0.00    +0.000 C 
ATOM     15  N   UNL     1       7.272   7.783  17.261  0.00  0.00    +0.000 NA
ENDBRANCH  13  14
BRANCH  13  16
ATOM     16  C   UNL     1       6.711   4.530  16.085  0.00  0.00    +0.000 C 
BRANCH  16  17
ATOM     17  C   UNL     1       6.774   4.445  14.582  0.00  0.00    +0.000 A 
ATOM     18  C   UNL     1       5.942   3.564  13.880  0.00  0.00    +0.000 A 
ATOM     19  C   UNL     1       6.043   3.474  12.497  0.00  0.00    +0.000 A 
ATOM     20  C   UNL     1       6.967   4.273  11.854  0.00  0.00    +0.000 A 
ATOM     21  N   UNL     1       7.778   5.149  12.495  0.00  0.00    +0.000 NA
ATOM     22  C   UNL     1       7.658   5.217  13.839  0.00  0.00    +0.000 A 
ENDBRANCH  16  17
ENDBRANCH  13  16
ENDBRANCH   2  13
TORSDOF 6
ENDMDL
MODEL 9
REMARK VINA RESULT:      -7.0      3.038      5.437
REMARK  Name = 
REMARK  7 active torsions:
REMARK  status: ('A' for Active; 'I' for Inactive)
REMARK    1  A    between atoms: C_1  and  C_2
REMARK    2  A    between atoms: C_2  and  C_3
REMARK    3  A    between atoms: C_8  and  N_9
REMARK    4  A    between atoms: C_10  and  C_12
REMARK    5  A    between atoms: C_12  and  C_13
REMARK    6  A    between atoms: C_12  and  C_15
REMARK    7  A    between atoms: C_15  and  C_16
REMARK                            x       y       z     vdW  Elec       q    Type
REMARK                         _______ _______ _______ _____ _____    ______ ____
ROOT
ATOM      1  N   UNL     1       2.777   6.467  20.031  0.00  0.00    +0.000 N 
ATOM      2  C   UNL     1       2.379   5.155  19.806  0.00  0.00    +0.000 C 
ATOM      3  O   UNL     1       1.437   4.800  19.101  0.00  0.00    +0.000 OA
ATOM      4  H   UNL     1       3.527   6.623  20.692  0.00  0.00    +0.000 HD
ENDROOT
BRANCH   1  10
ATOM      5  C   UNL     1       1.356   8.456  20.337  0.00  0.00    +0.000 A 
ATOM      6  C   UNL     1       0.751   9.608  19.788  0.00  0.00    +0.000 A 
ATOM      7  C   UNL     1       0.913   9.941  18.447  0.00  0.00    +0.000 A 
ATOM      8  C   UNL     1       1.690   9.136  17.632  0.00  0.00    +0.000 A 
ATOM      9  C   UNL     1       2.317   8.007  18.162  0.00  0.00    +0.000 A 
ATOM     10  C   UNL     1       2.158   7.640  19.506  0.00  0.00    +0.000 A 
BRANCH   5  12
ATOM     11  C   UNL     1       0.310   9.294  22.454  0.00  0.00    +0.000 C 
ATOM     12  C   UNL     1       0.999   8.119  21.769  0.00  0.00    +0.000 C 
ENDBRANCH   5  12
ENDBRANCH   1  10
BRANCH   2  13
ATOM     13  C   UNL     1       3.190   4.110  20.569  0.00  0.00    +0.000 C 
BRANCH  13  14
ATOM     14  C   UNL     1       2.242   3.323  21.369  0.00  0.00    +0.000 C 
ATOM     15  N   UNL     1       1.505   2.708  22.020  0.00  0.00    +0.000 NA
ENDBRANCH  13  14
BRANCH  13  16
ATOM     16  C   UNL     1       3.952   3.224  19.564  0.00  0.00    +0.000 C 
BRANCH  16  17
ATOM     17  C   UNL     1       4.784   3.986  18.566  0.00  0.00    +0.000 A 
ATOM     18  C   UNL     1       4.540   3.868  17.192  0.00  0.00    +0.000 A 
ATOM     19  C   UNL     1       5.344   4.552  16.287  0.00  0.00    +0.000 A 
ATOM     20  C   UNL     1       6.364   5.338  16.782  0.00  0.00    +0.000 A 
ATOM     21  N   UNL     1       6.624   5.490  18.103  0.00  0.00    +0.000 NA
ATOM     22  C   UNL     1       5.825   4.817  18.961  0.00  0.00    +0.000 A 
ENDBRANCH  16  17
ENDBRANCH  13  16
ENDBRANCH   2  13
TORSDOF 6
ENDMDL
