MODEL 1
REMARK VINA RESULT:      -6.4      0.000      0.000
REMARK  Name = 
REMARK  18 active torsions:
REMARK  status: ('A' for Active; 'I' for Inactive)
REMARK    1  A    between atoms: C_1  and  C_2
REMARK    2  A    between atoms: C_2  and  C_3
REMARK    3  A    between atoms: C_3  and  C_4
REMARK    4  A    between atoms: C_4  and  C_5
REMARK    5  A    between atoms: C_5  and  C_6
REMARK    6  A    between atoms: C_6  and  C_7
REMARK    7  A    between atoms: C_7  and  C_8
REMARK    8  A    between atoms: C_8  and  C_9
REMARK    9  A    between atoms: C_10  and  C_11
REMARK   10  A    between atoms: C_11  and  C_12
REMARK   11  A    between atoms: C_12  and  C_13
REMARK   12  A    between atoms: C_13  and  C_14
REMARK   13  A    between atoms: C_14  and  C_15
REMARK   14  A    between atoms: C_15  and  C_16
REMARK   15  A    between atoms: C_16  and  C_17
REMARK   16  A    between atoms: C_17  and  C_18
REMARK   17  A    between atoms: C_18  and  C_20
REMARK   18  A    between atoms: C_22  and  C_23
REMARK                            x       y       z     vdW  Elec       q    Type
REMARK                         _______ _______ _______ _____ _____    ______ ____
ROOT
ATOM      1  C   UNL     1       1.682   8.110  20.045  0.00  0.00    +0.000 C 
ENDROOT
BRANCH   1   2
ATOM      2  C   UNL     1       1.374   8.395  21.511  0.00  0.00    +0.000 C 
BRANCH   2   3
ATOM      3  C   UNL     1      -0.041   8.922  21.719  0.00  0.00    +0.000 C 
BRANCH   3   4
ATOM      4  C   UNL     1      -0.021  10.409  22.043  0.00  0.00    +0.000 C 
ATOM      5  O   UNL     1      -0.428  10.823  23.135  0.00  0.00    +0.000 OA
BRANCH   4   6
ATOM      6  C   UNL     1       0.495  11.272  20.999  0.00  0.00    +0.000 A 
ATOM      7  N   UNL     1       1.486  12.142  21.107  0.00  0.00    +0.000 NA
ATOM      8  C   UNL     1       1.576  12.685  19.837  0.00  0.00    +0.000 A 
ATOM      9  C   UNL     1       0.624  12.121  19.023  0.00  0.00    +0.000 A 
ATOM     10  O   UNL     1      -0.074  11.212  19.754  0.00  0.00    +0.000 OA
BRANCH   8  11
ATOM     11  C   UNL     1       2.541  13.683  19.422  0.00  0.00    +0.000 A 
ATOM     12  C   UNL     1       2.549  14.144  18.112  0.00  0.00    +0.000 A 
ATOM     13  C   UNL     1       3.475  15.121  17.758  0.00  0.00    +0.000 A 
ATOM     14  C   UNL     1       4.358  15.602  18.717  0.00  0.00    +0.000 A 
ATOM     15  C   UNL     1       4.284  15.084  19.999  0.00  0.00    +0.000 A 
ATOM     16  N   UNL     1       3.398  14.138  20.373  0.00  0.00    +0.000 NA
ENDBRANCH   8  11
ENDBRANCH   4   6
ENDBRANCH   3   4
ENDBRANCH   2   3
ENDBRANCH   1   2
BRANCH   1  17
ATOM     17  C   UNL     1       2.292   6.719  19.932  0.00  0.00    +0.000 C 
BRANCH  17  18
ATOM     18  C   UNL     1       1.357   5.629  20.446  0.00  0.00    +0.000 C 
BRANCH  18  19
ATOM     19  C   UNL     1       2.093   4.304  20.656  0.00  0.00    +0.000 C 
BRANCH  19  20
ATOM     20  C   UNL     1       1.753   3.219  19.630  0.00  0.00    +0.000 C 
BRANCH  20  22
ATOM     21  C   UNL     1       2.802   3.859  17.428  0.00  0.00    +0.000 C 
ATOM     22  C   UNL     1       1.726   3.744  18.219  0.00  0.00    +0.000 C 
BRANCH  21  23
ATOM     23  C   UNL     1       4.169   3.437  17.865  0.00  0.00    +0.000 C 
BRANCH  23  24
ATOM     24  C   UNL     1       5.031   4.601  18.324  0.00  0.00    +0.000 C 
BRANCH  24  25
ATOM     25  C   UNL     1       6.308   4.636  17.489  0.00  0.00    +0.000 C 
BRANCH  25  26
ATOM     26  C   UNL     1       6.027   5.172  16.096  0.00  0.00    +0.000 C 
BRANCH  26  27
ATOM     27  C   UNL     1       6.497   4.186  15.032  0.00  0.00    +0.000 C 
BRANCH  27  28
ATOM     28  C   UNL     1       5.421   4.004  13.968  0.00  0.00    +0.000 C 
BRANCH  28  30
ATOM     29  C   UNL     1       4.944   3.166  11.656  0.00  0.00    +0.000 C 
ATOM     30  C   UNL     1       6.028   3.579  12.636  0.00  0.00    +0.000 C 
ENDBRANCH  28  30
ENDBRANCH  27  28
ENDBRANCH  26  27
ENDBRANCH  25  26
ENDBRANCH  24  25
ENDBRANCH  23  24
ENDBRANCH  21  23
ENDBRANCH  20  22
ENDBRANCH  19  20
ENDBRANCH  18  19
ENDBRANCH  17  18
ENDBRANCH   1  17
TORSDOF 17
ENDMDL
MODEL 2
REMARK VINA RESULT:      -6.2      3.460      6.134
REMARK  Name = 
REMARK  18 active torsions:
REMARK  status: ('A' for Active; 'I' for Inactive)
REMARK    1  A    between atoms: C_1  and  C_2
REMARK    2  A    between atoms: C_2  and  C_3
REMARK    3  A    between atoms: C_3  and  C_4
REMARK    4  A    between atoms: C_4  and  C_5
REMARK    5  A    between atoms: C_5  and  C_6
REMARK    6  A    between atoms: C_6  and  C_7
REMARK    7  A    between atoms: C_7  and  C_8
REMARK    8  A    between atoms: C_8  and  C_9
REMARK    9  A    between atoms: C_10  and  C_11
REMARK   10  A    between atoms: C_11  and  C_12
REMARK   11  A    between atoms: C_12  and  C_13
REMARK   12  A    between atoms: C_13  and  C_14
REMARK   13  A    between atoms: C_14  and  C_15
REMARK   14  A    between atoms: C_15  and  C_16
REMARK   15  A    between atoms: C_16  and  C_17
REMARK   16  A    between atoms: C_17  and  C_18
REMARK   17  A    between atoms: C_18  and  C_20
REMARK   18  A    between atoms: C_22  and  C_23
REMARK                            x       y       z     vdW  Elec       q    Type
REMARK                         _______ _______ _______ _____ _____    ______ ____
ROOT
ATOM      1  C   UNL     1       1.045   9.050  19.918  0.00  0.00    +0.000 C 
ENDROOT
BRANCH   1   2
ATOM      2  C   UNL     1      -0.208   9.618  20.577  0.00  0.00    +0.000 C 
BRANCH   2   3
ATOM      3  C   UNL     1      -0.526   8.942  21.905  0.00  0.00    +0.000 C 
BRANCH   3   4
ATOM      4  C   UNL     1      -0.265   9.889  23.069  0.00  0.00    +0.000 C 
ATOM      5  O   UNL     1       0.571   9.610  23.936  0.00  0.00    +0.000 OA
BRANCH   4   6
ATOM      6  C   UNL     1      -1.055  11.105  23.078  0.00  0.00    +0.000 A 
ATOM      7  N   UNL     1      -2.359  11.202  23.278  0.00  0.00    +0.000 NA
ATOM      8  C   UNL     1      -2.597  12.563  23.193  0.00  0.00    +0.000 A 
ATOM      9  C   UNL     1      -1.420  13.223  22.934  0.00  0.00    +0.000 A 
ATOM     10  O   UNL     1      -0.423  12.302  22.860  0.00  0.00    +0.000 OA
BRANCH   8  11
ATOM     11  C   UNL     1      -3.887  13.198  23.369  0.00  0.00    +0.000 A 
ATOM     12  C   UNL     1      -3.962  14.545  23.700  0.00  0.00    +0.000 A 
ATOM     13  C   UNL     1      -5.219  15.125  23.836  0.00  0.00    +0.000 A 
ATOM     14  C   UNL     1      -6.355  14.346  23.641  0.00  0.00    +0.000 A 
ATOM     15  C   UNL     1      -6.188  13.010  23.318  0.00  0.00    +0.000 A 
ATOM     16  N   UNL     1      -4.983  12.419  23.178  0.00  0.00    +0.000 NA
ENDBRANCH   8  11
ENDBRANCH   4   6
ENDBRANCH   3   4
ENDBRANCH   2   3
ENDBRANCH   1   2
BRANCH   1  17
ATOM     17  C   UNL     1       1.483   9.990  18.803  0.00  0.00    +0.000 C 
BRANCH  17  18
ATOM     18  C   UNL     1       2.191   9.259  17.668  0.00  0.00    +0.000 C 
BRANCH  18  19
ATOM     19  C   UNL     1       2.236   7.748  17.910  0.00  0.00    +0.000 C 
BRANCH  19  20
ATOM     20  C   UNL     1       3.591   7.222  18.392  0.00  0.00    +0.000 C 
BRANCH  20  22
ATOM     21  C   UNL     1       4.422   5.513  16.733  0.00  0.00    +0.000 C 
ATOM     22  C   UNL     1       4.463   6.744  17.260  0.00  0.00    +0.000 C 
BRANCH  21  23
ATOM     23  C   UNL     1       3.462   4.468  17.207  0.00  0.00    +0.000 C 
BRANCH  23  24
ATOM     24  C   UNL     1       4.147   3.299  17.893  0.00  0.00    +0.000 C 
BRANCH  24  25
ATOM     25  C   UNL     1       3.265   2.060  17.768  0.00  0.00    +0.000 C 
BRANCH  25  26
ATOM     26  C   UNL     1       1.865   2.341  18.288  0.00  0.00    +0.000 C 
BRANCH  26  27
ATOM     27  C   UNL     1       1.826   2.249  19.809  0.00  0.00    +0.000 C 
BRANCH  27  28
ATOM     28  C   UNL     1       1.071   3.439  20.391  0.00  0.00    +0.000 C 
BRANCH  28  30
ATOM     29  C   UNL     1       1.400   5.830  21.062  0.00  0.00    +0.000 C 
ATOM     30  C   UNL     1       1.769   4.752  20.057  0.00  0.00    +0.000 C 
ENDBRANCH  28  30
ENDBRANCH  27  28
ENDBRANCH  26  27
ENDBRANCH  25  26
ENDBRANCH  24  25
ENDBRANCH  23  24
ENDBRANCH  21  23
ENDBRANCH  20  22
ENDBRANCH  19  20
ENDBRANCH  18  19
ENDBRANCH  17  18
ENDBRANCH   1  17
TORSDOF 17
ENDMDL
MODEL 3
REMARK VINA RESULT:      -6.2      4.739     11.097
REMARK  Name = 
REMARK  18 active torsions:
REMARK  status: ('A' for Active; 'I' for Inactive)
REMARK    1  A    between atoms: C_1  and  C_2
REMARK    2  A    between atoms: C_2  and  C_3
REMARK    3  A    between atoms: C_3  and  C_4
REMARK    4  A    between atoms: C_4  and  C_5
REMARK    5  A    between atoms: C_5  and  C_6
REMARK    6  A    between atoms: C_6  and  C_7
REMARK    7  A    between atoms: C_7  and  C_8
REMARK    8  A    between atoms: C_8  and  C_9
REMARK    9  A    between atoms: C_10  and  C_11
REMARK   10  A    between atoms: C_11  and  C_12
REMARK   11  A    between atoms: C_12  and  C_13
REMARK   12  A    between atoms: C_13  and  C_14
REMARK   13  A    between atoms: C_14  and  C_15
REMARK   14  A    between atoms: C_15  and  C_16
REMARK   15  A    between atoms: C_16  and  C_17
REMARK   16  A    between atoms: C_17  and  C_18
REMARK   17  A    between atoms: C_18  and  C_20
REMARK   18  A    between atoms: C_22  and  C_23
REMARK                            x       y       z     vdW  Elec       q    Type
REMARK                         _______ _______ _______ _____ _____    ______ ____
ROOT
ATOM      1  C   UNL     1       2.391   6.990  19.244  0.00  0.00    +0.000 C 
ENDROOT
BRANCH   1   2
ATOM      2  C   UNL     1       3.499   5.958  19.424  0.00  0.00    +0.000 C 
BRANCH   2   3
ATOM      3  C   UNL     1       3.112   4.586  18.885  0.00  0.00    +0.000 C 
BRANCH   3   4
ATOM      4  C   UNL     1       4.330   3.677  18.797  0.00  0.00    +0.000 C 
ATOM      5  O   UNL     1       4.452   2.708  19.554  0.00  0.00    +0.000 OA
BRANCH   4   6
ATOM      6  C   UNL     1       5.306   4.033  17.785  0.00  0.00    +0.000 A 
ATOM      7  N   UNL     1       5.186   3.872  16.477  0.00  0.00    +0.000 NA
ATOM      8  C   UNL     1       6.376   4.376  15.981  0.00  0.00    +0.000 A 
ATOM      9  C   UNL     1       7.164   4.809  17.021  0.00  0.00    +0.000 A 
ATOM     10  O   UNL     1       6.490   4.597  18.181  0.00  0.00    +0.000 OA
BRANCH   8  11
ATOM     11  C   UNL     1       6.731   4.454  14.579  0.00  0.00    +0.000 A 
ATOM     12  C   UNL     1       6.072   3.661  13.648  0.00  0.00    +0.000 A 
ATOM     13  C   UNL     1       6.423   3.782  12.307  0.00  0.00    +0.000 A 
ATOM     14  C   UNL     1       7.416   4.684  11.941  0.00  0.00    +0.000 A 
ATOM     15  C   UNL     1       8.024   5.431  12.935  0.00  0.00    +0.000 A 
ATOM     16  N   UNL     1       7.705   5.337  14.243  0.00  0.00    +0.000 NA
ENDBRANCH   8  11
ENDBRANCH   4   6
ENDBRANCH   3   4
ENDBRANCH   2   3
ENDBRANCH   1   2
BRANCH   1  17
ATOM     17  C   UNL     1       2.751   7.897  18.074  0.00  0.00    +0.000 C 
BRANCH  17  18
ATOM     18  C   UNL     1       1.601   8.813  17.672  0.00  0.00    +0.000 C 
BRANCH  18  19
ATOM     19  C   UNL     1       1.752  10.211  18.277  0.00  0.00    +0.000 C 
BRANCH  19  20
ATOM     20  C   UNL     1       0.582  10.650  19.163  0.00  0.00    +0.000 C 
BRANCH  20  22
ATOM     21  C   UNL     1      -0.279   9.881  21.406  0.00  0.00    +0.000 C 
ATOM     22  C   UNL     1       0.212   9.611  20.189  0.00  0.00    +0.000 C 
BRANCH  21  23
ATOM     23  C   UNL     1      -0.545  11.277  21.872  0.00  0.00    +0.000 C 
BRANCH  23  24
ATOM     24  C   UNL     1      -1.449  11.334  23.093  0.00  0.00    +0.000 C 
BRANCH  24  25
ATOM     25  C   UNL     1      -1.981  12.755  23.255  0.00  0.00    +0.000 C 
BRANCH  25  26
ATOM     26  C   UNL     1      -3.493  12.752  23.398  0.00  0.00    +0.000 C 
BRANCH  26  27
ATOM     27  C   UNL     1      -4.164  12.701  22.029  0.00  0.00    +0.000 C 
BRANCH  27  28
ATOM     28  C   UNL     1      -5.261  13.756  21.939  0.00  0.00    +0.000 C 
BRANCH  28  30
ATOM     29  C   UNL     1      -6.760  14.432  23.828  0.00  0.00    +0.000 C 
ATOM     30  C   UNL     1      -6.470  13.370  22.782  0.00  0.00    +0.000 C 
ENDBRANCH  28  30
ENDBRANCH  27  28
ENDBRANCH  26  27
ENDBRANCH  25  26
ENDBRANCH  24  25
ENDBRANCH  23  24
ENDBRANCH  21  23
ENDBRANCH  20  22
ENDBRANCH  19  20
ENDBRANCH  18  19
ENDBRANCH  17  18
ENDBRANCH   1  17
TORSDOF 17
ENDMDL
MODEL 4
REMARK VINA RESULT:      -6.2      2.106      2.973
REMARK  Name = 
REMARK  18 active torsions:
REMARK  status: ('A' for Active; 'I' for Inactive)
REMARK    1  A    between atoms: C_1  and  C_2
REMARK    2  A    between atoms: C_2  and  C_3
REMARK    3  A    between atoms: C_3  and  C_4
REMARK    4  A    between atoms: C_4  and  C_5
REMARK    5  A    between atoms: C_5  and  C_6
REMARK    6  A    between atoms: C_6  and  C_7
REMARK    7  A    between atoms: C_7  and  C_8
REMARK    8  A    between atoms: C_8  and  C_9
REMARK    9  A    between atoms: C_10  and  C_11
REMARK   10  A    between atoms: C_11  and  C_12
REMARK   11  A    between atoms: C_12  and  C_13
REMARK   12  A    between atoms: C_13  and  C_14
REMARK   13  A    between atoms: C_14  and  C_15
REMARK   14  A    between atoms: C_15  and  C_16
REMARK   15  A    between atoms: C_16  and  C_17
REMARK   16  A    between atoms: C_17  and  C_18
REMARK   17  A    between atoms: C_18  and  C_20
REMARK   18  A    between atoms: C_22  and  C_23
REMARK                            x       y       z     vdW  Elec       q    Type
REMARK                         _______ _______ _______ _____ _____    ______ ____
ROOT
ATOM      1  C   UNL     1       1.779   7.617  17.916  0.00  0.00    +0.000 C 
ENDROOT
BRANCH   1   2
ATOM      2  C   UNL     1       1.591   9.128  17.990  0.00  0.00    +0.000 C 
BRANCH   2   3
ATOM      3  C   UNL     1       0.896   9.568  19.273  0.00  0.00    +0.000 C 
BRANCH   3   4
ATOM      4  C   UNL     1      -0.231  10.545  18.969  0.00  0.00    +0.000 C 
ATOM      5  O   UNL     1      -1.395  10.149  18.844  0.00  0.00    +0.000 OA
BRANCH   4   6
ATOM      6  C   UNL     1       0.162  11.935  18.840  0.00  0.00    +0.000 A 
ATOM      7  N   UNL     1       1.393  12.418  18.887  0.00  0.00    +0.000 NA
ATOM      8  C   UNL     1       1.211  13.778  18.704  0.00  0.00    +0.000 A 
ATOM      9  C   UNL     1      -0.128  14.051  18.563  0.00  0.00    +0.000 A 
ATOM     10  O   UNL     1      -0.812  12.880  18.646  0.00  0.00    +0.000 OA
BRANCH   8  11
ATOM     11  C   UNL     1       2.273  14.763  18.648  0.00  0.00    +0.000 A 
ATOM     12  C   UNL     1       2.101  16.007  19.239  0.00  0.00    +0.000 A 
ATOM     13  C   UNL     1       3.153  16.917  19.187  0.00  0.00    +0.000 A 
ATOM     14  C   UNL     1       4.334  16.558  18.547  0.00  0.00    +0.000 A 
ATOM     15  C   UNL     1       4.417  15.297  17.979  0.00  0.00    +0.000 A 
ATOM     16  N   UNL     1       3.416  14.393  18.015  0.00  0.00    +0.000 NA
ENDBRANCH   8  11
ENDBRANCH   4   6
ENDBRANCH   3   4
ENDBRANCH   2   3
ENDBRANCH   1   2
BRANCH   1  17
ATOM     17  C   UNL     1       3.211   7.280  18.315  0.00  0.00    +0.000 C 
BRANCH  17  18
ATOM     18  C   UNL     1       3.278   6.183  19.372  0.00  0.00    +0.000 C 
BRANCH  18  19
ATOM     19  C   UNL     1       1.986   6.101  20.188  0.00  0.00    +0.000 C 
BRANCH  19  20
ATOM     20  C   UNL     1       1.712   4.728  20.809  0.00  0.00    +0.000 C 
BRANCH  20  22
ATOM     21  C   UNL     1       1.472   2.830  19.165  0.00  0.00    +0.000 C 
ATOM     22  C   UNL     1       0.936   3.822  19.890  0.00  0.00    +0.000 C 
BRANCH  21  23
ATOM     23  C   UNL     1       2.928   2.493  19.219  0.00  0.00    +0.000 C 
BRANCH  23  24
ATOM     24  C   UNL     1       3.553   2.332  17.843  0.00  0.00    +0.000 C 
BRANCH  24  25
ATOM     25  C   UNL     1       3.542   3.681  17.129  0.00  0.00    +0.000 C 
BRANCH  25  26
ATOM     26  C   UNL     1       4.775   3.839  16.257  0.00  0.00    +0.000 C 
BRANCH  26  27
ATOM     27  C   UNL     1       5.622   5.016  16.729  0.00  0.00    +0.000 C 
BRANCH  27  28
ATOM     28  C   UNL     1       7.077   4.590  16.889  0.00  0.00    +0.000 C 
BRANCH  28  30
ATOM     29  C   UNL     1       6.667   5.370  19.233  0.00  0.00    +0.000 C 
ATOM     30  C   UNL     1       7.701   5.209  18.134  0.00  0.00    +0.000 C 
ENDBRANCH  28  30
ENDBRANCH  27  28
ENDBRANCH  26  27
ENDBRANCH  25  26
ENDBRANCH  24  25
ENDBRANCH  23  24
ENDBRANCH  21  23
ENDBRANCH  20  22
ENDBRANCH  19  20
ENDBRANCH  18  19
ENDBRANCH  17  18
ENDBRANCH   1  17
TORSDOF 17
ENDMDL
MODEL 5
REMARK VINA RESULT:      -6.1      2.537      4.018
REMARK  Name = 
REMARK  18 active torsions:
REMARK  status: ('A' for Active; 'I' for Inactive)
REMARK    1  A    between atoms: C_1  and  C_2
REMARK    2  A    between atoms: C_2  and  C_3
REMARK    3  A    between atoms: C_3  and  C_4
REMARK    4  A    between atoms: C_4  and  C_5
REMARK    5  A    between atoms: C_5  and  C_6
REMARK    6  A    between atoms: C_6  and  C_7
REMARK    7  A    between atoms: C_7  and  C_8
REMARK    8  A    between atoms: C_8  and  C_9
REMARK    9  A    between atoms: C_10  and  C_11
REMARK   10  A    between atoms: C_11  and  C_12
REMARK   11  A    between atoms: C_12  and  C_13
REMARK   12  A    between atoms: C_13  and  C_14
REMARK   13  A    between atoms: C_14  and  C_15
REMARK   14  A    between atoms: C_15  and  C_16
REMARK   15  A    between atoms: C_16  and  C_17
REMARK   16  A    between atoms: C_17  and  C_18
REMARK   17  A    between atoms: C_18  and  C_20
REMARK   18  A    between atoms: C_22  and  C_23
REMARK                            x       y       z     vdW  Elec       q    Type
REMARK                         _______ _______ _______ _____ _____    ______ ____
ROOT
ATOM      1  C   UNL     1       2.693   5.592  20.511  0.00  0.00    +0.000 C 
ENDROOT
BRANCH   1   2
ATOM      2  C   UNL     1       1.768   6.596  19.831  0.00  0.00    +0.000 C 
BRANCH   2   3
ATOM      3  C   UNL     1       1.621   7.887  20.627  0.00  0.00    +0.000 C 
BRANCH   3   4
ATOM      4  C   UNL     1       1.352   9.065  19.701  0.00  0.00    +0.000 C 
ATOM      5  O   UNL     1       1.720   9.040  18.521  0.00  0.00    +0.000 OA
BRANCH   4   6
ATOM      6  C   UNL     1       0.651  10.186  20.299  0.00  0.00    +0.000 A 
ATOM      7  N   UNL     1      -0.606  10.207  20.708  0.00  0.00    +0.000 NA
ATOM      8  C   UNL     1      -0.763  11.492  21.198  0.00  0.00    +0.000 A 
ATOM      9  C   UNL     1       0.411  12.190  21.050  0.00  0.00    +0.000 A 
ATOM     10  O   UNL     1       1.327  11.364  20.478  0.00  0.00    +0.000 OA
BRANCH   8  11
ATOM     11  C   UNL     1      -1.975  12.017  21.793  0.00  0.00    +0.000 A 
ATOM     12  C   UNL     1      -2.909  12.678  21.007  0.00  0.00    +0.000 A 
ATOM     13  C   UNL     1      -4.072  13.146  21.611  0.00  0.00    +0.000 A 
ATOM     14  C   UNL     1      -4.262  12.943  22.973  0.00  0.00    +0.000 A 
ATOM     15  C   UNL     1      -3.276  12.278  23.683  0.00  0.00    +0.000 A 
ATOM     16  N   UNL     1      -2.139  11.812  23.126  0.00  0.00    +0.000 NA
ENDBRANCH   8  11
ENDBRANCH   4   6
ENDBRANCH   3   4
ENDBRANCH   2   3
ENDBRANCH   1   2
BRANCH   1  17
ATOM     17  C   UNL     1       1.849   4.467  21.097  0.00  0.00    +0.000 C 
BRANCH  17  18
ATOM     18  C   UNL     1       2.585   3.131  21.105  0.00  0.00    +0.000 C 
BRANCH  18  19
ATOM     19  C   UNL     1       1.950   2.129  20.137  0.00  0.00    +0.000 C 
BRANCH  19  20
ATOM     20  C   UNL     1       2.757   1.883  18.859  0.00  0.00    +0.000 C 
BRANCH  20  22
ATOM     21  C   UNL     1       2.740   3.706  17.116  0.00  0.00    +0.000 C 
ATOM     22  C   UNL     1       2.193   2.616  17.669  0.00  0.00    +0.000 C 
BRANCH  21  23
ATOM     23  C   UNL     1       4.016   4.306  17.614  0.00  0.00    +0.000 C 
BRANCH  23  24
ATOM     24  C   UNL     1       4.213   5.744  17.163  0.00  0.00    +0.000 C 
BRANCH  24  25
ATOM     25  C   UNL     1       5.658   5.930  16.708  0.00  0.00    +0.000 C 
BRANCH  25  26
ATOM     26  C   UNL     1       6.422   4.620  16.789  0.00  0.00    +0.000 C 
BRANCH  26  27
ATOM     27  C   UNL     1       7.076   4.293  15.451  0.00  0.00    +0.000 C 
BRANCH  27  28
ATOM     28  C   UNL     1       6.032   3.779  14.465  0.00  0.00    +0.000 C 
BRANCH  28  30
ATOM     29  C   UNL     1       5.611   3.216  12.061  0.00  0.00    +0.000 C 
ATOM     30  C   UNL     1       6.466   4.021  13.025  0.00  0.00    +0.000 C 
ENDBRANCH  28  30
ENDBRANCH  27  28
ENDBRANCH  26  27
ENDBRANCH  25  26
ENDBRANCH  24  25
ENDBRANCH  23  24
ENDBRANCH  21  23
ENDBRANCH  20  22
ENDBRANCH  19  20
ENDBRANCH  18  19
ENDBRANCH  17  18
ENDBRANCH   1  17
TORSDOF 17
ENDMDL
MODEL 6
REMARK VINA RESULT:      -6.1      5.376     11.022
REMARK  Name = 
REMARK  18 active torsions:
REMARK  status: ('A' for Active; 'I' for Inactive)
REMARK    1  A    between atoms: C_1  and  C_2
REMARK    2  A    between atoms: C_2  and  C_3
REMARK    3  A    between atoms: C_3  and  C_4
REMARK    4  A    between atoms: C_4  and  C_5
REMARK    5  A    between atoms: C_5  and  C_6
REMARK    6  A    between atoms: C_6  and  C_7
REMARK    7  A    between atoms: C_7  and  C_8
REMARK    8  A    between atoms: C_8  and  C_9
REMARK    9  A    between atoms: C_10  and  C_11
REMARK   10  A    between atoms: C_11  and  C_12
REMARK   11  A    between atoms: C_12  and  C_13
REMARK   12  A    between atoms: C_13  and  C_14
REMARK   13  A    between atoms: C_14  and  C_15
REMARK   14  A    between atoms: C_15  and  C_16
REMARK   15  A    between atoms: C_16  and  C_17
REMARK   16  A    between atoms: C_17  and  C_18
REMARK   17  A    between atoms: C_18  and  C_20
REMARK   18  A    between atoms: C_22  and  C_23
REMARK                            x       y       z     vdW  Elec       q    Type
REMARK                         _______ _______ _______ _____ _____    ______ ____
ROOT
ATOM      1  C   UNL     1       8.065   8.392  17.494  0.00  0.00    +0.000 C 
ENDROOT
BRANCH   1   2
ATOM      2  C   UNL     1       8.207   7.438  18.675  0.00  0.00    +0.000 C 
BRANCH   2   3
ATOM      3  C   UNL     1       7.991   5.983  18.279  0.00  0.00    +0.000 C 
BRANCH   3   4
ATOM      4  C   UNL     1       7.002   5.877  17.127  0.00  0.00    +0.000 C 
ATOM      5  O   UNL     1       7.396   5.855  15.956  0.00  0.00    +0.000 OA
BRANCH   4   6
ATOM      6  C   UNL     1       5.603   5.809  17.505  0.00  0.00    +0.000 A 
ATOM      7  N   UNL     1       4.969   4.765  18.012  0.00  0.00    +0.000 NA
ATOM      8  C   UNL     1       3.679   5.231  18.196  0.00  0.00    +0.000 A 
ATOM      9  C   UNL     1       3.595   6.538  17.780  0.00  0.00    +0.000 A 
ATOM     10  O   UNL     1       4.821   6.922  17.337  0.00  0.00    +0.000 OA
BRANCH   8  11
ATOM     11  C   UNL     1       2.586   4.465  18.760  0.00  0.00    +0.000 A 
ATOM     12  C   UNL     1       2.064   3.380  18.067  0.00  0.00    +0.000 A 
ATOM     13  C   UNL     1       1.032   2.654  18.653  0.00  0.00    +0.000 A 
ATOM     14  C   UNL     1       0.555   3.033  19.903  0.00  0.00    +0.000 A 
ATOM     15  C   UNL     1       1.130   4.131  20.521  0.00  0.00    +0.000 A 
ATOM     16  N   UNL     1       2.132   4.854  19.979  0.00  0.00    +0.000 NA
ENDBRANCH   8  11
ENDBRANCH   4   6
ENDBRANCH   3   4
ENDBRANCH   2   3
ENDBRANCH   1   2
BRANCH   1  17
ATOM     17  C   UNL     1       7.972   9.818  18.023  0.00  0.00    +0.000 C 
BRANCH  17  18
ATOM     18  C   UNL     1       9.230  10.244  18.772  0.00  0.00    +0.000 C 
BRANCH  18  19
ATOM     19  C   UNL     1      10.082  11.210  17.945  0.00  0.00    +0.000 C 
BRANCH  19  20
ATOM     20  C   UNL     1       9.724  12.688  18.125  0.00  0.00    +0.000 C 
BRANCH  20  22
ATOM     21  C   UNL     1       9.668  13.489  20.516  0.00  0.00    +0.000 C 
ATOM     22  C   UNL     1       9.055  12.964  19.446  0.00  0.00    +0.000 C 
BRANCH  21  23
ATOM     23  C   UNL     1      11.108  13.895  20.498  0.00  0.00    +0.000 C 
BRANCH  23  24
ATOM     24  C   UNL     1      11.300  15.402  20.439  0.00  0.00    +0.000 C 
BRANCH  24  25
ATOM     25  C   UNL     1      11.925  15.773  19.097  0.00  0.00    +0.000 C 
BRANCH  25  26
ATOM     26  C   UNL     1      11.624  17.220  18.744  0.00  0.00    +0.000 C 
BRANCH  26  27
ATOM     27  C   UNL     1      10.838  17.304  17.440  0.00  0.00    +0.000 C 
BRANCH  27  28
ATOM     28  C   UNL     1       9.645  16.356  17.480  0.00  0.00    +0.000 C 
BRANCH  28  30
ATOM     29  C   UNL     1       7.323  15.985  18.343  0.00  0.00    +0.000 C 
ATOM     30  C   UNL     1       8.512  16.929  18.323  0.00  0.00    +0.000 C 
ENDBRANCH  28  30
ENDBRANCH  27  28
ENDBRANCH  26  27
ENDBRANCH  25  26
ENDBRANCH  24  25
ENDBRANCH  23  24
ENDBRANCH  21  23
ENDBRANCH  20  22
ENDBRANCH  19  20
ENDBRANCH  18  19
ENDBRANCH  17  18
ENDBRANCH   1  17
TORSDOF 17
ENDMDL
MODEL 7
REMARK VINA RESULT:      -6.1      4.954      7.157
REMARK  Name = 
REMARK  18 active torsions:
REMARK  status: ('A' for Active; 'I' for Inactive)
REMARK    1  A    between atoms: C_1  and  C_2
REMARK    2  A    between atoms: C_2  and  C_3
REMARK    3  A    between atoms: C_3  and  C_4
REMARK    4  A    between atoms: C_4  and  C_5
REMARK    5  A    between atoms: C_5  and  C_6
REMARK    6  A    between atoms: C_6  and  C_7
REMARK    7  A    between atoms: C_7  and  C_8
REMARK    8  A    between atoms: C_8  and  C_9
REMARK    9  A    between atoms: C_10  and  C_11
REMARK   10  A    between atoms: C_11  and  C_12
REMARK   11  A    between atoms: C_12  and  C_13
REMARK   12  A    between atoms: C_13  and  C_14
REMARK   13  A    between atoms: C_14  and  C_15
REMARK   14  A    between atoms: C_15  and  C_16
REMARK   15  A    between atoms: C_16  and  C_17
REMARK   16  A    between atoms: C_17  and  C_18
REMARK   17  A    between atoms: C_18  and  C_20
REMARK   18  A    between atoms: C_22  and  C_23
REMARK                            x       y       z     vdW  Elec       q    Type
REMARK                         _______ _______ _______ _____ _____    ______ ____
ROOT
ATOM      1  C   UNL     1       7.565   7.963  17.530  0.00  0.00    +0.000 C 
ENDROOT
BRANCH   1   2
ATOM      2  C   UNL     1       7.946   9.427  17.716  0.00  0.00    +0.000 C 
BRANCH   2   3
ATOM      3  C   UNL     1       9.026   9.620  18.773  0.00  0.00    +0.000 C 
BRANCH   3   4
ATOM      4  C   UNL     1       9.710  10.970  18.607  0.00  0.00    +0.000 C 
ATOM      5  O   UNL     1      10.571  11.139  17.737  0.00  0.00    +0.000 OA
BRANCH   4   6
ATOM      6  C   UNL     1       9.284  12.006  19.527  0.00  0.00    +0.000 A 
ATOM      7  N   UNL     1       9.423  12.004  20.843  0.00  0.00    +0.000 NA
ATOM      8  C   UNL     1       8.865  13.211  21.227  0.00  0.00    +0.000 A 
ATOM      9  C   UNL     1       8.406  13.882  20.119  0.00  0.00    +0.000 A 
ATOM     10  O   UNL     1       8.671  13.123  19.023  0.00  0.00    +0.000 OA
BRANCH   8  11
ATOM     11  C   UNL     1       8.792  13.703  22.587  0.00  0.00    +0.000 A 
ATOM     12  C   UNL     1       8.142  12.960  23.564  0.00  0.00    +0.000 A 
ATOM     13  C   UNL     1       8.116  13.453  24.865  0.00  0.00    +0.000 A 
ATOM     14  C   UNL     1       8.733  14.667  25.146  0.00  0.00    +0.000 A 
ATOM     15  C   UNL     1       9.354  15.345  24.111  0.00  0.00    +0.000 A 
ATOM     16  N   UNL     1       9.398  14.892  22.840  0.00  0.00    +0.000 NA
ENDBRANCH   8  11
ENDBRANCH   4   6
ENDBRANCH   3   4
ENDBRANCH   2   3
ENDBRANCH   1   2
BRANCH   1  17
ATOM     17  C   UNL     1       8.234   7.139  18.623  0.00  0.00    +0.000 C 
BRANCH  17  18
ATOM     18  C   UNL     1       7.746   5.694  18.644  0.00  0.00    +0.000 C 
BRANCH  18  19
ATOM     19  C   UNL     1       6.462   5.541  19.462  0.00  0.00    +0.000 C 
BRANCH  19  20
ATOM     20  C   UNL     1       5.495   4.477  18.934  0.00  0.00    +0.000 C 
BRANCH  20  22
ATOM     21  C   UNL     1       4.517   5.568  16.882  0.00  0.00    +0.000 C 
ATOM     22  C   UNL     1       5.249   4.602  17.454  0.00  0.00    +0.000 C 
BRANCH  21  23
ATOM     23  C   UNL     1       3.880   6.667  17.671  0.00  0.00    +0.000 C 
BRANCH  23  24
ATOM     24  C   UNL     1       2.731   6.184  18.541  0.00  0.00    +0.000 C 
BRANCH  24  25
ATOM     25  C   UNL     1       1.886   5.192  17.746  0.00  0.00    +0.000 C 
BRANCH  25  26
ATOM     26  C   UNL     1       1.296   4.132  18.661  0.00  0.00    +0.000 C 
BRANCH  26  27
ATOM     27  C   UNL     1       2.036   4.098  19.994  0.00  0.00    +0.000 C 
BRANCH  27  28
ATOM     28  C   UNL     1       2.549   2.691  20.278  0.00  0.00    +0.000 C 
BRANCH  28  30
ATOM     29  C   UNL     1       3.638   1.376  18.445  0.00  0.00    +0.000 C 
ATOM     30  C   UNL     1       2.319   1.768  19.087  0.00  0.00    +0.000 C 
ENDBRANCH  28  30
ENDBRANCH  27  28
ENDBRANCH  26  27
ENDBRANCH  25  26
ENDBRANCH  24  25
ENDBRANCH  23  24
ENDBRANCH  21  23
ENDBRANCH  20  22
ENDBRANCH  19  20
ENDBRANCH  18  19
ENDBRANCH  17  18
ENDBRANCH   1  17
TORSDOF 17
ENDMDL
MODEL 8
REMARK VINA RESULT:      -6.1      2.687      4.716
REMARK  Name = 
REMARK  18 active torsions:
REMARK  status: ('A' for Active; 'I' for Inactive)
REMARK    1  A    between atoms: C_1  and  C_2
REMARK    2  A    between atoms: C_2  and  C_3
REMARK    3  A    between atoms: C_3  and  C_4
REMARK    4  A    between atoms: C_4  and  C_5
REMARK    5  A    between atoms: C_5  and  C_6
REMARK    6  A    between atoms: C_6  and  C_7
REMARK    7  A    between atoms: C_7  and  C_8
REMARK    8  A    between atoms: C_8  and  C_9
REMARK    9  A    between atoms: C_10  and  C_11
REMARK   10  A    between atoms: C_11  and  C_12
REMARK   11  A    between atoms: C_12  and  C_13
REMARK   12  A    between atoms: C_13  and  C_14
REMARK   13  A    between atoms: C_14  and  C_15
REMARK   14  A    between atoms: C_15  and  C_16
REMARK   15  A    between atoms: C_16  and  C_17
REMARK   16  A    between atoms: C_17  and  C_18
REMARK   17  A    between atoms: C_18  and  C_20
REMARK   18  A    between atoms: C_22  and  C_23
REMARK                            x       y       z     vdW  Elec       q    Type
REMARK                         _______ _______ _______ _____ _____    ______ ____
ROOT
ATOM      1  C   UNL     1       1.529   8.030  17.634  0.00  0.00    +0.000 C 
ENDROOT
BRANCH   1   2
ATOM      2  C   UNL     1       1.041   9.442  17.938  0.00  0.00    +0.000 C 
BRANCH   2   3
ATOM      3  C   UNL     1       2.152  10.343  18.462  0.00  0.00    +0.000 C 
BRANCH   3   4
ATOM      4  C   UNL     1       1.694  11.795  18.508  0.00  0.00    +0.000 C 
ATOM      5  O   UNL     1       2.441  12.706  18.135  0.00  0.00    +0.000 OA
BRANCH   4   6
ATOM      6  C   UNL     1       0.351  12.013  19.011  0.00  0.00    +0.000 A 
ATOM      7  N   UNL     1      -0.031  12.013  20.277  0.00  0.00    +0.000 NA
ATOM      8  C   UNL     1      -1.388  12.274  20.204  0.00  0.00    +0.000 A 
ATOM      9  C   UNL     1      -1.762  12.411  18.889  0.00  0.00    +0.000 A 
ATOM     10  O   UNL     1      -0.658  12.248  18.114  0.00  0.00    +0.000 OA
BRANCH   8  11
ATOM     11  C   UNL     1      -2.276  12.405  21.341  0.00  0.00    +0.000 A 
ATOM     12  C   UNL     1      -1.926  11.853  22.567  0.00  0.00    +0.000 A 
ATOM     13  C   UNL     1      -2.793  12.021  23.642  0.00  0.00    +0.000 A 
ATOM     14  C   UNL     1      -3.977  12.727  23.459  0.00  0.00    +0.000 A 
ATOM     15  C   UNL     1      -4.249  13.240  22.202  0.00  0.00    +0.000 A 
ATOM     16  N   UNL     1      -3.428  13.095  21.141  0.00  0.00    +0.000 NA
ENDBRANCH   8  11
ENDBRANCH   4   6
ENDBRANCH   3   4
ENDBRANCH   2   3
ENDBRANCH   1   2
BRANCH   1  17
ATOM     17  C   UNL     1       3.018   7.947  17.945  0.00  0.00    +0.000 C 
BRANCH  17  18
ATOM     18  C   UNL     1       3.381   6.692  18.731  0.00  0.00    +0.000 C 
BRANCH  18  19
ATOM     19  C   UNL     1       2.352   6.392  19.824  0.00  0.00    +0.000 C 
BRANCH  19  20
ATOM     20  C   UNL     1       2.560   5.055  20.543  0.00  0.00    +0.000 C 
BRANCH  20  22
ATOM     21  C   UNL     1       0.755   3.545  19.637  0.00  0.00    +0.000 C 
ATOM     22  C   UNL     1       1.292   4.248  20.642  0.00  0.00    +0.000 C 
BRANCH  21  23
ATOM     23  C   UNL     1       1.391   3.461  18.286  0.00  0.00    +0.000 C 
BRANCH  23  24
ATOM     24  C   UNL     1       2.182   2.180  18.080  0.00  0.00    +0.000 C 
BRANCH  24  25
ATOM     25  C   UNL     1       3.662   2.524  17.942  0.00  0.00    +0.000 C 
BRANCH  25  26
ATOM     26  C   UNL     1       3.867   3.621  16.911  0.00  0.00    +0.000 C 
BRANCH  26  27
ATOM     27  C   UNL     1       5.323   4.074  16.887  0.00  0.00    +0.000 C 
BRANCH  27  28
ATOM     28  C   UNL     1       5.462   5.364  16.086  0.00  0.00    +0.000 C 
BRANCH  28  30
ATOM     29  C   UNL     1       7.070   6.527  17.613  0.00  0.00    +0.000 C 
ATOM     30  C   UNL     1       6.861   5.952  16.224  0.00  0.00    +0.000 C 
ENDBRANCH  28  30
ENDBRANCH  27  28
ENDBRANCH  26  27
ENDBRANCH  25  26
ENDBRANCH  24  25
ENDBRANCH  23  24
ENDBRANCH  21  23
ENDBRANCH  20  22
ENDBRANCH  19  20
ENDBRANCH  18  19
ENDBRANCH  17  18
ENDBRANCH   1  17
TORSDOF 17
ENDMDL
MODEL 9
REMARK VINA RESULT:      -6.1      2.990      5.891
REMARK  Name = 
REMARK  18 active torsions:
REMARK  status: ('A' for Active; 'I' for Inactive)
REMARK    1  A    between atoms: C_1  and  C_2
REMARK    2  A    between atoms: C_2  and  C_3
REMARK    3  A    between atoms: C_3  and  C_4
REMARK    4  A    between atoms: C_4  and  C_5
REMARK    5  A    between atoms: C_5  and  C_6
REMARK    6  A    between atoms: C_6  and  C_7
REMARK    7  A    between atoms: C_7  and  C_8
REMARK    8  A    between atoms: C_8  and  C_9
REMARK    9  A    between atoms: C_10  and  C_11
REMARK   10  A    between atoms: C_11  and  C_12
REMARK   11  A    between atoms: C_12  and  C_13
REMARK   12  A    between atoms: C_13  and  C_14
REMARK   13  A    between atoms: C_14  and  C_15
REMARK   14  A    between atoms: C_15  and  C_16
REMARK   15  A    between atoms: C_16  and  C_17
REMARK   16  A    between atoms: C_17  and  C_18
REMARK   17  A    between atoms: C_18  and  C_20
REMARK   18  A    between atoms: C_22  and  C_23
REMARK                            x       y       z     vdW  Elec       q    Type
REMARK                         _______ _______ _______ _____ _____    ______ ____
ROOT
ATOM      1  C   UNL     1       1.596   8.674  19.529  0.00  0.00    +0.000 C 
ENDROOT
BRANCH   1   2
ATOM      2  C   UNL     1       0.629   9.853  19.525  0.00  0.00    +0.000 C 
BRANCH   2   3
ATOM      3  C   UNL     1       1.312  11.167  19.168  0.00  0.00    +0.000 C 
BRANCH   3   4
ATOM      4  C   UNL     1       1.258  12.140  20.338  0.00  0.00    +0.000 C 
ATOM      5  O   UNL     1       2.232  12.847  20.617  0.00  0.00    +0.000 OA
BRANCH   4   6
ATOM      6  C   UNL     1       0.009  12.165  21.075  0.00  0.00    +0.000 A 
ATOM      7  N   UNL     1      -1.142  12.672  20.667  0.00  0.00    +0.000 NA
ATOM      8  C   UNL     1      -1.994  12.430  21.731  0.00  0.00    +0.000 A 
ATOM      9  C   UNL     1      -1.309  11.795  22.738  0.00  0.00    +0.000 A 
ATOM     10  O   UNL     1      -0.024  11.616  22.331  0.00  0.00    +0.000 OA
BRANCH   8  11
ATOM     11  C   UNL     1      -3.400  12.776  21.770  0.00  0.00    +0.000 A 
ATOM     12  C   UNL     1      -4.011  13.341  20.658  0.00  0.00    +0.000 A 
ATOM     13  C   UNL     1      -5.369  13.636  20.725  0.00  0.00    +0.000 A 
ATOM     14  C   UNL     1      -6.069  13.363  21.895  0.00  0.00    +0.000 A 
ATOM     15  C   UNL     1      -5.380  12.804  22.958  0.00  0.00    +0.000 A 
ATOM     16  N   UNL     1      -4.065  12.505  22.923  0.00  0.00    +0.000 NA
ENDBRANCH   8  11
ENDBRANCH   4   6
ENDBRANCH   3   4
ENDBRANCH   2   3
ENDBRANCH   1   2
BRANCH   1  17
ATOM     17  C   UNL     1       2.107   8.452  18.112  0.00  0.00    +0.000 C 
BRANCH  17  18
ATOM     18  C   UNL     1       2.921   7.170  17.979  0.00  0.00    +0.000 C 
BRANCH  18  19
ATOM     19  C   UNL     1       4.204   7.395  17.175  0.00  0.00    +0.000 C 
BRANCH  19  20
ATOM     20  C   UNL     1       5.338   6.418  17.502  0.00  0.00    +0.000 C 
BRANCH  20  22
ATOM     21  C   UNL     1       4.624   4.330  18.724  0.00  0.00    +0.000 C 
ATOM     22  C   UNL     1       5.057   5.598  18.734  0.00  0.00    +0.000 C 
BRANCH  21  23
ATOM     23  C   UNL     1       4.398   3.569  17.456  0.00  0.00    +0.000 C 
BRANCH  23  24
ATOM     24  C   UNL     1       2.933   3.499  17.058  0.00  0.00    +0.000 C 
BRANCH  24  25
ATOM     25  C   UNL     1       2.334   2.199  17.587  0.00  0.00    +0.000 C 
BRANCH  25  26
ATOM     26  C   UNL     1       1.306   2.480  18.669  0.00  0.00    +0.000 C 
BRANCH  26  27
ATOM     27  C   UNL     1       1.808   2.002  20.027  0.00  0.00    +0.000 C 
BRANCH  27  28
ATOM     28  C   UNL     1       1.250   2.886  21.137  0.00  0.00    +0.000 C 
BRANCH  28  30
ATOM     29  C   UNL     1       1.642   5.333  20.775  0.00  0.00    +0.000 C 
ATOM     30  C   UNL     1       2.172   4.065  21.421  0.00  0.00    +0.000 C 
ENDBRANCH  28  30
ENDBRANCH  27  28
ENDBRANCH  26  27
ENDBRANCH  25  26
ENDBRANCH  24  25
ENDBRANCH  23  24
ENDBRANCH  21  23
ENDBRANCH  20  22
ENDBRANCH  19  20
ENDBRANCH  18  19
ENDBRANCH  17  18
ENDBRANCH   1  17
TORSDOF 17
ENDMDL
