MODEL 1
REMARK VINA RESULT:      -8.0      0.000      0.000
REMARK  Name = 
REMARK  5 active torsions:
REMARK  status: ('A' for Active; 'I' for Inactive)
REMARK    1  A    between atoms: C_2  and  C_4
REMARK    2  A    between atoms: N_12  and  C_13
REMARK    3  A    between atoms: N_16  and  C_17
REMARK    4  A    between atoms: C_17  and  C_18
REMARK    5  A    between atoms: C_21  and  C_22
REMARK                            x       y       z     vdW  Elec       q    Type
REMARK                         _______ _______ _______ _____ _____    ______ ____
ROOT
ATOM      1  C   UNL     1       1.996   3.677  19.462  0.00  0.00    +0.000 C 
ATOM      2  C   UNL     1       3.364   3.273  20.025  0.00  0.00    +0.000 C 
ATOM      3  C   UNL     1       4.476   3.541  19.009  0.00  0.00    +0.000 C 
ATOM      4  N   UNL     1       4.246   2.973  17.678  0.00  0.00    +0.000 NA
ATOM      5  C   UNL     1       2.882   3.135  17.160  0.00  0.00    +0.000 C 
ATOM      6  C   UNL     1       1.805   2.824  18.197  0.00  0.00    +0.000 C 
ENDROOT
BRANCH   1  15
ATOM      7  C   UNL     1       1.467   8.656  20.249  0.00  0.00    +0.000 A 
ATOM      8  C   UNL     1       1.640   9.767  19.403  0.00  0.00    +0.000 A 
ATOM      9  C   UNL     1       2.088   9.619  18.081  0.00  0.00    +0.000 A 
ATOM     10  C   UNL     1       2.350   8.354  17.556  0.00  0.00    +0.000 A 
ATOM     11  C   UNL     1       2.159   7.252  18.380  0.00  0.00    +0.000 A 
ATOM     12  C   UNL     1       1.748   7.408  19.708  0.00  0.00    +0.000 A 
ATOM     13  C   UNL     1       1.664   6.058  20.280  0.00  0.00    +0.000 C 
ATOM     14  O   UNL     1       1.484   5.828  21.460  0.00  0.00    +0.000 OA
ATOM     15  N   UNL     1       1.856   5.136  19.256  0.00  0.00    +0.000 N 
ATOM     16  C   UNL     1       2.324   5.806  18.049  0.00  0.00    +0.000 C 
BRANCH   7  18
ATOM     17  N   UNL     1      -0.333   8.591  21.922  0.00  0.00    +0.000 N 
ATOM     18  C   UNL     1       0.947   8.930  21.613  0.00  0.00    +0.000 C 
ATOM     19  O   UNL     1       1.670   9.436  22.465  0.00  0.00    +0.000 OA
ATOM     20  H   UNL     1      -0.688   8.924  22.806  0.00  0.00    +0.000 HD
ATOM     21  H   UNL     1      -1.033   8.424  21.200  0.00  0.00    +0.000 HD
ENDBRANCH   7  18
ENDBRANCH   1  15
BRANCH   4  22
ATOM     22  C   UNL     1       5.260   3.415  16.694  0.00  0.00    +0.000 C 
BRANCH  22  23
ATOM     23  C   UNL     1       5.981   4.722  17.000  0.00  0.00    +0.000 A 
ATOM     24  C   UNL     1       7.187   4.720  17.719  0.00  0.00    +0.000 A 
ATOM     25  C   UNL     1       7.840   5.916  18.029  0.00  0.00    +0.000 A 
ATOM     26  C   UNL     1       7.317   7.143  17.603  0.00  0.00    +0.000 A 
ATOM     27  C   UNL     1       6.109   7.150  16.890  0.00  0.00    +0.000 A 
ATOM     28  C   UNL     1       5.451   5.953  16.589  0.00  0.00    +0.000 A 
BRANCH  26  29
ATOM     29  C   UNL     1       8.048   8.437  17.866  0.00  0.00    +0.000 C 
ATOM     30  F   UNL     1       7.218   9.507  18.019  0.00  0.00    +0.000 F 
ATOM     31  F   UNL     1       8.796   8.385  19.003  0.00  0.00    +0.000 F 
ATOM     32  F   UNL     1       8.907   8.774  16.866  0.00  0.00    +0.000 F 
ENDBRANCH  26  29
ENDBRANCH  22  23
ENDBRANCH   4  22
TORSDOF 5
ENDMDL
MODEL 2
REMARK VINA RESULT:      -7.8      4.164      5.876
REMARK  Name = 
REMARK  5 active torsions:
REMARK  status: ('A' for Active; 'I' for Inactive)
REMARK    1  A    between atoms: C_2  and  C_4
REMARK    2  A    between atoms: N_12  and  C_13
REMARK    3  A    between atoms: N_16  and  C_17
REMARK    4  A    between atoms: C_17  and  C_18
REMARK    5  A    between atoms: C_21  and  C_22
REMARK                            x       y       z     vdW  Elec       q    Type
REMARK                         _______ _______ _______ _____ _____    ______ ____
ROOT
ATOM      1  C   UNL     1       0.853  10.903  19.588  0.00  0.00    +0.000 C 
ATOM      2  C   UNL     1       1.974  10.770  18.549  0.00  0.00    +0.000 C 
ATOM      3  C   UNL     1       2.005   9.362  17.951  0.00  0.00    +0.000 C 
ATOM      4  N   UNL     1       2.043   8.276  18.934  0.00  0.00    +0.000 NA
ATOM      5  C   UNL     1       1.142   8.443  20.081  0.00  0.00    +0.000 C 
ATOM      6  C   UNL     1       1.169   9.853  20.666  0.00  0.00    +0.000 C 
ENDROOT
BRANCH   1  15
ATOM      7  C   UNL     1      -4.044  11.683  18.542  0.00  0.00    +0.000 A 
ATOM      8  C   UNL     1      -4.860  11.255  17.479  0.00  0.00    +0.000 A 
ATOM      9  C   UNL     1      -4.341  10.505  16.412  0.00  0.00    +0.000 A 
ATOM     10  C   UNL     1      -2.996  10.137  16.389  0.00  0.00    +0.000 A 
ATOM     11  C   UNL     1      -2.191  10.538  17.447  0.00  0.00    +0.000 A 
ATOM     12  C   UNL     1      -2.705  11.316  18.490  0.00  0.00    +0.000 A 
ATOM     13  C   UNL     1      -1.591  11.566  19.414  0.00  0.00    +0.000 C 
ATOM     14  O   UNL     1      -1.644  12.337  20.352  0.00  0.00    +0.000 OA
ATOM     15  N   UNL     1      -0.502  10.805  19.002  0.00  0.00    +0.000 N 
ATOM     16  C   UNL     1      -0.747  10.240  17.681  0.00  0.00    +0.000 C 
BRANCH   7  18
ATOM     17  N   UNL     1      -4.339  13.715  19.894  0.00  0.00    +0.000 N 
ATOM     18  C   UNL     1      -4.711  12.433  19.636  0.00  0.00    +0.000 C 
ATOM     19  O   UNL     1      -5.609  11.912  20.290  0.00  0.00    +0.000 OA
ATOM     20  H   UNL     1      -4.712  14.135  20.733  0.00  0.00    +0.000 HD
ATOM     21  H   UNL     1      -3.446  14.089  19.573  0.00  0.00    +0.000 HD
ENDBRANCH   7  18
ENDBRANCH   1  15
BRANCH   4  22
ATOM     22  C   UNL     1       1.889   6.944  18.307  0.00  0.00    +0.000 C 
BRANCH  22  23
ATOM     23  C   UNL     1       3.152   6.310  17.738  0.00  0.00    +0.000 A 
ATOM     24  C   UNL     1       3.274   4.913  17.652  0.00  0.00    +0.000 A 
ATOM     25  C   UNL     1       4.439   4.323  17.158  0.00  0.00    +0.000 A 
ATOM     26  C   UNL     1       5.504   5.116  16.712  0.00  0.00    +0.000 A 
ATOM     27  C   UNL     1       5.390   6.511  16.802  0.00  0.00    +0.000 A 
ATOM     28  C   UNL     1       4.226   7.100  17.306  0.00  0.00    +0.000 A 
BRANCH  26  29
ATOM     29  C   UNL     1       6.740   4.495  16.108  0.00  0.00    +0.000 C 
ATOM     30  F   UNL     1       6.486   3.350  15.414  0.00  0.00    +0.000 F 
ATOM     31  F   UNL     1       7.360   5.330  15.227  0.00  0.00    +0.000 F 
ATOM     32  F   UNL     1       7.677   4.166  17.037  0.00  0.00    +0.000 F 
ENDBRANCH  26  29
ENDBRANCH  22  23
ENDBRANCH   4  22
TORSDOF 5
ENDMDL
MODEL 3
REMARK VINA RESULT:      -7.8      0.591      1.266
REMARK  Name = 
REMARK  5 active torsions:
REMARK  status: ('A' for Active; 'I' for Inactive)
REMARK    1  A    between atoms: C_2  and  C_4
REMARK    2  A    between atoms: N_12  and  C_13
REMARK    3  A    between atoms: N_16  and  C_17
REMARK    4  A    between atoms: C_17  and  C_18
REMARK    5  A    between atoms: C_21  and  C_22
REMARK                            x       y       z     vdW  Elec       q    Type
REMARK                         _______ _______ _______ _____ _____    ______ ____
ROOT
ATOM      1  C   UNL     1       2.062   3.532  19.414  0.00  0.00    +0.000 C 
ATOM      2  C   UNL     1       3.439   3.149  19.970  0.00  0.00    +0.000 C 
ATOM      3  C   UNL     1       4.544   3.445  18.953  0.00  0.00    +0.000 C 
ATOM      4  N   UNL     1       4.320   2.882  17.619  0.00  0.00    +0.000 NA
ATOM      5  C   UNL     1       2.952   3.020  17.106  0.00  0.00    +0.000 C 
ATOM      6  C   UNL     1       1.884   2.683  18.144  0.00  0.00    +0.000 C 
ENDROOT
BRANCH   1  15
ATOM      7  C   UNL     1       1.459   8.497  20.234  0.00  0.00    +0.000 A 
ATOM      8  C   UNL     1       1.601   9.615  19.392  0.00  0.00    +0.000 A 
ATOM      9  C   UNL     1       2.033   9.482  18.063  0.00  0.00    +0.000 A 
ATOM     10  C   UNL     1       2.309   8.224  17.528  0.00  0.00    +0.000 A 
ATOM     11  C   UNL     1       2.149   7.114  18.348  0.00  0.00    +0.000 A 
ATOM     12  C   UNL     1       1.754   7.256  19.682  0.00  0.00    +0.000 A 
ATOM     13  C   UNL     1       1.701   5.902  20.248  0.00  0.00    +0.000 C 
ATOM     14  O   UNL     1       1.542   5.663  21.430  0.00  0.00    +0.000 OA
ATOM     15  N   UNL     1       1.894   4.989  19.217  0.00  0.00    +0.000 N 
ATOM     16  C   UNL     1       2.334   5.673  18.008  0.00  0.00    +0.000 C 
BRANCH   7  18
ATOM     17  N   UNL     1       1.834   9.050  22.600  0.00  0.00    +0.000 N 
ATOM     18  C   UNL     1       0.954   8.754  21.606  0.00  0.00    +0.000 C 
ATOM     19  O   UNL     1      -0.250   8.725  21.842  0.00  0.00    +0.000 OA
ATOM     20  H   UNL     1       1.465   9.074  23.539  0.00  0.00    +0.000 HD
ATOM     21  H   UNL     1       2.826   8.827  22.521  0.00  0.00    +0.000 HD
ENDBRANCH   7  18
ENDBRANCH   1  15
BRANCH   4  22
ATOM     22  C   UNL     1       5.323   3.349  16.636  0.00  0.00    +0.000 C 
BRANCH  22  23
ATOM     23  C   UNL     1       6.027   4.661  16.953  0.00  0.00    +0.000 A 
ATOM     24  C   UNL     1       5.535   5.876  16.449  0.00  0.00    +0.000 A 
ATOM     25  C   UNL     1       6.192   7.081  16.712  0.00  0.00    +0.000 A 
ATOM     26  C   UNL     1       7.344   7.105  17.509  0.00  0.00    +0.000 A 
ATOM     27  C   UNL     1       7.843   5.893  18.009  0.00  0.00    +0.000 A 
ATOM     28  C   UNL     1       7.190   4.687  17.737  0.00  0.00    +0.000 A 
BRANCH  26  29
ATOM     29  C   UNL     1       8.022   8.406  17.862  0.00  0.00    +0.000 C 
ATOM     30  F   UNL     1       8.778   8.333  18.994  0.00  0.00    +0.000 F 
ATOM     31  F   UNL     1       8.867   8.830  16.881  0.00  0.00    +0.000 F 
ATOM     32  F   UNL     1       7.143   9.423  18.068  0.00  0.00    +0.000 F 
ENDBRANCH  26  29
ENDBRANCH  22  23
ENDBRANCH   4  22
TORSDOF 5
ENDMDL
MODEL 4
REMARK VINA RESULT:      -7.8      5.886      8.771
REMARK  Name = 
REMARK  5 active torsions:
REMARK  status: ('A' for Active; 'I' for Inactive)
REMARK    1  A    between atoms: C_2  and  C_4
REMARK    2  A    between atoms: N_12  and  C_13
REMARK    3  A    between atoms: N_16  and  C_17
REMARK    4  A    between atoms: C_17  and  C_18
REMARK    5  A    between atoms: C_21  and  C_22
REMARK                            x       y       z     vdW  Elec       q    Type
REMARK                         _______ _______ _______ _____ _____    ______ ____
ROOT
ATOM      1  C   UNL     1      -1.753  12.605  23.100  0.00  0.00    +0.000 C 
ATOM      2  C   UNL     1      -0.616  13.399  22.445  0.00  0.00    +0.000 C 
ATOM      3  C   UNL     1      -0.337  12.892  21.029  0.00  0.00    +0.000 C 
ATOM      4  N   UNL     1      -0.124  11.446  20.922  0.00  0.00    +0.000 NA
ATOM      5  C   UNL     1      -1.051  10.620  21.705  0.00  0.00    +0.000 C 
ATOM      6  C   UNL     1      -1.272  11.144  23.122  0.00  0.00    +0.000 C 
ENDROOT
BRANCH   1  15
ATOM      7  C   UNL     1      -6.734  12.993  22.249  0.00  0.00    +0.000 A 
ATOM      8  C   UNL     1      -7.467  13.560  21.190  0.00  0.00    +0.000 A 
ATOM      9  C   UNL     1      -6.830  14.219  20.127  0.00  0.00    +0.000 A 
ATOM     10  C   UNL     1      -5.439  14.307  20.076  0.00  0.00    +0.000 A 
ATOM     11  C   UNL     1      -4.709  13.729  21.107  0.00  0.00    +0.000 A 
ATOM     12  C   UNL     1      -5.351  13.106  22.182  0.00  0.00    +0.000 A 
ATOM     13  C   UNL     1      -4.291  12.628  23.080  0.00  0.00    +0.000 C 
ATOM     14  O   UNL     1      -4.492  12.174  24.190  0.00  0.00    +0.000 OA
ATOM     15  N   UNL     1      -3.066  12.819  22.452  0.00  0.00    +0.000 N 
ATOM     16  C   UNL     1      -3.227  13.647  21.263  0.00  0.00    +0.000 C 
BRANCH   7  18
ATOM     17  N   UNL     1      -7.780  10.959  23.149  0.00  0.00    +0.000 N 
ATOM     18  C   UNL     1      -7.512  12.284  23.296  0.00  0.00    +0.000 C 
ATOM     19  O   UNL     1      -7.892  12.879  24.299  0.00  0.00    +0.000 OA
ATOM     20  H   UNL     1      -8.431  10.554  23.806  0.00  0.00    +0.000 HD
ATOM     21  H   UNL     1      -7.725  10.499  22.241  0.00  0.00    +0.000 HD
ENDBRANCH   7  18
ENDBRANCH   1  15
BRANCH   4  22
ATOM     22  C   UNL     1      -0.041  10.992  19.515  0.00  0.00    +0.000 C 
BRANCH  22  23
ATOM     23  C   UNL     1       0.821   9.765  19.246  0.00  0.00    +0.000 A 
ATOM     24  C   UNL     1       1.108   8.854  20.276  0.00  0.00    +0.000 A 
ATOM     25  C   UNL     1       1.922   7.742  20.044  0.00  0.00    +0.000 A 
ATOM     26  C   UNL     1       2.447   7.498  18.769  0.00  0.00    +0.000 A 
ATOM     27  C   UNL     1       2.168   8.408  17.739  0.00  0.00    +0.000 A 
ATOM     28  C   UNL     1       1.362   9.526  17.975  0.00  0.00    +0.000 A 
BRANCH  26  29
ATOM     29  C   UNL     1       3.266   6.262  18.486  0.00  0.00    +0.000 C 
ATOM     30  F   UNL     1       4.050   5.881  19.533  0.00  0.00    +0.000 F 
ATOM     31  F   UNL     1       2.488   5.182  18.195  0.00  0.00    +0.000 F 
ATOM     32  F   UNL     1       4.108   6.415  17.428  0.00  0.00    +0.000 F 
ENDBRANCH  26  29
ENDBRANCH  22  23
ENDBRANCH   4  22
TORSDOF 5
ENDMDL
MODEL 5
REMARK VINA RESULT:      -7.6      4.240      6.046
REMARK  Name = 
REMARK  5 active torsions:
REMARK  status: ('A' for Active; 'I' for Inactive)
REMARK    1  A    between atoms: C_2  and  C_4
REMARK    2  A    between atoms: N_12  and  C_13
REMARK    3  A    between atoms: N_16  and  C_17
REMARK    4  A    between atoms: C_17  and  C_18
REMARK    5  A    between atoms: C_21  and  C_22
REMARK                            x       y       z     vdW  Elec       q    Type
REMARK                         _______ _______ _______ _____ _____    ______ ____
ROOT
ATOM      1  C   UNL     1       0.788  11.201  19.649  0.00  0.00    +0.000 C 
ATOM      2  C   UNL     1       1.837  11.020  18.546  0.00  0.00    +0.000 C 
ATOM      3  C   UNL     1       1.829   9.587  18.009  0.00  0.00    +0.000 C 
ATOM      4  N   UNL     1       1.931   8.544  19.034  0.00  0.00    +0.000 NA
ATOM      5  C   UNL     1       1.108   8.763  20.229  0.00  0.00    +0.000 C 
ATOM      6  C   UNL     1       1.174  10.197  20.750  0.00  0.00    +0.000 C 
ENDROOT
BRANCH   1  15
ATOM      7  C   UNL     1      -4.183  11.900  18.953  0.00  0.00    +0.000 A 
ATOM      8  C   UNL     1      -5.064  11.464  17.946  0.00  0.00    +0.000 A 
ATOM      9  C   UNL     1      -4.608  10.731  16.840  0.00  0.00    +0.000 A 
ATOM     10  C   UNL     1      -3.262  10.387  16.721  0.00  0.00    +0.000 A 
ATOM     11  C   UNL     1      -2.391  10.795  17.724  0.00  0.00    +0.000 A 
ATOM     12  C   UNL     1      -2.845  11.558  18.805  0.00  0.00    +0.000 A 
ATOM     13  C   UNL     1      -1.674  11.821  19.651  0.00  0.00    +0.000 C 
ATOM     14  O   UNL     1      -1.674  12.585  20.597  0.00  0.00    +0.000 OA
ATOM     15  N   UNL     1      -0.603  11.082  19.159  0.00  0.00    +0.000 N 
ATOM     16  C   UNL     1      -0.929  10.522  17.854  0.00  0.00    +0.000 C 
BRANCH   7  18
ATOM     17  N   UNL     1      -4.616  13.976  20.197  0.00  0.00    +0.000 N 
ATOM     18  C   UNL     1      -4.786  12.630  20.097  0.00  0.00    +0.000 C 
ATOM     19  O   UNL     1      -5.452  12.033  20.936  0.00  0.00    +0.000 OA
ATOM     20  H   UNL     1      -4.916  14.407  21.059  0.00  0.00    +0.000 HD
ATOM     21  H   UNL     1      -3.873  14.461  19.696  0.00  0.00    +0.000 HD
ENDBRANCH   7  18
ENDBRANCH   1  15
BRANCH   4  22
ATOM     22  C   UNL     1       1.735   7.187  18.477  0.00  0.00    +0.000 C 
BRANCH  22  23
ATOM     23  C   UNL     1       2.967   6.506  17.896  0.00  0.00    +0.000 A 
ATOM     24  C   UNL     1       4.027   7.267  17.377  0.00  0.00    +0.000 A 
ATOM     25  C   UNL     1       5.148   6.650  16.816  0.00  0.00    +0.000 A 
ATOM     26  C   UNL     1       5.250   5.253  16.785  0.00  0.00    +0.000 A 
ATOM     27  C   UNL     1       4.191   4.488  17.296  0.00  0.00    +0.000 A 
ATOM     28  C   UNL     1       3.066   5.108  17.848  0.00  0.00    +0.000 A 
BRANCH  26  29
ATOM     29  C   UNL     1       6.487   4.573  16.250  0.00  0.00    +0.000 C 
ATOM     30  F   UNL     1       7.234   5.371  15.435  0.00  0.00    +0.000 F 
ATOM     31  F   UNL     1       7.327   4.172  17.245  0.00  0.00    +0.000 F 
ATOM     32  F   UNL     1       6.206   3.459  15.523  0.00  0.00    +0.000 F 
ENDBRANCH  26  29
ENDBRANCH  22  23
ENDBRANCH   4  22
TORSDOF 5
ENDMDL
MODEL 6
REMARK VINA RESULT:      -7.6      4.995      7.595
REMARK  Name = 
REMARK  5 active torsions:
REMARK  status: ('A' for Active; 'I' for Inactive)
REMARK    1  A    between atoms: C_2  and  C_4
REMARK    2  A    between atoms: N_12  and  C_13
REMARK    3  A    between atoms: N_16  and  C_17
REMARK    4  A    between atoms: C_17  and  C_18
REMARK    5  A    between atoms: C_21  and  C_22
REMARK                            x       y       z     vdW  Elec       q    Type
REMARK                         _______ _______ _______ _____ _____    ______ ____
ROOT
ATOM      1  C   UNL     1      -0.139  11.775  19.649  0.00  0.00    +0.000 C 
ATOM      2  C   UNL     1      -0.633  10.920  20.822  0.00  0.00    +0.000 C 
ATOM      3  C   UNL     1       0.400   9.857  21.201  0.00  0.00    +0.000 C 
ATOM      4  N   UNL     1       0.873   9.032  20.087  0.00  0.00    +0.000 NA
ATOM      5  C   UNL     1       1.163   9.764  18.848  0.00  0.00    +0.000 C 
ATOM      6  C   UNL     1       0.089  10.789  18.491  0.00  0.00    +0.000 C 
ENDROOT
BRANCH   1  15
ATOM      7  C   UNL     1       3.899  14.822  19.332  0.00  0.00    +0.000 A 
ATOM      8  C   UNL     1       4.596  15.567  20.302  0.00  0.00    +0.000 A 
ATOM      9  C   UNL     1       4.175  15.603  21.640  0.00  0.00    +0.000 A 
ATOM     10  C   UNL     1       3.061  14.875  22.055  0.00  0.00    +0.000 A 
ATOM     11  C   UNL     1       2.382  14.120  21.107  0.00  0.00    +0.000 A 
ATOM     12  C   UNL     1       2.784  14.117  19.767  0.00  0.00    +0.000 A 
ATOM     13  C   UNL     1       1.849  13.238  19.053  0.00  0.00    +0.000 C 
ATOM     14  O   UNL     1       1.809  13.125  17.843  0.00  0.00    +0.000 OA
ATOM     15  N   UNL     1       1.031  12.615  19.990  0.00  0.00    +0.000 N 
ATOM     16  C   UNL     1       1.201  13.229  21.301  0.00  0.00    +0.000 C 
BRANCH   7  18
ATOM     17  N   UNL     1       3.746  15.373  16.941  0.00  0.00    +0.000 N 
ATOM     18  C   UNL     1       4.461  14.823  17.958  0.00  0.00    +0.000 C 
ATOM     19  O   UNL     1       5.573  14.353  17.740  0.00  0.00    +0.000 OA
ATOM     20  H   UNL     1       4.097  15.224  16.007  0.00  0.00    +0.000 HD
ATOM     21  H   UNL     1       2.740  15.526  17.015  0.00  0.00    +0.000 HD
ENDBRANCH   7  18
ENDBRANCH   1  15
BRANCH   4  22
ATOM     22  C   UNL     1       1.996   8.150  20.476  0.00  0.00    +0.000 C 
BRANCH  22  23
ATOM     23  C   UNL     1       1.950   6.719  19.956  0.00  0.00    +0.000 A 
ATOM     24  C   UNL     1       2.366   6.420  18.649  0.00  0.00    +0.000 A 
ATOM     25  C   UNL     1       2.300   5.115  18.155  0.00  0.00    +0.000 A 
ATOM     26  C   UNL     1       1.841   4.069  18.966  0.00  0.00    +0.000 A 
ATOM     27  C   UNL     1       1.418   4.364  20.271  0.00  0.00    +0.000 A 
ATOM     28  C   UNL     1       1.475   5.673  20.760  0.00  0.00    +0.000 A 
BRANCH  26  29
ATOM     29  C   UNL     1       1.833   2.643  18.472  0.00  0.00    +0.000 C 
ATOM     30  F   UNL     1       0.606   2.053  18.542  0.00  0.00    +0.000 F 
ATOM     31  F   UNL     1       2.214   2.547  17.167  0.00  0.00    +0.000 F 
ATOM     32  F   UNL     1       2.674   1.835  19.170  0.00  0.00    +0.000 F 
ENDBRANCH  26  29
ENDBRANCH  22  23
ENDBRANCH   4  22
TORSDOF 5
ENDMDL
MODEL 7
REMARK VINA RESULT:      -7.6      5.778      8.662
REMARK  Name = 
REMARK  5 active torsions:
REMARK  status: ('A' for Active; 'I' for Inactive)
REMARK    1  A    between atoms: C_2  and  C_4
REMARK    2  A    between atoms: N_12  and  C_13
REMARK    3  A    between atoms: N_16  and  C_17
REMARK    4  A    between atoms: C_17  and  C_18
REMARK    5  A    between atoms: C_21  and  C_22
REMARK                            x       y       z     vdW  Elec       q    Type
REMARK                         _______ _______ _______ _____ _____    ______ ____
ROOT
ATOM      1  C   UNL     1      -1.738  12.451  23.034  0.00  0.00    +0.000 C 
ATOM      2  C   UNL     1      -0.655  13.331  22.398  0.00  0.00    +0.000 C 
ATOM      3  C   UNL     1      -0.313  12.847  20.987  0.00  0.00    +0.000 C 
ATOM      4  N   UNL     1       0.016  11.422  20.888  0.00  0.00    +0.000 NA
ATOM      5  C   UNL     1      -0.858  10.527  21.656  0.00  0.00    +0.000 C 
ATOM      6  C   UNL     1      -1.144  11.033  23.067  0.00  0.00    +0.000 C 
ENDROOT
BRANCH   1  15
ATOM      7  C   UNL     1      -6.720  12.696  22.139  0.00  0.00    +0.000 A 
ATOM      8  C   UNL     1      -7.456  13.092  21.006  0.00  0.00    +0.000 A 
ATOM      9  C   UNL     1      -6.821  13.580  19.853  0.00  0.00    +0.000 A 
ATOM     10  C   UNL     1      -5.430  13.661  19.788  0.00  0.00    +0.000 A 
ATOM     11  C   UNL     1      -4.698  13.250  20.895  0.00  0.00    +0.000 A 
ATOM     12  C   UNL     1      -5.338  12.799  22.054  0.00  0.00    +0.000 A 
ATOM     13  C   UNL     1      -4.276  12.467  23.014  0.00  0.00    +0.000 C 
ATOM     14  O   UNL     1      -4.475  12.189  24.181  0.00  0.00    +0.000 OA
ATOM     15  N   UNL     1      -3.052  12.561  22.362  0.00  0.00    +0.000 N 
ATOM     16  C   UNL     1      -3.215  13.195  21.060  0.00  0.00    +0.000 C 
BRANCH   7  18
ATOM     17  N   UNL     1      -7.894  10.855  23.269  0.00  0.00    +0.000 N 
ATOM     18  C   UNL     1      -7.496  12.155  23.283  0.00  0.00    +0.000 C 
ATOM     19  O   UNL     1      -7.759  12.865  24.248  0.00  0.00    +0.000 OA
ATOM     20  H   UNL     1      -8.539  10.570  23.992  0.00  0.00    +0.000 HD
ATOM     21  H   UNL     1      -7.936  10.317  22.403  0.00  0.00    +0.000 HD
ENDBRANCH   7  18
ENDBRANCH   1  15
BRANCH   4  22
ATOM     22  C   UNL     1       0.159  10.974  19.484  0.00  0.00    +0.000 C 
BRANCH  22  23
ATOM     23  C   UNL     1       0.968   9.704  19.254  0.00  0.00    +0.000 A 
ATOM     24  C   UNL     1       1.522   9.428  17.994  0.00  0.00    +0.000 A 
ATOM     25  C   UNL     1       2.240   8.251  17.768  0.00  0.00    +0.000 A 
ATOM     26  C   UNL     1       2.446   7.332  18.805  0.00  0.00    +0.000 A 
ATOM     27  C   UNL     1       1.888   7.600  20.063  0.00  0.00    +0.000 A 
ATOM     28  C   UNL     1       1.161   8.774  20.286  0.00  0.00    +0.000 A 
BRANCH  26  29
ATOM     29  C   UNL     1       3.281   6.093  18.595  0.00  0.00    +0.000 C 
ATOM     30  F   UNL     1       2.572   4.935  18.717  0.00  0.00    +0.000 F 
ATOM     31  F   UNL     1       3.842   6.052  17.354  0.00  0.00    +0.000 F 
ATOM     32  F   UNL     1       4.311   5.992  19.477  0.00  0.00    +0.000 F 
ENDBRANCH  26  29
ENDBRANCH  22  23
ENDBRANCH   4  22
TORSDOF 5
ENDMDL
MODEL 8
REMARK VINA RESULT:      -7.6      5.161      7.949
REMARK  Name = 
REMARK  5 active torsions:
REMARK  status: ('A' for Active; 'I' for Inactive)
REMARK    1  A    between atoms: C_2  and  C_4
REMARK    2  A    between atoms: N_12  and  C_13
REMARK    3  A    between atoms: N_16  and  C_17
REMARK    4  A    between atoms: C_17  and  C_18
REMARK    5  A    between atoms: C_21  and  C_22
REMARK                            x       y       z     vdW  Elec       q    Type
REMARK                         _______ _______ _______ _____ _____    ______ ____
ROOT
ATOM      1  C   UNL     1      -1.287  12.652  18.712  0.00  0.00    +0.000 C 
ATOM      2  C   UNL     1      -1.495  11.249  18.131  0.00  0.00    +0.000 C 
ATOM      3  C   UNL     1      -0.883  10.182  19.041  0.00  0.00    +0.000 C 
ATOM      4  N   UNL     1       0.515  10.416  19.411  0.00  0.00    +0.000 NA
ATOM      5  C   UNL     1       0.840  11.800  19.775  0.00  0.00    +0.000 C 
ATOM      6  C   UNL     1       0.237  12.829  18.821  0.00  0.00    +0.000 C 
ENDROOT
BRANCH   1  15
ATOM      7  C   UNL     1      -4.939  12.823  22.222  0.00  0.00    +0.000 A 
ATOM      8  C   UNL     1      -4.902  13.050  23.610  0.00  0.00    +0.000 A 
ATOM      9  C   UNL     1      -3.688  13.229  24.292  0.00  0.00    +0.000 A 
ATOM     10  C   UNL     1      -2.476  13.214  23.601  0.00  0.00    +0.000 A 
ATOM     11  C   UNL     1      -2.508  13.013  22.227  0.00  0.00    +0.000 A 
ATOM     12  C   UNL     1      -3.719  12.799  21.559  0.00  0.00    +0.000 A 
ATOM     13  C   UNL     1      -3.385  12.611  20.141  0.00  0.00    +0.000 C 
ATOM     14  O   UNL     1      -4.181  12.250  19.296  0.00  0.00    +0.000 OA
ATOM     15  N   UNL     1      -2.032  12.881  19.970  0.00  0.00    +0.000 N 
ATOM     16  C   UNL     1      -1.369  12.998  21.263  0.00  0.00    +0.000 C 
BRANCH   7  18
ATOM     17  N   UNL     1      -6.693  11.478  21.146  0.00  0.00    +0.000 N 
ATOM     18  C   UNL     1      -6.282  12.691  21.603  0.00  0.00    +0.000 C 
ATOM     19  O   UNL     1      -7.029  13.661  21.523  0.00  0.00    +0.000 OA
ATOM     20  H   UNL     1      -7.546  11.463  20.606  0.00  0.00    +0.000 HD
ATOM     21  H   UNL     1      -6.032  10.728  20.949  0.00  0.00    +0.000 HD
ENDBRANCH   7  18
ENDBRANCH   1  15
BRANCH   4  22
ATOM     22  C   UNL     1       0.995   9.456  20.431  0.00  0.00    +0.000 C 
BRANCH  22  23
ATOM     23  C   UNL     1       1.624   8.169  19.912  0.00  0.00    +0.000 A 
ATOM     24  C   UNL     1       2.226   8.129  18.643  0.00  0.00    +0.000 A 
ATOM     25  C   UNL     1       2.780   6.946  18.148  0.00  0.00    +0.000 A 
ATOM     26  C   UNL     1       2.770   5.778  18.921  0.00  0.00    +0.000 A 
ATOM     27  C   UNL     1       2.164   5.811  20.185  0.00  0.00    +0.000 A 
ATOM     28  C   UNL     1       1.601   6.994  20.675  0.00  0.00    +0.000 A 
BRANCH  26  29
ATOM     29  C   UNL     1       3.429   4.512  18.430  0.00  0.00    +0.000 C 
ATOM     30  F   UNL     1       4.753   4.434  18.744  0.00  0.00    +0.000 F 
ATOM     31  F   UNL     1       2.857   3.394  18.958  0.00  0.00    +0.000 F 
ATOM     32  F   UNL     1       3.359   4.367  17.079  0.00  0.00    +0.000 F 
ENDBRANCH  26  29
ENDBRANCH  22  23
ENDBRANCH   4  22
TORSDOF 5
ENDMDL
MODEL 9
REMARK VINA RESULT:      -7.6      5.053      7.189
REMARK  Name = 
REMARK  5 active torsions:
REMARK  status: ('A' for Active; 'I' for Inactive)
REMARK    1  A    between atoms: C_2  and  C_4
REMARK    2  A    between atoms: N_12  and  C_13
REMARK    3  A    between atoms: N_16  and  C_17
REMARK    4  A    between atoms: C_17  and  C_18
REMARK    5  A    between atoms: C_21  and  C_22
REMARK                            x       y       z     vdW  Elec       q    Type
REMARK                         _______ _______ _______ _____ _____    ______ ____
ROOT
ATOM      1  C   UNL     1       0.407  11.376  19.940  0.00  0.00    +0.000 C 
ATOM      2  C   UNL     1       1.623  11.629  19.040  0.00  0.00    +0.000 C 
ATOM      3  C   UNL     1       1.938  10.400  18.185  0.00  0.00    +0.000 C 
ATOM      4  N   UNL     1       2.065   9.146  18.932  0.00  0.00    +0.000 NA
ATOM      5  C   UNL     1       1.050   8.934  19.971  0.00  0.00    +0.000 C 
ATOM      6  C   UNL     1       0.793  10.176  20.821  0.00  0.00    +0.000 C 
ENDROOT
BRANCH   1  15
ATOM      7  C   UNL     1      -4.386  11.828  18.357  0.00  0.00    +0.000 A 
ATOM      8  C   UNL     1      -5.030  11.423  17.173  0.00  0.00    +0.000 A 
ATOM      9  C   UNL     1      -4.322  10.811  16.127  0.00  0.00    +0.000 A 
ATOM     10  C   UNL     1      -2.956  10.560  16.244  0.00  0.00    +0.000 A 
ATOM     11  C   UNL     1      -2.319  10.937  17.420  0.00  0.00    +0.000 A 
ATOM     12  C   UNL     1      -3.022  11.580  18.444  0.00  0.00    +0.000 A 
ATOM     13  C   UNL     1      -2.052  11.844  19.514  0.00  0.00    +0.000 C 
ATOM     14  O   UNL     1      -2.285  12.528  20.492  0.00  0.00    +0.000 OA
ATOM     15  N   UNL     1      -0.856  11.214  19.186  0.00  0.00    +0.000 N 
ATOM     16  C   UNL     1      -0.891  10.743  17.807  0.00  0.00    +0.000 C 
BRANCH   7  18
ATOM     17  N   UNL     1      -5.149  13.756  19.678  0.00  0.00    +0.000 N 
ATOM     18  C   UNL     1      -5.244  12.426  19.412  0.00  0.00    +0.000 C 
ATOM     19  O   UNL     1      -6.049  11.734  20.025  0.00  0.00    +0.000 OA
ATOM     20  H   UNL     1      -5.640  14.090  20.494  0.00  0.00    +0.000 HD
ATOM     21  H   UNL     1      -4.335  14.302  19.398  0.00  0.00    +0.000 HD
ENDBRANCH   7  18
ENDBRANCH   1  15
BRANCH   4  22
ATOM     22  C   UNL     1       2.189   7.970  18.041  0.00  0.00    +0.000 C 
BRANCH  22  23
ATOM     23  C   UNL     1       2.140   6.602  18.709  0.00  0.00    +0.000 A 
ATOM     24  C   UNL     1       1.892   5.446  17.952  0.00  0.00    +0.000 A 
ATOM     25  C   UNL     1       1.817   4.191  18.561  0.00  0.00    +0.000 A 
ATOM     26  C   UNL     1       2.014   4.056  19.941  0.00  0.00    +0.000 A 
ATOM     27  C   UNL     1       2.254   5.209  20.703  0.00  0.00    +0.000 A 
ATOM     28  C   UNL     1       2.320   6.466  20.093  0.00  0.00    +0.000 A 
BRANCH  26  29
ATOM     29  C   UNL     1       2.008   2.700  20.602  0.00  0.00    +0.000 C 
ATOM     30  F   UNL     1       3.213   2.354  21.138  0.00  0.00    +0.000 F 
ATOM     31  F   UNL     1       1.114   2.629  21.628  0.00  0.00    +0.000 F 
ATOM     32  F   UNL     1       1.680   1.694  19.747  0.00  0.00    +0.000 F 
ENDBRANCH  26  29
ENDBRANCH  22  23
ENDBRANCH   4  22
TORSDOF 5
ENDMDL
