MODEL 1
REMARK VINA RESULT:      -7.6      0.000      0.000
REMARK  Name = 
REMARK  7 active torsions:
REMARK  status: ('A' for Active; 'I' for Inactive)
REMARK    1  A    between atoms: C_2  and  C_3
REMARK    2  A    between atoms: C_3  and  C_4
REMARK    3  A    between atoms: C_4  and  N_5
REMARK    4  A    between atoms: N_8  and  C_9
REMARK    5  A    between atoms: C_9  and  C_10
REMARK    6  A    between atoms: C_14  and  C_15
REMARK    7  A    between atoms: C_18  and  C_19
REMARK                            x       y       z     vdW  Elec       q    Type
REMARK                         _______ _______ _______ _____ _____    ______ ____
ROOT
ATOM      1  C   UNL     1       3.893   5.398  19.543  0.00  0.00    +0.000 A 
ATOM      2  C   UNL     1       3.244   4.340  20.190  0.00  0.00    +0.000 A 
ATOM      3  C   UNL     1       2.011   4.547  20.800  0.00  0.00    +0.000 A 
ATOM      4  C   UNL     1       1.433   5.820  20.784  0.00  0.00    +0.000 A 
ATOM      5  C   UNL     1       2.064   6.899  20.141  0.00  0.00    +0.000 A 
ATOM      6  C   UNL     1       3.285   6.663  19.504  0.00  0.00    +0.000 A 
ENDROOT
BRANCH   5   7
ATOM      7  C   UNL     1       1.532   8.266  20.282  0.00  0.00    +0.000 A 
ATOM      8  C   UNL     1       1.276   9.148  19.252  0.00  0.00    +0.000 A 
ATOM      9  C   UNL     1       0.656  10.334  19.699  0.00  0.00    +0.000 A 
ATOM     10  C   UNL     1       0.443  10.357  21.064  0.00  0.00    +0.000 A 
ATOM     11  S   UNL     1       1.072   8.955  21.802  0.00  0.00    +0.000 S 
BRANCH  10  12
ATOM     12  C   UNL     1      -0.239  11.443  21.704  0.00  0.00    +0.000 A 
ATOM     13  N   UNL     1       0.303  12.645  21.726  0.00  0.00    +0.000 NA
ATOM     14  C   UNL     1      -0.531  13.424  22.464  0.00  0.00    +0.000 A 
ATOM     15  C   UNL     1      -0.375  14.768  22.815  0.00  0.00    +0.000 A 
ATOM     16  C   UNL     1      -1.340  15.360  23.628  0.00  0.00    +0.000 A 
ATOM     17  C   UNL     1      -2.440  14.621  24.071  0.00  0.00    +0.000 A 
ATOM     18  C   UNL     1      -2.623  13.274  23.710  0.00  0.00    +0.000 A 
ATOM     19  C   UNL     1      -1.634  12.702  22.899  0.00  0.00    +0.000 A 
ATOM     20  N   UNL     1      -1.446  11.441  22.361  0.00  0.00    +0.000 N 
ATOM     21  H   UNL     1      -2.061  10.653  22.465  0.00  0.00    +0.000 HD
ENDBRANCH  10  12
ENDBRANCH   5   7
BRANCH   1  22
ATOM     22  C   UNL     1       5.271   5.226  18.951  0.00  0.00    +0.000 C 
BRANCH  22  26
ATOM     23  N   UNL     1       6.573   3.917  15.658  0.00  0.00    +0.000 NA
ATOM     24  C   UNL     1       7.410   4.562  16.695  0.00  0.00    +0.000 C 
ATOM     25  C   UNL     1       6.876   5.913  17.230  0.00  0.00    +0.000 C 
ATOM     26  N   UNL     1       5.461   5.907  17.662  0.00  0.00    +0.000 NA
ATOM     27  C   UNL     1       4.632   5.252  16.628  0.00  0.00    +0.000 C 
ATOM     28  C   UNL     1       5.174   3.880  16.148  0.00  0.00    +0.000 C 
BRANCH  23  29
ATOM     29  C   UNL     1       6.629   4.596  14.346  0.00  0.00    +0.000 C 
BRANCH  29  30
ATOM     30  C   UNL     1       5.630   4.066  13.312  0.00  0.00    +0.000 C 
BRANCH  30  32
ATOM     31  N   UNL     1       6.892   2.578  11.550  0.00  0.00    +0.000 NA
ATOM     32  C   UNL     1       6.327   3.237  12.319  0.00  0.00    +0.000 C 
ENDBRANCH  30  32
ENDBRANCH  29  30
ENDBRANCH  23  29
ENDBRANCH  22  26
ENDBRANCH   1  22
TORSDOF 7
ENDMDL
MODEL 2
REMARK VINA RESULT:      -7.5      1.959      2.399
REMARK  Name = 
REMARK  7 active torsions:
REMARK  status: ('A' for Active; 'I' for Inactive)
REMARK    1  A    between atoms: C_2  and  C_3
REMARK    2  A    between atoms: C_3  and  C_4
REMARK    3  A    between atoms: C_4  and  N_5
REMARK    4  A    between atoms: N_8  and  C_9
REMARK    5  A    between atoms: C_9  and  C_10
REMARK    6  A    between atoms: C_14  and  C_15
REMARK    7  A    between atoms: C_18  and  C_19
REMARK                            x       y       z     vdW  Elec       q    Type
REMARK                         _______ _______ _______ _____ _____    ______ ____
ROOT
ATOM      1  C   UNL     1       3.866   5.382  19.577  0.00  0.00    +0.000 A 
ATOM      2  C   UNL     1       3.221   4.294  20.178  0.00  0.00    +0.000 A 
ATOM      3  C   UNL     1       1.962   4.458  20.745  0.00  0.00    +0.000 A 
ATOM      4  C   UNL     1       1.352   5.715  20.733  0.00  0.00    +0.000 A 
ATOM      5  C   UNL     1       1.978   6.824  20.136  0.00  0.00    +0.000 A 
ATOM      6  C   UNL     1       3.227   6.632  19.541  0.00  0.00    +0.000 A 
ENDROOT
BRANCH   5   7
ATOM      7  C   UNL     1       1.406   8.173  20.284  0.00  0.00    +0.000 A 
ATOM      8  C   UNL     1       0.799   8.679  21.416  0.00  0.00    +0.000 A 
ATOM      9  C   UNL     1       0.464  10.043  21.285  0.00  0.00    +0.000 A 
ATOM     10  C   UNL     1       0.812  10.575  20.059  0.00  0.00    +0.000 A 
ATOM     11  S   UNL     1       1.481   9.379  19.044  0.00  0.00    +0.000 S 
BRANCH  10  12
ATOM     12  C   UNL     1       0.621  11.963  19.755  0.00  0.00    +0.000 A 
ATOM     13  N   UNL     1       1.572  12.645  19.149  0.00  0.00    +0.000 NA
ATOM     14  C   UNL     1       1.130  13.929  19.076  0.00  0.00    +0.000 A 
ATOM     15  C   UNL     1       1.795  15.045  18.560  0.00  0.00    +0.000 A 
ATOM     16  C   UNL     1       1.166  16.286  18.632  0.00  0.00    +0.000 A 
ATOM     17  C   UNL     1      -0.105  16.402  19.201  0.00  0.00    +0.000 A 
ATOM     18  C   UNL     1      -0.796  15.286  19.706  0.00  0.00    +0.000 A 
ATOM     19  C   UNL     1      -0.138  14.053  19.628  0.00  0.00    +0.000 A 
ATOM     20  N   UNL     1      -0.463  12.765  20.019  0.00  0.00    +0.000 N 
ATOM     21  H   UNL     1      -1.321  12.476  20.455  0.00  0.00    +0.000 HD
ENDBRANCH  10  12
ENDBRANCH   5   7
BRANCH   1  22
ATOM     22  C   UNL     1       5.269   5.257  19.033  0.00  0.00    +0.000 C 
BRANCH  22  26
ATOM     23  N   UNL     1       6.550   3.938  15.736  0.00  0.00    +0.000 NA
ATOM     24  C   UNL     1       7.399   4.556  16.780  0.00  0.00    +0.000 C 
ATOM     25  C   UNL     1       6.896   5.916  17.322  0.00  0.00    +0.000 C 
ATOM     26  N   UNL     1       5.480   5.942  17.750  0.00  0.00    +0.000 NA
ATOM     27  C   UNL     1       4.639   5.313  16.709  0.00  0.00    +0.000 C 
ATOM     28  C   UNL     1       5.149   3.932  16.222  0.00  0.00    +0.000 C 
BRANCH  23  29
ATOM     29  C   UNL     1       6.627   4.624  14.429  0.00  0.00    +0.000 C 
BRANCH  29  30
ATOM     30  C   UNL     1       5.624   4.118  13.386  0.00  0.00    +0.000 C 
BRANCH  30  32
ATOM     31  N   UNL     1       6.854   2.669  11.569  0.00  0.00    +0.000 NA
ATOM     32  C   UNL     1       6.319   3.316  12.369  0.00  0.00    +0.000 C 
ENDBRANCH  30  32
ENDBRANCH  29  30
ENDBRANCH  23  29
ENDBRANCH  22  26
ENDBRANCH   1  22
TORSDOF 7
ENDMDL
MODEL 3
REMARK VINA RESULT:      -7.4      1.151      1.687
REMARK  Name = 
REMARK  7 active torsions:
REMARK  status: ('A' for Active; 'I' for Inactive)
REMARK    1  A    between atoms: C_2  and  C_3
REMARK    2  A    between atoms: C_3  and  C_4
REMARK    3  A    between atoms: C_4  and  N_5
REMARK    4  A    between atoms: N_8  and  C_9
REMARK    5  A    between atoms: C_9  and  C_10
REMARK    6  A    between atoms: C_14  and  C_15
REMARK    7  A    between atoms: C_18  and  C_19
REMARK                            x       y       z     vdW  Elec       q    Type
REMARK                         _______ _______ _______ _____ _____    ______ ____
ROOT
ATOM      1  C   UNL     1       4.037   5.556  19.372  0.00  0.00    +0.000 A 
ATOM      2  C   UNL     1       3.461   4.457  20.021  0.00  0.00    +0.000 A 
ATOM      3  C   UNL     1       2.208   4.576  20.612  0.00  0.00    +0.000 A 
ATOM      4  C   UNL     1       1.535   5.801  20.574  0.00  0.00    +0.000 A 
ATOM      5  C   UNL     1       2.091   6.919  19.930  0.00  0.00    +0.000 A 
ATOM      6  C   UNL     1       3.336   6.771  19.312  0.00  0.00    +0.000 A 
ENDROOT
BRANCH   5   7
ATOM      7  C   UNL     1       1.456   8.243  20.049  0.00  0.00    +0.000 A 
ATOM      8  C   UNL     1       1.364   9.194  19.054  0.00  0.00    +0.000 A 
ATOM      9  C   UNL     1       0.590  10.308  19.440  0.00  0.00    +0.000 A 
ATOM     10  C   UNL     1       0.096  10.209  20.726  0.00  0.00    +0.000 A 
ATOM     11  S   UNL     1       0.646   8.783  21.481  0.00  0.00    +0.000 S 
BRANCH  10  12
ATOM     12  C   UNL     1      -0.772  11.205  21.282  0.00  0.00    +0.000 A 
ATOM     13  N   UNL     1      -1.344  11.008  22.452  0.00  0.00    +0.000 NA
ATOM     14  C   UNL     1      -2.157  12.077  22.663  0.00  0.00    +0.000 A 
ATOM     15  C   UNL     1      -3.011  12.313  23.744  0.00  0.00    +0.000 A 
ATOM     16  C   UNL     1      -3.797  13.464  23.730  0.00  0.00    +0.000 A 
ATOM     17  C   UNL     1      -3.720  14.360  22.660  0.00  0.00    +0.000 A 
ATOM     18  C   UNL     1      -2.850  14.147  21.576  0.00  0.00    +0.000 A 
ATOM     19  C   UNL     1      -2.078  12.979  21.611  0.00  0.00    +0.000 A 
ATOM     20  N   UNL     1      -1.147  12.418  20.755  0.00  0.00    +0.000 N 
ATOM     21  H   UNL     1      -0.832  12.806  19.883  0.00  0.00    +0.000 HD
ENDBRANCH  10  12
ENDBRANCH   5   7
BRANCH   1  22
ATOM     22  C   UNL     1       5.433   5.483  18.800  0.00  0.00    +0.000 C 
BRANCH  22  26
ATOM     23  N   UNL     1       6.304   5.288  15.132  0.00  0.00    +0.000 NA
ATOM     24  C   UNL     1       4.926   5.241  15.672  0.00  0.00    +0.000 C 
ATOM     25  C   UNL     1       4.700   4.232  16.824  0.00  0.00    +0.000 C 
ATOM     26  N   UNL     1       5.670   4.317  17.937  0.00  0.00    +0.000 NA
ATOM     27  C   UNL     1       7.043   4.375  17.393  0.00  0.00    +0.000 C 
ATOM     28  C   UNL     1       7.243   5.427  16.271  0.00  0.00    +0.000 C 
BRANCH  23  29
ATOM     29  C   UNL     1       6.663   4.102  14.326  0.00  0.00    +0.000 C 
BRANCH  29  30
ATOM     30  C   UNL     1       6.635   4.332  12.810  0.00  0.00    +0.000 C 
BRANCH  30  32
ATOM     31  N   UNL     1       5.479   2.286  11.631  0.00  0.00    +0.000 NA
ATOM     32  C   UNL     1       5.989   3.194  12.141  0.00  0.00    +0.000 C 
ENDBRANCH  30  32
ENDBRANCH  29  30
ENDBRANCH  23  29
ENDBRANCH  22  26
ENDBRANCH   1  22
TORSDOF 7
ENDMDL
MODEL 4
REMARK VINA RESULT:      -7.3      2.728     12.020
REMARK  Name = 
REMARK  7 active torsions:
REMARK  status: ('A' for Active; 'I' for Inactive)
REMARK    1  A    between atoms: C_2  and  C_3
REMARK    2  A    between atoms: C_3  and  C_4
REMARK    3  A    between atoms: C_4  and  N_5
REMARK    4  A    between atoms: N_8  and  C_9
REMARK    5  A    between atoms: C_9  and  C_10
REMARK    6  A    between atoms: C_14  and  C_15
REMARK    7  A    between atoms: C_18  and  C_19
REMARK                            x       y       z     vdW  Elec       q    Type
REMARK                         _______ _______ _______ _____ _____    ______ ____
ROOT
ATOM      1  C   UNL     1      -1.047  12.215  21.945  0.00  0.00    +0.000 A 
ATOM      2  C   UNL     1      -1.409  11.510  23.099  0.00  0.00    +0.000 A 
ATOM      3  C   UNL     1      -0.973  10.202  23.282  0.00  0.00    +0.000 A 
ATOM      4  C   UNL     1      -0.189   9.586  22.302  0.00  0.00    +0.000 A 
ATOM      5  C   UNL     1       0.189  10.272  21.134  0.00  0.00    +0.000 A 
ATOM      6  C   UNL     1      -0.231  11.596  20.983  0.00  0.00    +0.000 A 
ENDROOT
BRANCH   5   7
ATOM      7  C   UNL     1       0.862   9.559  20.035  0.00  0.00    +0.000 A 
ATOM      8  C   UNL     1       1.073  10.044  18.760  0.00  0.00    +0.000 A 
ATOM      9  C   UNL     1       1.854   9.172  17.973  0.00  0.00    +0.000 A 
ATOM     10  C   UNL     1       2.234   8.026  18.643  0.00  0.00    +0.000 A 
ATOM     11  S   UNL     1       1.569   7.988  20.212  0.00  0.00    +0.000 S 
BRANCH  10  12
ATOM     12  C   UNL     1       3.090   7.046  18.041  0.00  0.00    +0.000 A 
ATOM     13  N   UNL     1       4.042   7.419  17.209  0.00  0.00    +0.000 NA
ATOM     14  C   UNL     1       4.616   6.275  16.751  0.00  0.00    +0.000 A 
ATOM     15  C   UNL     1       5.644   6.139  15.814  0.00  0.00    +0.000 A 
ATOM     16  C   UNL     1       6.048   4.855  15.453  0.00  0.00    +0.000 A 
ATOM     17  C   UNL     1       5.441   3.735  16.027  0.00  0.00    +0.000 A 
ATOM     18  C   UNL     1       4.420   3.855  16.987  0.00  0.00    +0.000 A 
ATOM     19  C   UNL     1       4.028   5.157  17.325  0.00  0.00    +0.000 A 
ATOM     20  N   UNL     1       3.078   5.679  18.185  0.00  0.00    +0.000 N 
ATOM     21  H   UNL     1       2.460   5.153  18.779  0.00  0.00    +0.000 HD
ENDBRANCH  10  12
ENDBRANCH   5   7
BRANCH   1  22
ATOM     22  C   UNL     1      -1.579  13.602  21.675  0.00  0.00    +0.000 C 
BRANCH  22  26
ATOM     23  N   UNL     1      -5.279  14.022  22.293  0.00  0.00    +0.000 NA
ATOM     24  C   UNL     1      -4.587  12.717  22.195  0.00  0.00    +0.000 C 
ATOM     25  C   UNL     1      -3.671  12.544  20.959  0.00  0.00    +0.000 C 
ATOM     26  N   UNL     1      -2.705  13.641  20.731  0.00  0.00    +0.000 NA
ATOM     27  C   UNL     1      -3.399  14.942  20.841  0.00  0.00    +0.000 C 
ATOM     28  C   UNL     1      -4.271  15.095  22.113  0.00  0.00    +0.000 C 
BRANCH  23  29
ATOM     29  C   UNL     1      -6.371  14.187  21.310  0.00  0.00    +0.000 C 
BRANCH  29  30
ATOM     30  C   UNL     1      -7.777  14.214  21.921  0.00  0.00    +0.000 C 
BRANCH  30  32
ATOM     31  N   UNL     1      -7.883  12.666  24.044  0.00  0.00    +0.000 NA
ATOM     32  C   UNL     1      -7.825  13.351  23.109  0.00  0.00    +0.000 C 
ENDBRANCH  30  32
ENDBRANCH  29  30
ENDBRANCH  23  29
ENDBRANCH  22  26
ENDBRANCH   1  22
TORSDOF 7
ENDMDL
MODEL 5
REMARK VINA RESULT:      -7.3      1.881      3.250
REMARK  Name = 
REMARK  7 active torsions:
REMARK  status: ('A' for Active; 'I' for Inactive)
REMARK    1  A    between atoms: C_2  and  C_3
REMARK    2  A    between atoms: C_3  and  C_4
REMARK    3  A    between atoms: C_4  and  N_5
REMARK    4  A    between atoms: N_8  and  C_9
REMARK    5  A    between atoms: C_9  and  C_10
REMARK    6  A    between atoms: C_14  and  C_15
REMARK    7  A    between atoms: C_18  and  C_19
REMARK                            x       y       z     vdW  Elec       q    Type
REMARK                         _______ _______ _______ _____ _____    ______ ____
ROOT
ATOM      1  C   UNL     1       2.225   7.572  19.249  0.00  0.00    +0.000 A 
ATOM      2  C   UNL     1       2.161   8.040  17.931  0.00  0.00    +0.000 A 
ATOM      3  C   UNL     1       1.481   9.218  17.642  0.00  0.00    +0.000 A 
ATOM      4  C   UNL     1       0.844   9.923  18.668  0.00  0.00    +0.000 A 
ATOM      5  C   UNL     1       0.893   9.475  19.999  0.00  0.00    +0.000 A 
ATOM      6  C   UNL     1       1.610   8.308  20.275  0.00  0.00    +0.000 A 
ENDROOT
BRANCH   5   7
ATOM      7  C   UNL     1       0.075  10.127  21.037  0.00  0.00    +0.000 A 
ATOM      8  C   UNL     1      -0.139   9.659  22.317  0.00  0.00    +0.000 A 
ATOM      9  C   UNL     1      -0.868  10.569  23.111  0.00  0.00    +0.000 A 
ATOM     10  C   UNL     1      -1.211  11.726  22.438  0.00  0.00    +0.000 A 
ATOM     11  S   UNL     1      -0.702  11.658  20.812  0.00  0.00    +0.000 S 
BRANCH  10  12
ATOM     12  C   UNL     1      -1.891  12.806  23.089  0.00  0.00    +0.000 A 
ATOM     13  N   UNL     1      -3.204  12.903  23.016  0.00  0.00    +0.000 NA
ATOM     14  C   UNL     1      -3.536  14.056  23.654  0.00  0.00    +0.000 A 
ATOM     15  C   UNL     1      -4.803  14.624  23.809  0.00  0.00    +0.000 A 
ATOM     16  C   UNL     1      -4.907  15.850  24.464  0.00  0.00    +0.000 A 
ATOM     17  C   UNL     1      -3.765  16.486  24.959  0.00  0.00    +0.000 A 
ATOM     18  C   UNL     1      -2.485  15.917  24.829  0.00  0.00    +0.000 A 
ATOM     19  C   UNL     1      -2.409  14.689  24.160  0.00  0.00    +0.000 A 
ATOM     20  N   UNL     1      -1.367  13.844  23.823  0.00  0.00    +0.000 N 
ATOM     21  H   UNL     1      -0.395  13.983  24.038  0.00  0.00    +0.000 HD
ENDBRANCH  10  12
ENDBRANCH   5   7
BRANCH   1  22
ATOM     22  C   UNL     1       2.877   6.252  19.580  0.00  0.00    +0.000 C 
BRANCH  22  26
ATOM     23  N   UNL     1       4.480   3.653  17.360  0.00  0.00    +0.000 NA
ATOM     24  C   UNL     1       4.451   3.592  18.839  0.00  0.00    +0.000 C 
ATOM     25  C   UNL     1       4.909   4.881  19.565  0.00  0.00    +0.000 C 
ATOM     26  N   UNL     1       4.262   6.128  19.104  0.00  0.00    +0.000 NA
ATOM     27  C   UNL     1       4.284   6.179  17.626  0.00  0.00    +0.000 C 
ATOM     28  C   UNL     1       3.777   4.887  16.934  0.00  0.00    +0.000 C 
BRANCH  23  29
ATOM     29  C   UNL     1       5.846   3.631  16.795  0.00  0.00    +0.000 C 
BRANCH  29  30
ATOM     30  C   UNL     1       5.905   3.788  15.271  0.00  0.00    +0.000 C 
BRANCH  30  32
ATOM     31  N   UNL     1       7.770   5.530  14.637  0.00  0.00    +0.000 NA
ATOM     32  C   UNL     1       6.942   4.764  14.907  0.00  0.00    +0.000 C 
ENDBRANCH  30  32
ENDBRANCH  29  30
ENDBRANCH  23  29
ENDBRANCH  22  26
ENDBRANCH   1  22
TORSDOF 7
ENDMDL
MODEL 6
REMARK VINA RESULT:      -7.3      3.529     11.883
REMARK  Name = 
REMARK  7 active torsions:
REMARK  status: ('A' for Active; 'I' for Inactive)
REMARK    1  A    between atoms: C_2  and  C_3
REMARK    2  A    between atoms: C_3  and  C_4
REMARK    3  A    between atoms: C_4  and  N_5
REMARK    4  A    between atoms: N_8  and  C_9
REMARK    5  A    between atoms: C_9  and  C_10
REMARK    6  A    between atoms: C_14  and  C_15
REMARK    7  A    between atoms: C_18  and  C_19
REMARK                            x       y       z     vdW  Elec       q    Type
REMARK                         _______ _______ _______ _____ _____    ______ ____
ROOT
ATOM      1  C   UNL     1      -0.306  13.775  20.421  0.00  0.00    +0.000 A 
ATOM      2  C   UNL     1       0.392  14.781  19.741  0.00  0.00    +0.000 A 
ATOM      3  C   UNL     1       1.314  14.444  18.756  0.00  0.00    +0.000 A 
ATOM      4  C   UNL     1       1.557  13.099  18.461  0.00  0.00    +0.000 A 
ATOM      5  C   UNL     1       0.870  12.071  19.129  0.00  0.00    +0.000 A 
ATOM      6  C   UNL     1      -0.077  12.430  20.091  0.00  0.00    +0.000 A 
ENDROOT
BRANCH   5   7
ATOM      7  C   UNL     1       1.261  10.664  18.935  0.00  0.00    +0.000 A 
ATOM      8  C   UNL     1       1.983  10.160  17.872  0.00  0.00    +0.000 A 
ATOM      9  C   UNL     1       2.302   8.796  18.034  0.00  0.00    +0.000 A 
ATOM     10  C   UNL     1       1.825   8.261  19.215  0.00  0.00    +0.000 A 
ATOM     11  S   UNL     1       0.921   9.415  20.085  0.00  0.00    +0.000 S 
BRANCH  10  12
ATOM     12  C   UNL     1       2.104   6.908  19.600  0.00  0.00    +0.000 A 
ATOM     13  N   UNL     1       2.590   6.056  18.721  0.00  0.00    +0.000 NA
ATOM     14  C   UNL     1       2.668   4.857  19.357  0.00  0.00    +0.000 A 
ATOM     15  C   UNL     1       3.081   3.627  18.837  0.00  0.00    +0.000 A 
ATOM     16  C   UNL     1       3.035   2.506  19.664  0.00  0.00    +0.000 A 
ATOM     17  C   UNL     1       2.592   2.621  20.985  0.00  0.00    +0.000 A 
ATOM     18  C   UNL     1       2.194   3.854  21.529  0.00  0.00    +0.000 A 
ATOM     19  C   UNL     1       2.242   4.962  20.674  0.00  0.00    +0.000 A 
ATOM     20  N   UNL     1       1.926   6.301  20.820  0.00  0.00    +0.000 N 
ATOM     21  H   UNL     1       1.587   6.744  21.657  0.00  0.00    +0.000 HD
ENDBRANCH  10  12
ENDBRANCH   5   7
BRANCH   1  22
ATOM     22  C   UNL     1      -1.245  14.105  21.557  0.00  0.00    +0.000 C 
BRANCH  22  26
ATOM     23  N   UNL     1      -4.575  13.794  23.307  0.00  0.00    +0.000 NA
ATOM     24  C   UNL     1      -4.026  12.794  22.362  0.00  0.00    +0.000 C 
ATOM     25  C   UNL     1      -3.519  13.365  21.016  0.00  0.00    +0.000 C 
ATOM     26  N   UNL     1      -2.590  14.512  21.126  0.00  0.00    +0.000 NA
ATOM     27  C   UNL     1      -3.137  15.501  22.079  0.00  0.00    +0.000 C 
ATOM     28  C   UNL     1      -3.595  14.899  23.433  0.00  0.00    +0.000 C 
BRANCH  23  29
ATOM     29  C   UNL     1      -5.891  14.331  22.901  0.00  0.00    +0.000 C 
BRANCH  29  30
ATOM     30  C   UNL     1      -7.035  14.009  23.869  0.00  0.00    +0.000 C 
BRANCH  30  32
ATOM     31  N   UNL     1      -7.649  11.456  23.733  0.00  0.00    +0.000 NA
ATOM     32  C   UNL     1      -7.381  12.584  23.782  0.00  0.00    +0.000 C 
ENDBRANCH  30  32
ENDBRANCH  29  30
ENDBRANCH  23  29
ENDBRANCH  22  26
ENDBRANCH   1  22
TORSDOF 7
ENDMDL
MODEL 7
REMARK VINA RESULT:      -7.2      2.266      2.572
REMARK  Name = 
REMARK  7 active torsions:
REMARK  status: ('A' for Active; 'I' for Inactive)
REMARK    1  A    between atoms: C_2  and  C_3
REMARK    2  A    between atoms: C_3  and  C_4
REMARK    3  A    between atoms: C_4  and  N_5
REMARK    4  A    between atoms: N_8  and  C_9
REMARK    5  A    between atoms: C_9  and  C_10
REMARK    6  A    between atoms: C_14  and  C_15
REMARK    7  A    between atoms: C_18  and  C_19
REMARK                            x       y       z     vdW  Elec       q    Type
REMARK                         _______ _______ _______ _____ _____    ______ ____
ROOT
ATOM      1  C   UNL     1       3.563   5.072  19.123  0.00  0.00    +0.000 A 
ATOM      2  C   UNL     1       3.034   4.010  19.865  0.00  0.00    +0.000 A 
ATOM      3  C   UNL     1       1.974   4.230  20.739  0.00  0.00    +0.000 A 
ATOM      4  C   UNL     1       1.453   5.518  20.889  0.00  0.00    +0.000 A 
ATOM      5  C   UNL     1       1.967   6.602  20.156  0.00  0.00    +0.000 A 
ATOM      6  C   UNL     1       3.008   6.355  19.258  0.00  0.00    +0.000 A 
ENDROOT
BRANCH   5   7
ATOM      7  C   UNL     1       1.529   7.977  20.452  0.00  0.00    +0.000 A 
ATOM      8  C   UNL     1       1.141   8.459  21.686  0.00  0.00    +0.000 A 
ATOM      9  C   UNL     1       0.896   9.848  21.671  0.00  0.00    +0.000 A 
ATOM     10  C   UNL     1       1.094  10.423  20.431  0.00  0.00    +0.000 A 
ATOM     11  S   UNL     1       1.507   9.244  19.272  0.00  0.00    +0.000 S 
BRANCH  10  12
ATOM     12  C   UNL     1       0.966  11.836  20.224  0.00  0.00    +0.000 A 
ATOM     13  N   UNL     1       0.037  12.306  19.416  0.00  0.00    +0.000 NA
ATOM     14  C   UNL     1       0.222  13.652  19.366  0.00  0.00    +0.000 A 
ATOM     15  C   UNL     1      -0.484  14.594  18.613  0.00  0.00    +0.000 A 
ATOM     16  C   UNL     1      -0.089  15.929  18.679  0.00  0.00    +0.000 A 
ATOM     17  C   UNL     1       0.984  16.309  19.491  0.00  0.00    +0.000 A 
ATOM     18  C   UNL     1       1.690  15.376  20.271  0.00  0.00    +0.000 A 
ATOM     19  C   UNL     1       1.278  14.041  20.179  0.00  0.00    +0.000 A 
ATOM     20  N   UNL     1       1.713  12.860  20.755  0.00  0.00    +0.000 N 
ATOM     21  H   UNL     1       2.467  12.763  21.412  0.00  0.00    +0.000 HD
ENDBRANCH  10  12
ENDBRANCH   5   7
BRANCH   1  22
ATOM     22  C   UNL     1       4.770   4.883  18.236  0.00  0.00    +0.000 C 
BRANCH  22  26
ATOM     23  N   UNL     1       6.975   4.485  15.197  0.00  0.00    +0.000 NA
ATOM     24  C   UNL     1       7.000   5.654  16.106  0.00  0.00    +0.000 C 
ATOM     25  C   UNL     1       5.619   6.284  16.413  0.00  0.00    +0.000 C 
ATOM     26  N   UNL     1       4.574   5.333  16.850  0.00  0.00    +0.000 NA
ATOM     27  C   UNL     1       4.562   4.163  15.946  0.00  0.00    +0.000 C 
ATOM     28  C   UNL     1       5.956   3.532  15.698  0.00  0.00    +0.000 C 
BRANCH  23  29
ATOM     29  C   UNL     1       6.689   4.837  13.791  0.00  0.00    +0.000 C 
BRANCH  29  30
ATOM     30  C   UNL     1       6.782   3.662  12.810  0.00  0.00    +0.000 C 
BRANCH  30  32
ATOM     31  N   UNL     1       4.452   3.301  11.647  0.00  0.00    +0.000 NA
ATOM     32  C   UNL     1       5.485   3.452  12.154  0.00  0.00    +0.000 C 
ENDBRANCH  30  32
ENDBRANCH  29  30
ENDBRANCH  23  29
ENDBRANCH  22  26
ENDBRANCH   1  22
TORSDOF 7
ENDMDL
MODEL 8
REMARK VINA RESULT:      -7.2      1.830      3.066
REMARK  Name = 
REMARK  7 active torsions:
REMARK  status: ('A' for Active; 'I' for Inactive)
REMARK    1  A    between atoms: C_2  and  C_3
REMARK    2  A    between atoms: C_3  and  C_4
REMARK    3  A    between atoms: C_4  and  N_5
REMARK    4  A    between atoms: N_8  and  C_9
REMARK    5  A    between atoms: C_9  and  C_10
REMARK    6  A    between atoms: C_14  and  C_15
REMARK    7  A    between atoms: C_18  and  C_19
REMARK                            x       y       z     vdW  Elec       q    Type
REMARK                         _______ _______ _______ _____ _____    ______ ____
ROOT
ATOM      1  C   UNL     1       2.215   7.206  19.436  0.00  0.00    +0.000 A 
ATOM      2  C   UNL     1       2.362   7.701  18.135  0.00  0.00    +0.000 A 
ATOM      3  C   UNL     1       1.883   8.966  17.813  0.00  0.00    +0.000 A 
ATOM      4  C   UNL     1       1.236   9.734  18.786  0.00  0.00    +0.000 A 
ATOM      5  C   UNL     1       1.076   9.260  20.100  0.00  0.00    +0.000 A 
ATOM      6  C   UNL     1       1.594   8.001  20.413  0.00  0.00    +0.000 A 
ENDROOT
BRANCH   5   7
ATOM      7  C   UNL     1       0.243  10.000  21.063  0.00  0.00    +0.000 A 
ATOM      8  C   UNL     1      -0.216   9.524  22.275  0.00  0.00    +0.000 A 
ATOM      9  C   UNL     1      -0.887  10.512  23.025  0.00  0.00    +0.000 A 
ATOM     10  C   UNL     1      -0.942  11.737  22.387  0.00  0.00    +0.000 A 
ATOM     11  S   UNL     1      -0.235  11.649  20.838  0.00  0.00    +0.000 S 
BRANCH  10  12
ATOM     12  C   UNL     1      -1.519  12.890  23.013  0.00  0.00    +0.000 A 
ATOM     13  N   UNL     1      -0.751  13.755  23.645  0.00  0.00    +0.000 NA
ATOM     14  C   UNL     1      -1.587  14.677  24.191  0.00  0.00    +0.000 A 
ATOM     15  C   UNL     1      -1.260  15.773  24.995  0.00  0.00    +0.000 A 
ATOM     16  C   UNL     1      -2.293  16.566  25.489  0.00  0.00    +0.000 A 
ATOM     17  C   UNL     1      -3.623  16.271  25.177  0.00  0.00    +0.000 A 
ATOM     18  C   UNL     1      -3.967  15.184  24.354  0.00  0.00    +0.000 A 
ATOM     19  C   UNL     1      -2.911  14.399  23.877  0.00  0.00    +0.000 A 
ATOM     20  N   UNL     1      -2.838  13.269  23.081  0.00  0.00    +0.000 N 
ATOM     21  H   UNL     1      -3.614  12.788  22.661  0.00  0.00    +0.000 HD
ENDBRANCH  10  12
ENDBRANCH   5   7
BRANCH   1  22
ATOM     22  C   UNL     1       2.643   5.803  19.793  0.00  0.00    +0.000 C 
BRANCH  22  26
ATOM     23  N   UNL     1       4.141   3.553  17.157  0.00  0.00    +0.000 NA
ATOM     24  C   UNL     1       3.835   3.134  18.544  0.00  0.00    +0.000 C 
ATOM     25  C   UNL     1       4.373   4.071  19.653  0.00  0.00    +0.000 C 
ATOM     26  N   UNL     1       4.048   5.504  19.480  0.00  0.00    +0.000 NA
ATOM     27  C   UNL     1       4.344   5.914  18.091  0.00  0.00    +0.000 C 
ATOM     28  C   UNL     1       3.752   4.976  17.007  0.00  0.00    +0.000 C 
BRANCH  23  29
ATOM     29  C   UNL     1       5.560   3.376  16.786  0.00  0.00    +0.000 C 
BRANCH  29  30
ATOM     30  C   UNL     1       5.890   3.752  15.336  0.00  0.00    +0.000 C 
BRANCH  30  32
ATOM     31  N   UNL     1       7.610   5.741  15.313  0.00  0.00    +0.000 NA
ATOM     32  C   UNL     1       6.850   4.864  15.312  0.00  0.00    +0.000 C 
ENDBRANCH  30  32
ENDBRANCH  29  30
ENDBRANCH  23  29
ENDBRANCH  22  26
ENDBRANCH   1  22
TORSDOF 7
ENDMDL
MODEL 9
REMARK VINA RESULT:      -7.2      1.052      1.453
REMARK  Name = 
REMARK  7 active torsions:
REMARK  status: ('A' for Active; 'I' for Inactive)
REMARK    1  A    between atoms: C_2  and  C_3
REMARK    2  A    between atoms: C_3  and  C_4
REMARK    3  A    between atoms: C_4  and  N_5
REMARK    4  A    between atoms: N_8  and  C_9
REMARK    5  A    between atoms: C_9  and  C_10
REMARK    6  A    between atoms: C_14  and  C_15
REMARK    7  A    between atoms: C_18  and  C_19
REMARK                            x       y       z     vdW  Elec       q    Type
REMARK                         _______ _______ _______ _____ _____    ______ ____
ROOT
ATOM      1  C   UNL     1       4.291   5.297  19.523  0.00  0.00    +0.000 A 
ATOM      2  C   UNL     1       3.582   4.190  20.005  0.00  0.00    +0.000 A 
ATOM      3  C   UNL     1       2.268   4.338  20.437  0.00  0.00    +0.000 A 
ATOM      4  C   UNL     1       1.665   5.599  20.409  0.00  0.00    +0.000 A 
ATOM      5  C   UNL     1       2.355   6.727  19.931  0.00  0.00    +0.000 A 
ATOM      6  C   UNL     1       3.662   6.551  19.469  0.00  0.00    +0.000 A 
ENDROOT
BRANCH   5   7
ATOM      7  C   UNL     1       1.773   8.072  20.070  0.00  0.00    +0.000 A 
ATOM      8  C   UNL     1       1.499   8.951  19.042  0.00  0.00    +0.000 A 
ATOM      9  C   UNL     1       0.831  10.111  19.485  0.00  0.00    +0.000 A 
ATOM     10  C   UNL     1       0.598  10.119  20.847  0.00  0.00    +0.000 A 
ATOM     11  S   UNL     1       1.268   8.737  21.588  0.00  0.00    +0.000 S 
BRANCH  10  12
ATOM     12  C   UNL     1      -0.130  11.177  21.483  0.00  0.00    +0.000 A 
ATOM     13  N   UNL     1       0.368  12.397  21.519  0.00  0.00    +0.000 NA
ATOM     14  C   UNL     1      -0.504  13.142  22.250  0.00  0.00    +0.000 A 
ATOM     15  C   UNL     1      -0.400  14.488  22.610  0.00  0.00    +0.000 A 
ATOM     16  C   UNL     1      -1.397  15.041  23.411  0.00  0.00    +0.000 A 
ATOM     17  C   UNL     1      -2.477  14.261  23.834  0.00  0.00    +0.000 A 
ATOM     18  C   UNL     1      -2.607  12.911  23.463  0.00  0.00    +0.000 A 
ATOM     19  C   UNL     1      -1.587  12.379  22.664  0.00  0.00    +0.000 A 
ATOM     20  N   UNL     1      -1.347  11.129  22.122  0.00  0.00    +0.000 N 
ATOM     21  H   UNL     1      -1.935  10.319  22.212  0.00  0.00    +0.000 HD
ENDBRANCH  10  12
ENDBRANCH   5   7
BRANCH   1  22
ATOM     22  C   UNL     1       5.745   5.186  19.132  0.00  0.00    +0.000 C 
BRANCH  22  26
ATOM     23  N   UNL     1       5.932   5.064  15.364  0.00  0.00    +0.000 NA
ATOM     24  C   UNL     1       4.717   4.763  16.155  0.00  0.00    +0.000 C 
ATOM     25  C   UNL     1       4.914   3.761  17.318  0.00  0.00    +0.000 C 
ATOM     26  N   UNL     1       6.041   4.065  18.228  0.00  0.00    +0.000 NA
ATOM     27  C   UNL     1       7.248   4.375  17.433  0.00  0.00    +0.000 C 
ATOM     28  C   UNL     1       7.022   5.415  16.306  0.00  0.00    +0.000 C 
BRANCH  23  29
ATOM     29  C   UNL     1       6.359   3.949  14.492  0.00  0.00    +0.000 C 
BRANCH  29  30
ATOM     30  C   UNL     1       6.686   4.359  13.051  0.00  0.00    +0.000 C 
BRANCH  30  32
ATOM     31  N   UNL     1       8.727   6.016  13.008  0.00  0.00    +0.000 NA
ATOM     32  C   UNL     1       7.826   5.286  13.038  0.00  0.00    +0.000 C 
ENDBRANCH  30  32
ENDBRANCH  29  30
ENDBRANCH  23  29
ENDBRANCH  22  26
ENDBRANCH   1  22
TORSDOF 7
ENDMDL
