MODEL 1
REMARK VINA RESULT:      -7.8      0.000      0.000
REMARK  Name = 
REMARK  7 active torsions:
REMARK  status: ('A' for Active; 'I' for Inactive)
REMARK    1  A    between atoms: C_1  and  N_2
REMARK    2  A    between atoms: N_6  and  C_7
REMARK    3  A    between atoms: C_7  and  C_8
REMARK    4  A    between atoms: C_8  and  C_9
REMARK    5  A    between atoms: C_9  and  C_10
REMARK    6  A    between atoms: C_15  and  C_16
REMARK    7  A    between atoms: C_16  and  C_17
REMARK                            x       y       z     vdW  Elec       q    Type
REMARK                         _______ _______ _______ _____ _____    ______ ____
ROOT
ATOM      1  C   UNL     1       6.042   4.881  18.535  0.00  0.00    +0.000 C 
ATOM      2  O   UNL     1       7.052   5.242  19.138  0.00  0.00    +0.000 OA
ATOM      3  N   UNL     1       6.081   4.473  17.208  0.00  0.00    +0.000 N 
ATOM      4  C   UNL     1       7.380   4.338  16.555  0.00  0.00    +0.000 C 
ATOM      5  C   UNL     1       7.432   5.167  15.276  0.00  0.00    +0.000 C 
ATOM      6  C   UNL     1       6.272   4.839  14.317  0.00  0.00    +0.000 C 
ATOM      7  C   UNL     1       4.942   4.987  15.088  0.00  0.00    +0.000 C 
ATOM      8  C   UNL     1       4.917   4.162  16.378  0.00  0.00    +0.000 C 
ENDROOT
BRANCH   1   9
ATOM      9  C   UNL     1       4.691   4.842  19.231  0.00  0.00    +0.000 C 
BRANCH   9  10
ATOM     10  C   UNL     1       3.935   6.161  19.083  0.00  0.00    +0.000 C 
BRANCH  10  11
ATOM     11  C   UNL     1       2.509   5.925  18.596  0.00  0.00    +0.000 C 
BRANCH  11  17
ATOM     12  C   UNL     1       1.199   2.423  21.823  0.00  0.00    +0.000 C 
ATOM     13  N   UNL     1       1.271   3.161  20.588  0.00  0.00    +0.000 N 
ATOM     14  C   UNL     1       1.026   2.555  19.302  0.00  0.00    +0.000 C 
ATOM     15  C   UNL     1       1.578   3.629  18.381  0.00  0.00    +0.000 C 
ATOM     16  O   UNL     1       1.654   3.524  17.163  0.00  0.00    +0.000 OA
ATOM     17  N   UNL     1       1.940   4.707  19.134  0.00  0.00    +0.000 N 
ATOM     18  C   UNL     1       1.831   4.423  20.467  0.00  0.00    +0.000 C 
ATOM     19  O   UNL     1       2.186   5.138  21.397  0.00  0.00    +0.000 OA
ENDBRANCH  11  17
ENDBRANCH  10  11
ENDBRANCH   9  10
ENDBRANCH   1   9
BRANCH   6  20
ATOM     20  C   UNL     1       6.363   3.446  13.659  0.00  0.00    +0.000 C 
BRANCH  20  21
ATOM     21  C   UNL     1       6.348   3.425  12.139  0.00  0.00    +0.000 C 
ATOM     22  F   UNL     1       6.770   2.258  11.617  0.00  0.00    +0.000 F 
ATOM     23  F   UNL     1       5.097   3.656  11.680  0.00  0.00    +0.000 F 
ATOM     24  F   UNL     1       7.144   4.401  11.646  0.00  0.00    +0.000 F 
ENDBRANCH  20  21
ENDBRANCH   6  20
TORSDOF 6
ENDMDL
MODEL 2
REMARK VINA RESULT:      -7.7      5.874      8.404
REMARK  Name = 
REMARK  7 active torsions:
REMARK  status: ('A' for Active; 'I' for Inactive)
REMARK    1  A    between atoms: C_1  and  N_2
REMARK    2  A    between atoms: N_6  and  C_7
REMARK    3  A    between atoms: C_7  and  C_8
REMARK    4  A    between atoms: C_8  and  C_9
REMARK    5  A    between atoms: C_9  and  C_10
REMARK    6  A    between atoms: C_15  and  C_16
REMARK    7  A    between atoms: C_16  and  C_17
REMARK                            x       y       z     vdW  Elec       q    Type
REMARK                         _______ _______ _______ _____ _____    ______ ____
ROOT
ATOM      1  C   UNL     1       7.525   6.700  17.473  0.00  0.00    +0.000 C 
ATOM      2  O   UNL     1       7.815   6.873  16.289  0.00  0.00    +0.000 OA
ATOM      3  N   UNL     1       6.667   5.688  17.882  0.00  0.00    +0.000 N 
ATOM      4  C   UNL     1       6.207   4.717  16.892  0.00  0.00    +0.000 C 
ATOM      5  C   UNL     1       4.684   4.653  16.864  0.00  0.00    +0.000 C 
ATOM      6  C   UNL     1       4.082   4.380  18.255  0.00  0.00    +0.000 C 
ATOM      7  C   UNL     1       4.632   5.434  19.241  0.00  0.00    +0.000 C 
ATOM      8  C   UNL     1       6.163   5.496  19.242  0.00  0.00    +0.000 C 
ENDROOT
BRANCH   1   9
ATOM      9  C   UNL     1       8.119   7.583  18.558  0.00  0.00    +0.000 C 
BRANCH   9  10
ATOM     10  C   UNL     1       8.393   8.999  18.055  0.00  0.00    +0.000 C 
BRANCH  10  11
ATOM     11  C   UNL     1       8.926   9.887  19.175  0.00  0.00    +0.000 C 
BRANCH  11  17
ATOM     12  C   UNL     1      12.047  13.690  18.735  0.00  0.00    +0.000 C 
ATOM     13  N   UNL     1      10.991  12.766  18.408  0.00  0.00    +0.000 N 
ATOM     14  C   UNL     1       9.906  13.105  17.520  0.00  0.00    +0.000 C 
ATOM     15  C   UNL     1       8.941  11.970  17.816  0.00  0.00    +0.000 C 
ATOM     16  O   UNL     1       7.818  11.874  17.338  0.00  0.00    +0.000 OA
ATOM     17  N   UNL     1       9.546  11.094  18.670  0.00  0.00    +0.000 N 
ATOM     18  C   UNL     1      10.749  11.587  19.095  0.00  0.00    +0.000 C 
ATOM     19  O   UNL     1      11.479  11.095  19.947  0.00  0.00    +0.000 OA
ENDBRANCH  11  17
ENDBRANCH  10  11
ENDBRANCH   9  10
ENDBRANCH   1   9
BRANCH   6  20
ATOM     20  C   UNL     1       4.336   2.956  18.792  0.00  0.00    +0.000 C 
BRANCH  20  21
ATOM     21  C   UNL     1       3.245   1.934  18.510  0.00  0.00    +0.000 C 
ATOM     22  F   UNL     1       2.553   2.188  17.385  0.00  0.00    +0.000 F 
ATOM     23  F   UNL     1       3.781   0.697  18.397  0.00  0.00    +0.000 F 
ATOM     24  F   UNL     1       2.359   1.897  19.531  0.00  0.00    +0.000 F 
ENDBRANCH  20  21
ENDBRANCH   6  20
TORSDOF 6
ENDMDL
MODEL 3
REMARK VINA RESULT:      -7.5      6.346      8.587
REMARK  Name = 
REMARK  7 active torsions:
REMARK  status: ('A' for Active; 'I' for Inactive)
REMARK    1  A    between atoms: C_1  and  N_2
REMARK    2  A    between atoms: N_6  and  C_7
REMARK    3  A    between atoms: C_7  and  C_8
REMARK    4  A    between atoms: C_8  and  C_9
REMARK    5  A    between atoms: C_9  and  C_10
REMARK    6  A    between atoms: C_15  and  C_16
REMARK    7  A    between atoms: C_16  and  C_17
REMARK                            x       y       z     vdW  Elec       q    Type
REMARK                         _______ _______ _______ _____ _____    ______ ____
ROOT
ATOM      1  C   UNL     1       2.292   7.213  19.369  0.00  0.00    +0.000 C 
ATOM      2  O   UNL     1       2.407   6.194  20.049  0.00  0.00    +0.000 OA
ATOM      3  N   UNL     1       1.691   8.364  19.860  0.00  0.00    +0.000 N 
ATOM      4  C   UNL     1       1.310   8.408  21.270  0.00  0.00    +0.000 C 
ATOM      5  C   UNL     1      -0.167   8.754  21.421  0.00  0.00    +0.000 C 
ATOM      6  C   UNL     1      -0.543  10.054  20.685  0.00  0.00    +0.000 C 
ATOM      7  C   UNL     1      -0.090   9.933  19.214  0.00  0.00    +0.000 C 
ATOM      8  C   UNL     1       1.392   9.567  19.084  0.00  0.00    +0.000 C 
ENDROOT
BRANCH   1   9
ATOM      9  C   UNL     1       2.832   7.267  17.949  0.00  0.00    +0.000 C 
BRANCH   9  10
ATOM     10  C   UNL     1       4.241   6.686  17.852  0.00  0.00    +0.000 C 
BRANCH  10  11
ATOM     11  C   UNL     1       4.244   5.383  17.057  0.00  0.00    +0.000 C 
BRANCH  11  17
ATOM     12  C   UNL     1       1.556   1.896  19.298  0.00  0.00    +0.000 C 
ATOM     13  N   UNL     1       2.714   2.613  18.827  0.00  0.00    +0.000 N 
ATOM     14  C   UNL     1       4.002   2.525  19.471  0.00  0.00    +0.000 C 
ATOM     15  C   UNL     1       4.713   3.704  18.832  0.00  0.00    +0.000 C 
ATOM     16  O   UNL     1       5.839   4.078  19.131  0.00  0.00    +0.000 OA
ATOM     17  N   UNL     1       3.899   4.240  17.877  0.00  0.00    +0.000 N 
ATOM     18  C   UNL     1       2.667   3.647  17.905  0.00  0.00    +0.000 C 
ATOM     19  O   UNL     1       1.683   3.978  17.254  0.00  0.00    +0.000 OA
ENDBRANCH  11  17
ENDBRANCH  10  11
ENDBRANCH   9  10
ENDBRANCH   1   9
BRANCH   6  20
ATOM     20  C   UNL     1       0.032  11.337  21.323  0.00  0.00    +0.000 C 
BRANCH  20  21
ATOM     21  C   UNL     1      -0.883  12.065  22.295  0.00  0.00    +0.000 C 
ATOM     22  F   UNL     1      -1.095  11.389  23.439  0.00  0.00    +0.000 F 
ATOM     23  F   UNL     1      -0.359  13.270  22.617  0.00  0.00    +0.000 F 
ATOM     24  F   UNL     1      -2.090  12.290  21.728  0.00  0.00    +0.000 F 
ENDBRANCH  20  21
ENDBRANCH   6  20
TORSDOF 6
ENDMDL
MODEL 4
REMARK VINA RESULT:      -7.5      5.637      7.223
REMARK  Name = 
REMARK  7 active torsions:
REMARK  status: ('A' for Active; 'I' for Inactive)
REMARK    1  A    between atoms: C_1  and  N_2
REMARK    2  A    between atoms: N_6  and  C_7
REMARK    3  A    between atoms: C_7  and  C_8
REMARK    4  A    between atoms: C_8  and  C_9
REMARK    5  A    between atoms: C_9  and  C_10
REMARK    6  A    between atoms: C_15  and  C_16
REMARK    7  A    between atoms: C_16  and  C_17
REMARK                            x       y       z     vdW  Elec       q    Type
REMARK                         _______ _______ _______ _____ _____    ______ ____
ROOT
ATOM      1  C   UNL     1       1.974   7.625  19.703  0.00  0.00    +0.000 C 
ATOM      2  O   UNL     1       2.113   8.357  18.724  0.00  0.00    +0.000 OA
ATOM      3  N   UNL     1       2.172   6.253  19.632  0.00  0.00    +0.000 N 
ATOM      4  C   UNL     1       2.695   5.684  18.392  0.00  0.00    +0.000 C 
ATOM      5  C   UNL     1       1.774   4.587  17.869  0.00  0.00    +0.000 C 
ATOM      6  C   UNL     1       1.498   3.500  18.925  0.00  0.00    +0.000 C 
ATOM      7  C   UNL     1       0.969   4.184  20.205  0.00  0.00    +0.000 C 
ATOM      8  C   UNL     1       1.899   5.295  20.704  0.00  0.00    +0.000 C 
ENDROOT
BRANCH   1   9
ATOM      9  C   UNL     1       1.598   8.199  21.059  0.00  0.00    +0.000 C 
BRANCH   9  10
ATOM     10  C   UNL     1       0.280   8.969  21.006  0.00  0.00    +0.000 C 
BRANCH  10  11
ATOM     11  C   UNL     1       0.524  10.461  20.801  0.00  0.00    +0.000 C 
BRANCH  11  17
ATOM     12  C   UNL     1      -3.104  12.435  23.511  0.00  0.00    +0.000 C 
ATOM     13  N   UNL     1      -2.214  12.221  22.398  0.00  0.00    +0.000 N 
ATOM     14  C   UNL     1      -2.556  12.586  21.045  0.00  0.00    +0.000 C 
ATOM     15  C   UNL     1      -1.484  11.834  20.277  0.00  0.00    +0.000 C 
ATOM     16  O   UNL     1      -1.414  11.783  19.055  0.00  0.00    +0.000 OA
ATOM     17  N   UNL     1      -0.626  11.261  21.170  0.00  0.00    +0.000 N 
ATOM     18  C   UNL     1      -1.084  11.420  22.449  0.00  0.00    +0.000 C 
ATOM     19  O   UNL     1      -0.604  10.926  23.462  0.00  0.00    +0.000 OA
ENDBRANCH  11  17
ENDBRANCH  10  11
ENDBRANCH   9  10
ENDBRANCH   1   9
BRANCH   6  20
ATOM     20  C   UNL     1       2.712   2.606  19.253  0.00  0.00    +0.000 C 
BRANCH  20  21
ATOM     21  C   UNL     1       3.359   1.901  18.071  0.00  0.00    +0.000 C 
ATOM     22  F   UNL     1       4.333   2.623  17.486  0.00  0.00    +0.000 F 
ATOM     23  F   UNL     1       3.895   0.724  18.465  0.00  0.00    +0.000 F 
ATOM     24  F   UNL     1       2.434   1.626  17.123  0.00  0.00    +0.000 F 
ENDBRANCH  20  21
ENDBRANCH   6  20
TORSDOF 6
ENDMDL
MODEL 5
REMARK VINA RESULT:      -7.5      4.492      5.680
REMARK  Name = 
REMARK  7 active torsions:
REMARK  status: ('A' for Active; 'I' for Inactive)
REMARK    1  A    between atoms: C_1  and  N_2
REMARK    2  A    between atoms: N_6  and  C_7
REMARK    3  A    between atoms: C_7  and  C_8
REMARK    4  A    between atoms: C_8  and  C_9
REMARK    5  A    between atoms: C_9  and  C_10
REMARK    6  A    between atoms: C_15  and  C_16
REMARK    7  A    between atoms: C_16  and  C_17
REMARK                            x       y       z     vdW  Elec       q    Type
REMARK                         _______ _______ _______ _____ _____    ______ ____
ROOT
ATOM      1  C   UNL     1       2.257   6.172  19.937  0.00  0.00    +0.000 C 
ATOM      2  O   UNL     1       1.839   5.472  20.859  0.00  0.00    +0.000 OA
ATOM      3  N   UNL     1       3.026   5.652  18.906  0.00  0.00    +0.000 N 
ATOM      4  C   UNL     1       3.227   4.207  18.842  0.00  0.00    +0.000 C 
ATOM      5  C   UNL     1       4.713   3.867  18.803  0.00  0.00    +0.000 C 
ATOM      6  C   UNL     1       5.452   4.598  17.666  0.00  0.00    +0.000 C 
ATOM      7  C   UNL     1       5.173   6.112  17.795  0.00  0.00    +0.000 C 
ATOM      8  C   UNL     1       3.676   6.430  17.851  0.00  0.00    +0.000 C 
ENDROOT
BRANCH   1   9
ATOM      9  C   UNL     1       1.926   7.655  19.873  0.00  0.00    +0.000 C 
BRANCH   9  10
ATOM     10  C   UNL     1       1.507   8.205  21.235  0.00  0.00    +0.000 C 
BRANCH  10  11
ATOM     11  C   UNL     1       0.008   8.484  21.277  0.00  0.00    +0.000 C 
BRANCH  11  17
ATOM     12  C   UNL     1      -1.118  13.009  22.908  0.00  0.00    +0.000 C 
ATOM     13  N   UNL     1      -0.711  11.962  22.005  0.00  0.00    +0.000 N 
ATOM     14  C   UNL     1      -0.867  12.061  20.575  0.00  0.00    +0.000 C 
ATOM     15  C   UNL     1      -0.642  10.615  20.171  0.00  0.00    +0.000 C 
ATOM     16  O   UNL     1      -0.751  10.191  19.028  0.00  0.00    +0.000 OA
ATOM     17  N   UNL     1      -0.286   9.902  21.278  0.00  0.00    +0.000 N 
ATOM     18  C   UNL     1      -0.390  10.674  22.403  0.00  0.00    +0.000 C 
ATOM     19  O   UNL     1      -0.250  10.298  23.561  0.00  0.00    +0.000 OA
ENDBRANCH  11  17
ENDBRANCH  10  11
ENDBRANCH   9  10
ENDBRANCH   1   9
BRANCH   6  20
ATOM     20  C   UNL     1       5.093   4.102  16.250  0.00  0.00    +0.000 C 
BRANCH  20  21
ATOM     21  C   UNL     1       6.132   4.359  15.170  0.00  0.00    +0.000 C 
ATOM     22  F   UNL     1       7.394   4.382  15.637  0.00  0.00    +0.000 F 
ATOM     23  F   UNL     1       6.061   3.404  14.215  0.00  0.00    +0.000 F 
ATOM     24  F   UNL     1       5.902   5.549  14.568  0.00  0.00    +0.000 F 
ENDBRANCH  20  21
ENDBRANCH   6  20
TORSDOF 6
ENDMDL
MODEL 6
REMARK VINA RESULT:      -7.5      4.365      5.827
REMARK  Name = 
REMARK  7 active torsions:
REMARK  status: ('A' for Active; 'I' for Inactive)
REMARK    1  A    between atoms: C_1  and  N_2
REMARK    2  A    between atoms: N_6  and  C_7
REMARK    3  A    between atoms: C_7  and  C_8
REMARK    4  A    between atoms: C_8  and  C_9
REMARK    5  A    between atoms: C_9  and  C_10
REMARK    6  A    between atoms: C_15  and  C_16
REMARK    7  A    between atoms: C_16  and  C_17
REMARK                            x       y       z     vdW  Elec       q    Type
REMARK                         _______ _______ _______ _____ _____    ______ ____
ROOT
ATOM      1  C   UNL     1       2.276   6.117  19.966  0.00  0.00    +0.000 C 
ATOM      2  O   UNL     1       1.849   5.424  20.889  0.00  0.00    +0.000 OA
ATOM      3  N   UNL     1       3.051   5.589  18.943  0.00  0.00    +0.000 N 
ATOM      4  C   UNL     1       3.248   4.142  18.890  0.00  0.00    +0.000 C 
ATOM      5  C   UNL     1       4.733   3.799  18.863  0.00  0.00    +0.000 C 
ATOM      6  C   UNL     1       5.482   4.521  17.727  0.00  0.00    +0.000 C 
ATOM      7  C   UNL     1       5.206   6.036  17.844  0.00  0.00    +0.000 C 
ATOM      8  C   UNL     1       3.709   6.359  17.888  0.00  0.00    +0.000 C 
ENDROOT
BRANCH   1   9
ATOM      9  C   UNL     1       1.949   7.600  19.890  0.00  0.00    +0.000 C 
BRANCH   9  10
ATOM     10  C   UNL     1       1.521   8.160  21.245  0.00  0.00    +0.000 C 
BRANCH  10  11
ATOM     11  C   UNL     1       0.011   8.371  21.301  0.00  0.00    +0.000 C 
BRANCH  11  17
ATOM     12  C   UNL     1      -0.910  12.955  19.709  0.00  0.00    +0.000 C 
ATOM     13  N   UNL     1      -0.846  11.822  20.597  0.00  0.00    +0.000 N 
ATOM     14  C   UNL     1      -0.794  11.959  22.032  0.00  0.00    +0.000 C 
ATOM     15  C   UNL     1      -0.374  10.554  22.429  0.00  0.00    +0.000 C 
ATOM     16  O   UNL     1      -0.127  10.203  23.575  0.00  0.00    +0.000 OA
ATOM     17  N   UNL     1      -0.347   9.774  21.310  0.00  0.00    +0.000 N 
ATOM     18  C   UNL     1      -0.557  10.530  20.189  0.00  0.00    +0.000 C 
ATOM     19  O   UNL     1      -0.481  10.148  19.027  0.00  0.00    +0.000 OA
ENDBRANCH  11  17
ENDBRANCH  10  11
ENDBRANCH   9  10
ENDBRANCH   1   9
BRANCH   6  20
ATOM     20  C   UNL     1       5.131   4.016  16.311  0.00  0.00    +0.000 C 
BRANCH  20  21
ATOM     21  C   UNL     1       6.131   4.355  15.216  0.00  0.00    +0.000 C 
ATOM     22  F   UNL     1       6.170   3.443  14.228  0.00  0.00    +0.000 F 
ATOM     23  F   UNL     1       5.832   5.553  14.664  0.00  0.00    +0.000 F 
ATOM     24  F   UNL     1       7.379   4.449  15.730  0.00  0.00    +0.000 F 
ENDBRANCH  20  21
ENDBRANCH   6  20
TORSDOF 6
ENDMDL
MODEL 7
REMARK VINA RESULT:      -7.4      6.414      8.579
REMARK  Name = 
REMARK  7 active torsions:
REMARK  status: ('A' for Active; 'I' for Inactive)
REMARK    1  A    between atoms: C_1  and  N_2
REMARK    2  A    between atoms: N_6  and  C_7
REMARK    3  A    between atoms: C_7  and  C_8
REMARK    4  A    between atoms: C_8  and  C_9
REMARK    5  A    between atoms: C_9  and  C_10
REMARK    6  A    between atoms: C_15  and  C_16
REMARK    7  A    between atoms: C_16  and  C_17
REMARK                            x       y       z     vdW  Elec       q    Type
REMARK                         _______ _______ _______ _____ _____    ______ ____
ROOT
ATOM      1  C   UNL     1       2.122   7.140  19.475  0.00  0.00    +0.000 C 
ATOM      2  O   UNL     1       2.234   6.147  20.194  0.00  0.00    +0.000 OA
ATOM      3  N   UNL     1       1.602   8.337  19.947  0.00  0.00    +0.000 N 
ATOM      4  C   UNL     1       1.310   8.459  21.373  0.00  0.00    +0.000 C 
ATOM      5  C   UNL     1      -0.139   8.879  21.595  0.00  0.00    +0.000 C 
ATOM      6  C   UNL     1      -0.504  10.162  20.824  0.00  0.00    +0.000 C 
ATOM      7  C   UNL     1      -0.147   9.956  19.336  0.00  0.00    +0.000 C 
ATOM      8  C   UNL     1       1.307   9.518  19.135  0.00  0.00    +0.000 C 
ENDROOT
BRANCH   1   9
ATOM      9  C   UNL     1       2.575   7.108  18.024  0.00  0.00    +0.000 C 
BRANCH   9  10
ATOM     10  C   UNL     1       4.041   6.698  17.894  0.00  0.00    +0.000 C 
BRANCH  10  11
ATOM     11  C   UNL     1       4.175   5.358  17.176  0.00  0.00    +0.000 C 
BRANCH  11  17
ATOM     12  C   UNL     1       4.818   1.758  20.496  0.00  0.00    +0.000 C 
ATOM     13  N   UNL     1       4.143   2.666  19.602  0.00  0.00    +0.000 N 
ATOM     14  C   UNL     1       2.854   2.376  19.024  0.00  0.00    +0.000 C 
ATOM     15  C   UNL     1       2.796   3.431  17.934  0.00  0.00    +0.000 C 
ATOM     16  O   UNL     1       1.894   3.530  17.113  0.00  0.00    +0.000 OA
ATOM     17  N   UNL     1       3.891   4.238  18.048  0.00  0.00    +0.000 N 
ATOM     18  C   UNL     1       4.749   3.755  18.997  0.00  0.00    +0.000 C 
ATOM     19  O   UNL     1       5.867   4.185  19.257  0.00  0.00    +0.000 OA
ENDBRANCH  11  17
ENDBRANCH  10  11
ENDBRANCH   9  10
ENDBRANCH   1   9
BRANCH   6  20
ATOM     20  C   UNL     1       0.164  11.443  21.367  0.00  0.00    +0.000 C 
BRANCH  20  21
ATOM     21  C   UNL     1      -0.717  12.343  22.219  0.00  0.00    +0.000 C 
ATOM     22  F   UNL     1      -0.143  13.523  22.520  0.00  0.00    +0.000 F 
ATOM     23  F   UNL     1      -1.881  12.600  21.580  0.00  0.00    +0.000 F 
ATOM     24  F   UNL     1      -1.025  11.734  23.387  0.00  0.00    +0.000 F 
ENDBRANCH  20  21
ENDBRANCH   6  20
TORSDOF 6
ENDMDL
MODEL 8
REMARK VINA RESULT:      -7.4      5.972      8.307
REMARK  Name = 
REMARK  7 active torsions:
REMARK  status: ('A' for Active; 'I' for Inactive)
REMARK    1  A    between atoms: C_1  and  N_2
REMARK    2  A    between atoms: N_6  and  C_7
REMARK    3  A    between atoms: C_7  and  C_8
REMARK    4  A    between atoms: C_8  and  C_9
REMARK    5  A    between atoms: C_9  and  C_10
REMARK    6  A    between atoms: C_15  and  C_16
REMARK    7  A    between atoms: C_16  and  C_17
REMARK                            x       y       z     vdW  Elec       q    Type
REMARK                         _______ _______ _______ _____ _____    ______ ____
ROOT
ATOM      1  C   UNL     1       7.659   7.034  18.316  0.00  0.00    +0.000 C 
ATOM      2  O   UNL     1       8.461   6.514  19.091  0.00  0.00    +0.000 OA
ATOM      3  N   UNL     1       6.407   6.487  18.072  0.00  0.00    +0.000 N 
ATOM      4  C   UNL     1       5.979   5.337  18.865  0.00  0.00    +0.000 C 
ATOM      5  C   UNL     1       5.576   4.177  17.962  0.00  0.00    +0.000 C 
ATOM      6  C   UNL     1       4.513   4.583  16.924  0.00  0.00    +0.000 C 
ATOM      7  C   UNL     1       5.034   5.811  16.146  0.00  0.00    +0.000 C 
ATOM      8  C   UNL     1       5.450   6.959  17.071  0.00  0.00    +0.000 C 
ENDROOT
BRANCH   1   9
ATOM      9  C   UNL     1       7.998   8.331  17.597  0.00  0.00    +0.000 C 
BRANCH   9  10
ATOM     10  C   UNL     1       8.515   9.398  18.560  0.00  0.00    +0.000 C 
BRANCH  10  11
ATOM     11  C   UNL     1       9.362  10.434  17.828  0.00  0.00    +0.000 C 
BRANCH  11  17
ATOM     12  C   UNL     1       7.752  15.095  18.114  0.00  0.00    +0.000 C 
ATOM     13  N   UNL     1       8.356  13.849  18.513  0.00  0.00    +0.000 N 
ATOM     14  C   UNL     1       9.350  13.762  19.555  0.00  0.00    +0.000 C 
ATOM     15  C   UNL     1       9.885  12.362  19.310  0.00  0.00    +0.000 C 
ATOM     16  O   UNL     1      10.820  11.862  19.922  0.00  0.00    +0.000 OA
ATOM     17  N   UNL     1       9.141  11.775  18.328  0.00  0.00    +0.000 N 
ATOM     18  C   UNL     1       8.264  12.673  17.786  0.00  0.00    +0.000 C 
ATOM     19  O   UNL     1       7.539  12.489  16.814  0.00  0.00    +0.000 OA
ENDBRANCH  11  17
ENDBRANCH  10  11
ENDBRANCH   9  10
ENDBRANCH   1   9
BRANCH   6  20
ATOM     20  C   UNL     1       3.119   4.871  17.518  0.00  0.00    +0.000 C 
BRANCH  20  21
ATOM     21  C   UNL     1       2.279   3.653  17.870  0.00  0.00    +0.000 C 
ATOM     22  F   UNL     1       2.480   2.609  17.045  0.00  0.00    +0.000 F 
ATOM     23  F   UNL     1       2.551   3.245  19.130  0.00  0.00    +0.000 F 
ATOM     24  F   UNL     1       0.962   3.959  17.821  0.00  0.00    +0.000 F 
ENDBRANCH  20  21
ENDBRANCH   6  20
TORSDOF 6
ENDMDL
MODEL 9
REMARK VINA RESULT:      -7.4      5.124      7.085
REMARK  Name = 
REMARK  7 active torsions:
REMARK  status: ('A' for Active; 'I' for Inactive)
REMARK    1  A    between atoms: C_1  and  N_2
REMARK    2  A    between atoms: N_6  and  C_7
REMARK    3  A    between atoms: C_7  and  C_8
REMARK    4  A    between atoms: C_8  and  C_9
REMARK    5  A    between atoms: C_9  and  C_10
REMARK    6  A    between atoms: C_15  and  C_16
REMARK    7  A    between atoms: C_16  and  C_17
REMARK                            x       y       z     vdW  Elec       q    Type
REMARK                         _______ _______ _______ _____ _____    ______ ____
ROOT
ATOM      1  C   UNL     1       1.813   7.828  19.916  0.00  0.00    +0.000 C 
ATOM      2  O   UNL     1       1.890   8.609  18.968  0.00  0.00    +0.000 OA
ATOM      3  N   UNL     1       2.098   6.476  19.784  0.00  0.00    +0.000 N 
ATOM      4  C   UNL     1       2.637   5.995  18.515  0.00  0.00    +0.000 C 
ATOM      5  C   UNL     1       1.781   4.864  17.957  0.00  0.00    +0.000 C 
ATOM      6  C   UNL     1       1.591   3.718  18.969  0.00  0.00    +0.000 C 
ATOM      7  C   UNL     1       1.038   4.313  20.283  0.00  0.00    +0.000 C 
ATOM      8  C   UNL     1       1.902   5.459  20.817  0.00  0.00    +0.000 C 
ENDROOT
BRANCH   1   9
ATOM      9  C   UNL     1       1.420   8.320  21.300  0.00  0.00    +0.000 C 
BRANCH   9  10
ATOM     10  C   UNL     1      -0.066   8.660  21.384  0.00  0.00    +0.000 C 
BRANCH  10  11
ATOM     11  C   UNL     1      -0.276  10.148  21.648  0.00  0.00    +0.000 C 
BRANCH  11  17
ATOM     12  C   UNL     1       1.643  13.720  18.826  0.00  0.00    +0.000 C 
ATOM     13  N   UNL     1       0.945  12.510  19.184  0.00  0.00    +0.000 N 
ATOM     14  C   UNL     1      -0.077  11.925  18.352  0.00  0.00    +0.000 C 
ATOM     15  C   UNL     1      -0.701  10.944  19.330  0.00  0.00    +0.000 C 
ATOM     16  O   UNL     1      -1.683  10.254  19.087  0.00  0.00    +0.000 OA
ATOM     17  N   UNL     1       0.024  10.958  20.485  0.00  0.00    +0.000 N 
ATOM     18  C   UNL     1       0.974  11.941  20.447  0.00  0.00    +0.000 C 
ATOM     19  O   UNL     1       1.708  12.283  21.368  0.00  0.00    +0.000 OA
ENDBRANCH  11  17
ENDBRANCH  10  11
ENDBRANCH   9  10
ENDBRANCH   1   9
BRANCH   6  20
ATOM     20  C   UNL     1       2.865   2.892  19.244  0.00  0.00    +0.000 C 
BRANCH  20  21
ATOM     21  C   UNL     1       3.372   2.044  18.088  0.00  0.00    +0.000 C 
ATOM     22  F   UNL     1       4.310   2.660  17.345  0.00  0.00    +0.000 F 
ATOM     23  F   UNL     1       3.902   0.889  18.551  0.00  0.00    +0.000 F 
ATOM     24  F   UNL     1       2.352   1.716  17.261  0.00  0.00    +0.000 F 
ENDBRANCH  20  21
ENDBRANCH   6  20
TORSDOF 6
ENDMDL
