MODEL 1
REMARK VINA RESULT:      -8.2      0.000      0.000
REMARK  Name = 
REMARK  10 active torsions:
REMARK  status: ('A' for Active; 'I' for Inactive)
REMARK    1  A    between atoms: C_1  and  O_2
REMARK    2  A    between atoms: O_2  and  C_3
REMARK    3  A    between atoms: C_5  and  C_6
REMARK    4  A    between atoms: C_9  and  S_10
REMARK    5  A    between atoms: S_10  and  C_13
REMARK    6  A    between atoms: C_13  and  C_14
REMARK    7  A    between atoms: C_23  and  O_24
REMARK    8  A    between atoms: O_24  and  C_25
REMARK    9  A    between atoms: C_26  and  O_27
REMARK   10  A    between atoms: O_27  and  C_28
REMARK                            x       y       z     vdW  Elec       q    Type
REMARK                         _______ _______ _______ _____ _____    ______ ____
ROOT
ATOM      1  C   UNL     1       8.406   8.948  18.141  0.00  0.00    +0.000 A 
ATOM      2  N   UNL     1       7.644   8.857  17.069  0.00  0.00    +0.000 NA
ATOM      3  N   UNL     1       7.136   7.573  17.051  0.00  0.00    +0.000 NA
ATOM      4  C   UNL     1       7.607   6.960  18.125  0.00  0.00    +0.000 A 
ATOM      5  O   UNL     1       8.453   7.778  18.848  0.00  0.00    +0.000 OA
ENDROOT
BRANCH   1   8
ATOM      6  C   UNL     1      10.175  12.263  18.346  0.00  0.00    +0.000 A 
ATOM      7  C   UNL     1       9.697  11.031  17.866  0.00  0.00    +0.000 A 
ATOM      8  C   UNL     1       9.081  10.107  18.712  0.00  0.00    +0.000 A 
ATOM      9  C   UNL     1       9.078  10.380  20.079  0.00  0.00    +0.000 A 
ATOM     10  C   UNL     1       9.644  11.559  20.601  0.00  0.00    +0.000 A 
ATOM     11  C   UNL     1      10.188  12.531  19.731  0.00  0.00    +0.000 A 
BRANCH   6  13
ATOM     12  C   UNL     1      12.029  13.014  17.068  0.00  0.00    +0.000 C 
ATOM     13  O   UNL     1      10.663  13.189  17.459  0.00  0.00    +0.000 OA
ENDBRANCH   6  13
BRANCH  10  14
ATOM     14  O   UNL     1       9.540  11.590  21.970  0.00  0.00    +0.000 OA
ATOM     15  C   UNL     1       8.303  11.926  22.578  0.00  0.00    +0.000 C 
ENDBRANCH  10  14
BRANCH  11  16
ATOM     16  O   UNL     1      10.686  13.657  20.328  0.00  0.00    +0.000 OA
ATOM     17  C   UNL     1       9.884  14.812  20.506  0.00  0.00    +0.000 C 
ENDBRANCH  11  16
ENDBRANCH   1   8
BRANCH   4  18
ATOM     18  S   UNL     1       7.192   5.300  18.596  0.00  0.00    +0.000 S 
ATOM     19  O   UNL     1       8.197   4.467  17.959  0.00  0.00    +0.000 OA
ATOM     20  O   UNL     1       7.023   5.339  20.036  0.00  0.00    +0.000 OA
BRANCH  18  21
ATOM     21  C   UNL     1       5.611   5.057  17.794  0.00  0.00    +0.000 C 
BRANCH  21  22
ATOM     22  C   UNL     1       4.613   4.588  18.826  0.00  0.00    +0.000 A 
ATOM     23  C   UNL     1       4.549   3.237  19.202  0.00  0.00    +0.000 A 
ATOM     24  C   UNL     1       3.596   2.798  20.119  0.00  0.00    +0.000 A 
ATOM     25  C   UNL     1       2.699   3.708  20.673  0.00  0.00    +0.000 A 
ATOM     26  F   UNL     1       1.782   3.284  21.553  0.00  0.00    +0.000 F 
ATOM     27  C   UNL     1       2.752   5.055  20.324  0.00  0.00    +0.000 A 
ATOM     28  C   UNL     1       3.705   5.496  19.405  0.00  0.00    +0.000 A 
ENDBRANCH  21  22
ENDBRANCH  18  21
ENDBRANCH   4  18
TORSDOF 7
ENDMDL
MODEL 2
REMARK VINA RESULT:      -8.1      0.466      1.026
REMARK  Name = 
REMARK  10 active torsions:
REMARK  status: ('A' for Active; 'I' for Inactive)
REMARK    1  A    between atoms: C_1  and  O_2
REMARK    2  A    between atoms: O_2  and  C_3
REMARK    3  A    between atoms: C_5  and  C_6
REMARK    4  A    between atoms: C_9  and  S_10
REMARK    5  A    between atoms: S_10  and  C_13
REMARK    6  A    between atoms: C_13  and  C_14
REMARK    7  A    between atoms: C_23  and  O_24
REMARK    8  A    between atoms: O_24  and  C_25
REMARK    9  A    between atoms: C_26  and  O_27
REMARK   10  A    between atoms: O_27  and  C_28
REMARK                            x       y       z     vdW  Elec       q    Type
REMARK                         _______ _______ _______ _____ _____    ______ ____
ROOT
ATOM      1  C   UNL     1       8.506   8.954  18.229  0.00  0.00    +0.000 A 
ATOM      2  N   UNL     1       7.665   8.972  17.213  0.00  0.00    +0.000 NA
ATOM      3  N   UNL     1       7.086   7.721  17.156  0.00  0.00    +0.000 NA
ATOM      4  C   UNL     1       7.596   7.016  18.153  0.00  0.00    +0.000 A 
ATOM      5  O   UNL     1       8.537   7.741  18.859  0.00  0.00    +0.000 OA
ENDROOT
BRANCH   1   8
ATOM      6  C   UNL     1      10.859  11.879  18.488  0.00  0.00    +0.000 A 
ATOM      7  C   UNL     1      10.235  10.702  18.039  0.00  0.00    +0.000 A 
ATOM      8  C   UNL     1       9.286  10.037  18.817  0.00  0.00    +0.000 A 
ATOM      9  C   UNL     1       9.074  10.495  20.116  0.00  0.00    +0.000 A 
ATOM     10  C   UNL     1       9.763  11.611  20.630  0.00  0.00    +0.000 A 
ATOM     11  C   UNL     1      10.658  12.333  19.809  0.00  0.00    +0.000 A 
BRANCH   6  13
ATOM     12  C   UNL     1      11.064  13.531  16.795  0.00  0.00    +0.000 C 
ATOM     13  O   UNL     1      11.694  12.565  17.643  0.00  0.00    +0.000 OA
ENDBRANCH   6  13
BRANCH  10  14
ATOM     14  O   UNL     1       9.403  11.853  21.933  0.00  0.00    +0.000 OA
ATOM     15  C   UNL     1       8.202  12.552  22.217  0.00  0.00    +0.000 C 
ENDBRANCH  10  14
BRANCH  11  16
ATOM     16  O   UNL     1      11.256  13.420  20.387  0.00  0.00    +0.000 OA
ATOM     17  C   UNL     1      10.665  14.706  20.322  0.00  0.00    +0.000 C 
ENDBRANCH  11  16
ENDBRANCH   1   8
BRANCH   4  18
ATOM     18  S   UNL     1       7.121   5.354  18.552  0.00  0.00    +0.000 S 
ATOM     19  O   UNL     1       8.096   4.512  17.878  0.00  0.00    +0.000 OA
ATOM     20  O   UNL     1       6.954   5.337  19.993  0.00  0.00    +0.000 OA
BRANCH  18  21
ATOM     21  C   UNL     1       5.532   5.202  17.743  0.00  0.00    +0.000 C 
BRANCH  21  22
ATOM     22  C   UNL     1       4.530   4.672  18.742  0.00  0.00    +0.000 A 
ATOM     23  C   UNL     1       3.613   5.532  19.364  0.00  0.00    +0.000 A 
ATOM     24  C   UNL     1       2.720   5.050  20.320  0.00  0.00    +0.000 A 
ATOM     25  C   UNL     1       2.735   3.699  20.659  0.00  0.00    +0.000 A 
ATOM     26  F   UNL     1       1.879   3.238  21.580  0.00  0.00    +0.000 F 
ATOM     27  C   UNL     1       3.629   2.826  20.047  0.00  0.00    +0.000 A 
ATOM     28  C   UNL     1       4.523   3.307  19.090  0.00  0.00    +0.000 A 
ENDBRANCH  21  22
ENDBRANCH  18  21
ENDBRANCH   4  18
TORSDOF 7
ENDMDL
MODEL 3
REMARK VINA RESULT:      -7.8      1.379      2.789
REMARK  Name = 
REMARK  10 active torsions:
REMARK  status: ('A' for Active; 'I' for Inactive)
REMARK    1  A    between atoms: C_1  and  O_2
REMARK    2  A    between atoms: O_2  and  C_3
REMARK    3  A    between atoms: C_5  and  C_6
REMARK    4  A    between atoms: C_9  and  S_10
REMARK    5  A    between atoms: S_10  and  C_13
REMARK    6  A    between atoms: C_13  and  C_14
REMARK    7  A    between atoms: C_23  and  O_24
REMARK    8  A    between atoms: O_24  and  C_25
REMARK    9  A    between atoms: C_26  and  O_27
REMARK   10  A    between atoms: O_27  and  C_28
REMARK                            x       y       z     vdW  Elec       q    Type
REMARK                         _______ _______ _______ _____ _____    ______ ____
ROOT
ATOM      1  C   UNL     1       8.514   9.094  18.157  0.00  0.00    +0.000 A 
ATOM      2  N   UNL     1       7.629   9.015  17.183  0.00  0.00    +0.000 NA
ATOM      3  N   UNL     1       7.123   7.731  17.209  0.00  0.00    +0.000 NA
ATOM      4  C   UNL     1       7.718   7.105  18.213  0.00  0.00    +0.000 A 
ATOM      5  O   UNL     1       8.645   7.915  18.839  0.00  0.00    +0.000 OA
ENDROOT
BRANCH   1   8
ATOM      6  C   UNL     1       9.915  11.617  20.572  0.00  0.00    +0.000 A 
ATOM      7  C   UNL     1       9.078  10.652  19.982  0.00  0.00    +0.000 A 
ATOM      8  C   UNL     1       9.253  10.246  18.658  0.00  0.00    +0.000 A 
ATOM      9  C   UNL     1      10.195  10.927  17.889  0.00  0.00    +0.000 A 
ATOM     10  C   UNL     1      10.975  11.970  18.424  0.00  0.00    +0.000 A 
ATOM     11  C   UNL     1      10.856  12.318  19.788  0.00  0.00    +0.000 A 
BRANCH   6  13
ATOM     12  C   UNL     1       8.669  12.721  22.264  0.00  0.00    +0.000 C 
ATOM     13  O   UNL     1       9.784  11.897  21.908  0.00  0.00    +0.000 OA
ENDBRANCH   6  13
BRANCH  10  14
ATOM     14  O   UNL     1      11.810  12.498  17.470  0.00  0.00    +0.000 OA
ATOM     15  C   UNL     1      11.304  13.426  16.523  0.00  0.00    +0.000 C 
ENDBRANCH  10  14
BRANCH  11  16
ATOM     16  O   UNL     1      11.677  13.322  20.224  0.00  0.00    +0.000 OA
ATOM     17  C   UNL     1      11.311  14.684  20.084  0.00  0.00    +0.000 C 
ENDBRANCH  11  16
ENDBRANCH   1   8
BRANCH   4  18
ATOM     18  S   UNL     1       7.361   5.439  18.708  0.00  0.00    +0.000 S 
ATOM     19  O   UNL     1       7.232   4.697  17.466  0.00  0.00    +0.000 OA
ATOM     20  O   UNL     1       8.366   5.110  19.701  0.00  0.00    +0.000 OA
BRANCH  18  21
ATOM     21  C   UNL     1       5.756   5.603  19.482  0.00  0.00    +0.000 C 
BRANCH  21  22
ATOM     22  C   UNL     1       4.824   4.577  18.884  0.00  0.00    +0.000 A 
ATOM     23  C   UNL     1       4.718   3.291  19.439  0.00  0.00    +0.000 A 
ATOM     24  C   UNL     1       3.893   2.331  18.857  0.00  0.00    +0.000 A 
ATOM     25  C   UNL     1       3.162   2.648  17.716  0.00  0.00    +0.000 A 
ATOM     26  F   UNL     1       2.371   1.722  17.157  0.00  0.00    +0.000 F 
ATOM     27  C   UNL     1       3.242   3.919  17.155  0.00  0.00    +0.000 A 
ATOM     28  C   UNL     1       4.068   4.882  17.735  0.00  0.00    +0.000 A 
ENDBRANCH  21  22
ENDBRANCH  18  21
ENDBRANCH   4  18
TORSDOF 7
ENDMDL
MODEL 4
REMARK VINA RESULT:      -7.8      6.711      9.794
REMARK  Name = 
REMARK  10 active torsions:
REMARK  status: ('A' for Active; 'I' for Inactive)
REMARK    1  A    between atoms: C_1  and  O_2
REMARK    2  A    between atoms: O_2  and  C_3
REMARK    3  A    between atoms: C_5  and  C_6
REMARK    4  A    between atoms: C_9  and  S_10
REMARK    5  A    between atoms: S_10  and  C_13
REMARK    6  A    between atoms: C_13  and  C_14
REMARK    7  A    between atoms: C_23  and  O_24
REMARK    8  A    between atoms: O_24  and  C_25
REMARK    9  A    between atoms: C_26  and  O_27
REMARK   10  A    between atoms: O_27  and  C_28
REMARK                            x       y       z     vdW  Elec       q    Type
REMARK                         _______ _______ _______ _____ _____    ______ ____
ROOT
ATOM      1  C   UNL     1       2.396   8.097  18.287  0.00  0.00    +0.000 A 
ATOM      2  N   UNL     1       2.621   8.898  17.264  0.00  0.00    +0.000 NA
ATOM      3  N   UNL     1       1.962  10.081  17.533  0.00  0.00    +0.000 NA
ATOM      4  C   UNL     1       1.386   9.938  18.716  0.00  0.00    +0.000 A 
ATOM      5  O   UNL     1       1.600   8.676  19.237  0.00  0.00    +0.000 OA
ENDROOT
BRANCH   1   8
ATOM      6  C   UNL     1       2.878   4.762  19.961  0.00  0.00    +0.000 A 
ATOM      7  C   UNL     1       2.539   6.108  19.737  0.00  0.00    +0.000 A 
ATOM      8  C   UNL     1       2.949   6.782  18.584  0.00  0.00    +0.000 A 
ATOM      9  C   UNL     1       3.824   6.122  17.723  0.00  0.00    +0.000 A 
ATOM     10  C   UNL     1       4.264   4.808  17.976  0.00  0.00    +0.000 A 
ATOM     11  C   UNL     1       3.778   4.100  19.098  0.00  0.00    +0.000 A 
BRANCH   6  13
ATOM     12  C   UNL     1       1.124   3.411  20.818  0.00  0.00    +0.000 C 
ATOM     13  O   UNL     1       2.354   4.106  21.046  0.00  0.00    +0.000 OA
ENDBRANCH   6  13
BRANCH  10  14
ATOM     14  O   UNL     1       5.135   4.386  17.002  0.00  0.00    +0.000 OA
ATOM     15  C   UNL     1       6.531   4.583  17.168  0.00  0.00    +0.000 C 
ENDBRANCH  10  14
BRANCH  11  16
ATOM     16  O   UNL     1       4.238   2.820  19.243  0.00  0.00    +0.000 OA
ATOM     17  C   UNL     1       3.566   1.724  18.646  0.00  0.00    +0.000 C 
ENDBRANCH  11  16
ENDBRANCH   1   8
BRANCH   4  18
ATOM     18  S   UNL     1       0.469  11.211  19.545  0.00  0.00    +0.000 S 
ATOM     19  O   UNL     1       1.141  11.387  20.822  0.00  0.00    +0.000 OA
ATOM     20  O   UNL     1       0.352  12.289  18.582  0.00  0.00    +0.000 OA
BRANCH  18  21
ATOM     21  C   UNL     1      -1.122  10.435  19.802  0.00  0.00    +0.000 C 
BRANCH  21  22
ATOM     22  C   UNL     1      -1.934  10.566  18.535  0.00  0.00    +0.000 A 
ATOM     23  C   UNL     1      -3.001  11.474  18.457  0.00  0.00    +0.000 A 
ATOM     24  C   UNL     1      -3.779  11.560  17.303  0.00  0.00    +0.000 A 
ATOM     25  C   UNL     1      -3.494  10.740  16.215  0.00  0.00    +0.000 A 
ATOM     26  F   UNL     1      -4.244  10.822  15.108  0.00  0.00    +0.000 F 
ATOM     27  C   UNL     1      -2.433   9.840  16.266  0.00  0.00    +0.000 A 
ATOM     28  C   UNL     1      -1.654   9.753  17.420  0.00  0.00    +0.000 A 
ENDBRANCH  21  22
ENDBRANCH  18  21
ENDBRANCH   4  18
TORSDOF 7
ENDMDL
MODEL 5
REMARK VINA RESULT:      -7.7      1.271      1.659
REMARK  Name = 
REMARK  10 active torsions:
REMARK  status: ('A' for Active; 'I' for Inactive)
REMARK    1  A    between atoms: C_1  and  O_2
REMARK    2  A    between atoms: O_2  and  C_3
REMARK    3  A    between atoms: C_5  and  C_6
REMARK    4  A    between atoms: C_9  and  S_10
REMARK    5  A    between atoms: S_10  and  C_13
REMARK    6  A    between atoms: C_13  and  C_14
REMARK    7  A    between atoms: C_23  and  O_24
REMARK    8  A    between atoms: O_24  and  C_25
REMARK    9  A    between atoms: C_26  and  O_27
REMARK   10  A    between atoms: O_27  and  C_28
REMARK                            x       y       z     vdW  Elec       q    Type
REMARK                         _______ _______ _______ _____ _____    ______ ____
ROOT
ATOM      1  C   UNL     1       8.248   8.909  18.082  0.00  0.00    +0.000 A 
ATOM      2  N   UNL     1       7.323   8.900  17.143  0.00  0.00    +0.000 NA
ATOM      3  N   UNL     1       6.866   7.600  17.048  0.00  0.00    +0.000 NA
ATOM      4  C   UNL     1       7.530   6.894  17.950  0.00  0.00    +0.000 A 
ATOM      5  O   UNL     1       8.454   7.670  18.624  0.00  0.00    +0.000 OA
ENDROOT
BRANCH   1   8
ATOM      6  C   UNL     1      10.149  12.145  18.352  0.00  0.00    +0.000 A 
ATOM      7  C   UNL     1       9.624  10.941  17.849  0.00  0.00    +0.000 A 
ATOM      8  C   UNL     1       8.966  10.029  18.676  0.00  0.00    +0.000 A 
ATOM      9  C   UNL     1       8.966  10.280  20.048  0.00  0.00    +0.000 A 
ATOM     10  C   UNL     1       9.575  11.426  20.593  0.00  0.00    +0.000 A 
ATOM     11  C   UNL     1      10.164  12.390  19.742  0.00  0.00    +0.000 A 
BRANCH   6  13
ATOM     12  C   UNL     1      12.106  13.054  17.363  0.00  0.00    +0.000 C 
ATOM     13  O   UNL     1      10.680  13.065  17.484  0.00  0.00    +0.000 OA
ENDBRANCH   6  13
BRANCH  10  14
ATOM     14  O   UNL     1       9.464  11.439  21.961  0.00  0.00    +0.000 OA
ATOM     15  C   UNL     1       8.322  12.017  22.573  0.00  0.00    +0.000 C 
ENDBRANCH  10  14
BRANCH  11  16
ATOM     16  O   UNL     1      10.704  13.484  20.361  0.00  0.00    +0.000 OA
ATOM     17  C   UNL     1       9.990  14.705  20.450  0.00  0.00    +0.000 C 
ENDBRANCH  11  16
ENDBRANCH   1   8
BRANCH   4  18
ATOM     18  S   UNL     1       7.258   5.171  18.272  0.00  0.00    +0.000 S 
ATOM     19  O   UNL     1       6.694   4.643  17.041  0.00  0.00    +0.000 OA
ATOM     20  O   UNL     1       8.509   4.680  18.819  0.00  0.00    +0.000 OA
BRANCH  18  21
ATOM     21  C   UNL     1       6.000   5.210  19.544  0.00  0.00    +0.000 C 
BRANCH  21  22
ATOM     22  C   UNL     1       4.651   5.001  18.896  0.00  0.00    +0.000 A 
ATOM     23  C   UNL     1       3.868   6.097  18.498  0.00  0.00    +0.000 A 
ATOM     24  C   UNL     1       2.604   5.903  17.943  0.00  0.00    +0.000 A 
ATOM     25  C   UNL     1       2.112   4.611  17.778  0.00  0.00    +0.000 A 
ATOM     26  F   UNL     1       0.896   4.428  17.248  0.00  0.00    +0.000 F 
ATOM     27  C   UNL     1       2.876   3.510  18.156  0.00  0.00    +0.000 A 
ATOM     28  C   UNL     1       4.141   3.702  18.711  0.00  0.00    +0.000 A 
ENDBRANCH  21  22
ENDBRANCH  18  21
ENDBRANCH   4  18
TORSDOF 7
ENDMDL
MODEL 6
REMARK VINA RESULT:      -7.6      0.325      2.579
REMARK  Name = 
REMARK  10 active torsions:
REMARK  status: ('A' for Active; 'I' for Inactive)
REMARK    1  A    between atoms: C_1  and  O_2
REMARK    2  A    between atoms: O_2  and  C_3
REMARK    3  A    between atoms: C_5  and  C_6
REMARK    4  A    between atoms: C_9  and  S_10
REMARK    5  A    between atoms: S_10  and  C_13
REMARK    6  A    between atoms: C_13  and  C_14
REMARK    7  A    between atoms: C_23  and  O_24
REMARK    8  A    between atoms: O_24  and  C_25
REMARK    9  A    between atoms: C_26  and  O_27
REMARK   10  A    between atoms: O_27  and  C_28
REMARK                            x       y       z     vdW  Elec       q    Type
REMARK                         _______ _______ _______ _____ _____    ______ ____
ROOT
ATOM      1  C   UNL     1       8.356   8.875  18.056  0.00  0.00    +0.000 A 
ATOM      2  N   UNL     1       7.680   8.689  16.940  0.00  0.00    +0.000 NA
ATOM      3  N   UNL     1       7.248   7.378  16.951  0.00  0.00    +0.000 NA
ATOM      4  C   UNL     1       7.674   6.844  18.085  0.00  0.00    +0.000 A 
ATOM      5  O   UNL     1       8.418   7.744  18.823  0.00  0.00    +0.000 OA
ENDROOT
BRANCH   1   8
ATOM      6  C   UNL     1       9.599  11.355  20.599  0.00  0.00    +0.000 A 
ATOM      7  C   UNL     1       8.887  10.303  19.995  0.00  0.00    +0.000 A 
ATOM      8  C   UNL     1       8.922  10.097  18.614  0.00  0.00    +0.000 A 
ATOM      9  C   UNL     1       9.573  11.050  17.832  0.00  0.00    +0.000 A 
ATOM     10  C   UNL     1      10.206  12.171  18.402  0.00  0.00    +0.000 A 
ATOM     11  C   UNL     1      10.242  12.328  19.806  0.00  0.00    +0.000 A 
BRANCH   6  13
ATOM     12  C   UNL     1       8.476  12.026  22.580  0.00  0.00    +0.000 C 
ATOM     13  O   UNL     1       9.633  11.447  21.968  0.00  0.00    +0.000 OA
ENDBRANCH   6  13
BRANCH  10  14
ATOM     14  O   UNL     1      10.753  12.973  17.431  0.00  0.00    +0.000 OA
ATOM     15  C   UNL     1      12.147  12.917  17.171  0.00  0.00    +0.000 C 
ENDBRANCH  10  14
BRANCH  11  16
ATOM     16  O   UNL     1      10.907  13.432  20.267  0.00  0.00    +0.000 OA
ATOM     17  C   UNL     1      10.232  14.659  20.485  0.00  0.00    +0.000 C 
ENDBRANCH  11  16
ENDBRANCH   1   8
BRANCH   4  18
ATOM     18  S   UNL     1       7.319   5.186  18.608  0.00  0.00    +0.000 S 
ATOM     19  O   UNL     1       8.436   4.393  18.123  0.00  0.00    +0.000 OA
ATOM     20  O   UNL     1       7.002   5.287  20.020  0.00  0.00    +0.000 OA
BRANCH  18  21
ATOM     21  C   UNL     1       5.848   4.792  17.670  0.00  0.00    +0.000 C 
BRANCH  21  22
ATOM     22  C   UNL     1       4.698   4.601  18.631  0.00  0.00    +0.000 A 
ATOM     23  C   UNL     1       3.880   5.682  18.995  0.00  0.00    +0.000 A 
ATOM     24  C   UNL     1       2.849   5.514  19.919  0.00  0.00    +0.000 A 
ATOM     25  C   UNL     1       2.625   4.262  20.484  0.00  0.00    +0.000 A 
ATOM     26  F   UNL     1       1.636   4.104  21.374  0.00  0.00    +0.000 F 
ATOM     27  C   UNL     1       3.417   3.174  20.130  0.00  0.00    +0.000 A 
ATOM     28  C   UNL     1       4.450   3.340  19.206  0.00  0.00    +0.000 A 
ENDBRANCH  21  22
ENDBRANCH  18  21
ENDBRANCH   4  18
TORSDOF 7
ENDMDL
MODEL 7
REMARK VINA RESULT:      -7.6      1.336      1.635
REMARK  Name = 
REMARK  10 active torsions:
REMARK  status: ('A' for Active; 'I' for Inactive)
REMARK    1  A    between atoms: C_1  and  O_2
REMARK    2  A    between atoms: O_2  and  C_3
REMARK    3  A    between atoms: C_5  and  C_6
REMARK    4  A    between atoms: C_9  and  S_10
REMARK    5  A    between atoms: S_10  and  C_13
REMARK    6  A    between atoms: C_13  and  C_14
REMARK    7  A    between atoms: C_23  and  O_24
REMARK    8  A    between atoms: O_24  and  C_25
REMARK    9  A    between atoms: C_26  and  O_27
REMARK   10  A    between atoms: O_27  and  C_28
REMARK                            x       y       z     vdW  Elec       q    Type
REMARK                         _______ _______ _______ _____ _____    ______ ____
ROOT
ATOM      1  C   UNL     1       8.670   9.208  18.385  0.00  0.00    +0.000 A 
ATOM      2  N   UNL     1       7.991   9.165  17.255  0.00  0.00    +0.000 NA
ATOM      3  N   UNL     1       7.489   7.884  17.142  0.00  0.00    +0.000 NA
ATOM      4  C   UNL     1       7.878   7.224  18.221  0.00  0.00    +0.000 A 
ATOM      5  O   UNL     1       8.665   8.008  19.041  0.00  0.00    +0.000 OA
ENDROOT
BRANCH   1   8
ATOM      6  C   UNL     1      10.587  12.408  18.873  0.00  0.00    +0.000 A 
ATOM      7  C   UNL     1      10.129  11.194  18.330  0.00  0.00    +0.000 A 
ATOM      8  C   UNL     1       9.298  10.338  19.056  0.00  0.00    +0.000 A 
ATOM      9  C   UNL     1       9.047  10.654  20.391  0.00  0.00    +0.000 A 
ATOM     10  C   UNL     1       9.579  11.811  20.992  0.00  0.00    +0.000 A 
ATOM     11  C   UNL     1      10.348  12.719  20.228  0.00  0.00    +0.000 A 
BRANCH   6  13
ATOM     12  C   UNL     1      11.135  13.105  16.671  0.00  0.00    +0.000 C 
ATOM     13  O   UNL     1      11.301  13.273  18.082  0.00  0.00    +0.000 OA
ENDBRANCH   6  13
BRANCH  10  14
ATOM     14  O   UNL     1       9.213  11.891  22.313  0.00  0.00    +0.000 OA
ATOM     15  C   UNL     1       7.959  12.454  22.666  0.00  0.00    +0.000 C 
ENDBRANCH  10  14
BRANCH  11  16
ATOM     16  O   UNL     1      10.796  13.829  20.891  0.00  0.00    +0.000 OA
ATOM     17  C   UNL     1      10.071  15.046  20.861  0.00  0.00    +0.000 C 
ENDBRANCH  11  16
ENDBRANCH   1   8
BRANCH   4  18
ATOM     18  S   UNL     1       7.430   5.545  18.584  0.00  0.00    +0.000 S 
ATOM     19  O   UNL     1       7.338   4.893  17.289  0.00  0.00    +0.000 OA
ATOM     20  O   UNL     1       8.368   5.109  19.601  0.00  0.00    +0.000 OA
BRANCH  18  21
ATOM     21  C   UNL     1       5.795   5.725  19.286  0.00  0.00    +0.000 C 
BRANCH  21  22
ATOM     22  C   UNL     1       4.908   4.635  18.732  0.00  0.00    +0.000 A 
ATOM     23  C   UNL     1       4.163   4.841  17.561  0.00  0.00    +0.000 A 
ATOM     24  C   UNL     1       3.309   3.850  17.077  0.00  0.00    +0.000 A 
ATOM     25  C   UNL     1       3.196   2.642  17.760  0.00  0.00    +0.000 A 
ATOM     26  F   UNL     1       2.373   1.693  17.296  0.00  0.00    +0.000 F 
ATOM     27  C   UNL     1       3.935   2.412  18.918  0.00  0.00    +0.000 A 
ATOM     28  C   UNL     1       4.789   3.402  19.403  0.00  0.00    +0.000 A 
ENDBRANCH  21  22
ENDBRANCH  18  21
ENDBRANCH   4  18
TORSDOF 7
ENDMDL
MODEL 8
REMARK VINA RESULT:      -7.6      6.719      9.807
REMARK  Name = 
REMARK  10 active torsions:
REMARK  status: ('A' for Active; 'I' for Inactive)
REMARK    1  A    between atoms: C_1  and  O_2
REMARK    2  A    between atoms: O_2  and  C_3
REMARK    3  A    between atoms: C_5  and  C_6
REMARK    4  A    between atoms: C_9  and  S_10
REMARK    5  A    between atoms: S_10  and  C_13
REMARK    6  A    between atoms: C_13  and  C_14
REMARK    7  A    between atoms: C_23  and  O_24
REMARK    8  A    between atoms: O_24  and  C_25
REMARK    9  A    between atoms: C_26  and  O_27
REMARK   10  A    between atoms: O_27  and  C_28
REMARK                            x       y       z     vdW  Elec       q    Type
REMARK                         _______ _______ _______ _____ _____    ______ ____
ROOT
ATOM      1  C   UNL     1       2.406   7.941  18.293  0.00  0.00    +0.000 A 
ATOM      2  N   UNL     1       2.675   8.736  17.276  0.00  0.00    +0.000 NA
ATOM      3  N   UNL     1       2.057   9.942  17.540  0.00  0.00    +0.000 NA
ATOM      4  C   UNL     1       1.460   9.817  18.715  0.00  0.00    +0.000 A 
ATOM      5  O   UNL     1       1.619   8.547  19.234  0.00  0.00    +0.000 OA
ENDROOT
BRANCH   1   8
ATOM      6  C   UNL     1       2.505   4.418  19.611  0.00  0.00    +0.000 A 
ATOM      7  C   UNL     1       2.182   5.778  19.454  0.00  0.00    +0.000 A 
ATOM      8  C   UNL     1       2.906   6.606  18.594  0.00  0.00    +0.000 A 
ATOM      9  C   UNL     1       4.051   6.079  17.997  0.00  0.00    +0.000 A 
ATOM     10  C   UNL     1       4.458   4.750  18.218  0.00  0.00    +0.000 A 
ATOM     11  C   UNL     1       3.674   3.891  19.021  0.00  0.00    +0.000 A 
BRANCH   6  13
ATOM     12  C   UNL     1       2.124   3.400  21.721  0.00  0.00    +0.000 C 
ATOM     13  O   UNL     1       1.694   3.616  20.373  0.00  0.00    +0.000 OA
ENDBRANCH   6  13
BRANCH  10  14
ATOM     14  O   UNL     1       5.622   4.474  17.544  0.00  0.00    +0.000 OA
ATOM     15  C   UNL     1       5.571   4.029  16.197  0.00  0.00    +0.000 C 
ENDBRANCH  10  14
BRANCH  11  16
ATOM     16  O   UNL     1       4.134   2.609  19.153  0.00  0.00    +0.000 OA
ATOM     17  C   UNL     1       3.576   1.546  18.400  0.00  0.00    +0.000 C 
ENDBRANCH  11  16
ENDBRANCH   1   8
BRANCH   4  18
ATOM     18  S   UNL     1       0.579  11.120  19.536  0.00  0.00    +0.000 S 
ATOM     19  O   UNL     1       1.272  11.305  20.799  0.00  0.00    +0.000 OA
ATOM     20  O   UNL     1       0.467  12.185  18.556  0.00  0.00    +0.000 OA
BRANCH  18  21
ATOM     21  C   UNL     1      -1.022  10.379  19.829  0.00  0.00    +0.000 C 
BRANCH  21  22
ATOM     22  C   UNL     1      -1.859  10.523  18.580  0.00  0.00    +0.000 A 
ATOM     23  C   UNL     1      -1.573   9.766  17.433  0.00  0.00    +0.000 A 
ATOM     24  C   UNL     1      -2.316   9.935  16.266  0.00  0.00    +0.000 A 
ATOM     25  C   UNL     1      -3.355  10.861  16.236  0.00  0.00    +0.000 A 
ATOM     26  F   UNL     1      -4.065  11.024  15.112  0.00  0.00    +0.000 F 
ATOM     27  C   UNL     1      -3.663  11.615  17.365  0.00  0.00    +0.000 A 
ATOM     28  C   UNL     1      -2.920  11.447  18.534  0.00  0.00    +0.000 A 
ENDBRANCH  21  22
ENDBRANCH  18  21
ENDBRANCH   4  18
TORSDOF 7
ENDMDL
MODEL 9
REMARK VINA RESULT:      -7.6      6.226      9.342
REMARK  Name = 
REMARK  10 active torsions:
REMARK  status: ('A' for Active; 'I' for Inactive)
REMARK    1  A    between atoms: C_1  and  O_2
REMARK    2  A    between atoms: O_2  and  C_3
REMARK    3  A    between atoms: C_5  and  C_6
REMARK    4  A    between atoms: C_9  and  S_10
REMARK    5  A    between atoms: S_10  and  C_13
REMARK    6  A    between atoms: C_13  and  C_14
REMARK    7  A    between atoms: C_23  and  O_24
REMARK    8  A    between atoms: O_24  and  C_25
REMARK    9  A    between atoms: C_26  and  O_27
REMARK   10  A    between atoms: O_27  and  C_28
REMARK                            x       y       z     vdW  Elec       q    Type
REMARK                         _______ _______ _______ _____ _____    ______ ____
ROOT
ATOM      1  C   UNL     1       2.519   7.797  18.339  0.00  0.00    +0.000 A 
ATOM      2  N   UNL     1       2.750   8.574  17.299  0.00  0.00    +0.000 NA
ATOM      3  N   UNL     1       2.099   9.767  17.544  0.00  0.00    +0.000 NA
ATOM      4  C   UNL     1       1.522   9.653  18.730  0.00  0.00    +0.000 A 
ATOM      5  O   UNL     1       1.728   8.401  19.277  0.00  0.00    +0.000 OA
ENDROOT
BRANCH   1   8
ATOM      6  C   UNL     1       4.880   4.868  18.407  0.00  0.00    +0.000 A 
ATOM      7  C   UNL     1       4.196   6.023  17.990  0.00  0.00    +0.000 A 
ATOM      8  C   UNL     1       3.064   6.485  18.664  0.00  0.00    +0.000 A 
ATOM      9  C   UNL     1       2.544   5.686  19.682  0.00  0.00    +0.000 A 
ATOM     10  C   UNL     1       3.149   4.470  20.053  0.00  0.00    +0.000 A 
ATOM     11  C   UNL     1       4.344   4.051  19.426  0.00  0.00    +0.000 A 
BRANCH   6  13
ATOM     12  C   UNL     1       7.153   5.414  17.997  0.00  0.00    +0.000 C 
ATOM     13  O   UNL     1       6.055   4.520  17.791  0.00  0.00    +0.000 OA
ENDBRANCH   6  13
BRANCH  10  14
ATOM     14  O   UNL     1       2.443   3.857  21.058  0.00  0.00    +0.000 OA
ATOM     15  C   UNL     1       1.144   3.346  20.801  0.00  0.00    +0.000 C 
ENDBRANCH  10  14
BRANCH  11  16
ATOM     16  O   UNL     1       4.873   2.871  19.874  0.00  0.00    +0.000 OA
ATOM     17  C   UNL     1       4.326   1.624  19.483  0.00  0.00    +0.000 C 
ENDBRANCH  11  16
ENDBRANCH   1   8
BRANCH   4  18
ATOM     18  S   UNL     1       0.614  10.949  19.532  0.00  0.00    +0.000 S 
ATOM     19  O   UNL     1       1.268  11.126  20.817  0.00  0.00    +0.000 OA
ATOM     20  O   UNL     1       0.530  12.020  18.556  0.00  0.00    +0.000 OA
BRANCH  18  21
ATOM     21  C   UNL     1      -0.994  10.202  19.770  0.00  0.00    +0.000 C 
BRANCH  21  22
ATOM     22  C   UNL     1      -1.833  10.457  18.540  0.00  0.00    +0.000 A 
ATOM     23  C   UNL     1      -2.874  11.400  18.564  0.00  0.00    +0.000 A 
ATOM     24  C   UNL     1      -3.677  11.600  17.442  0.00  0.00    +0.000 A 
ATOM     25  C   UNL     1      -3.444  10.862  16.285  0.00  0.00    +0.000 A 
ATOM     26  F   UNL     1      -4.219  11.054  15.209  0.00  0.00    +0.000 F 
ATOM     27  C   UNL     1      -2.411   9.930  16.235  0.00  0.00    +0.000 A 
ATOM     28  C   UNL     1      -1.606   9.728  17.357  0.00  0.00    +0.000 A 
ENDBRANCH  21  22
ENDBRANCH  18  21
ENDBRANCH   4  18
TORSDOF 7
ENDMDL
