MODEL 1
REMARK VINA RESULT:      -7.4      0.000      0.000
REMARK  Name = 
REMARK  7 active torsions:
REMARK  status: ('A' for Active; 'I' for Inactive)
REMARK    1  A    between atoms: C_7  and  C_8
REMARK    2  A    between atoms: C_8  and  C_9
REMARK    3  A    between atoms: C_12  and  O_13
REMARK    4  A    between atoms: C_19  and  C_20
REMARK    5  A    between atoms: C_20  and  N_21
REMARK    6  A    between atoms: C_20  and  C_28
REMARK    7  A    between atoms: N_21  and  C_22
REMARK                            x       y       z     vdW  Elec       q    Type
REMARK                         _______ _______ _______ _____ _____    ______ ____
ROOT
ATOM      1  O   UNL     1       0.426  16.251  20.967  0.00  0.00    +0.000 OA
ATOM      2  C   UNL     1      -0.076  16.306  19.842  0.00  0.00    +0.000 C 
ATOM      3  C   UNL     1       0.367  17.372  18.829  0.00  0.00    +0.000 C 
ATOM      4  N   UNL     1       1.816  17.549  18.988  0.00  0.00    +0.000 N 
ATOM      5  C   UNL     1       2.650  16.764  18.198  0.00  0.00    +0.000 C 
ATOM      6  O   UNL     1       2.987  17.135  17.075  0.00  0.00    +0.000 OA
ATOM      7  C   UNL     1       2.856  15.311  18.699  0.00  0.00    +0.000 C 
ATOM      8  N   UNL     1       1.752  14.512  18.144  0.00  0.00    +0.000 N 
ATOM      9  C   UNL     1       1.308  13.395  18.821  0.00  0.00    +0.000 C 
ATOM     10  O   UNL     1       2.005  12.832  19.667  0.00  0.00    +0.000 OA
ATOM     11  C   UNL     1      -0.182  13.098  18.659  0.00  0.00    +0.000 C 
ATOM     12  C   UNL     1      -0.851  13.948  19.771  0.00  0.00    +0.000 C 
ATOM     13  N   UNL     1      -0.940  15.350  19.347  0.00  0.00    +0.000 N 
ATOM     14  H   UNL     1       2.043  17.481  19.978  0.00  0.00    +0.000 HD
ATOM     15  H   UNL     1       1.248  14.875  17.342  0.00  0.00    +0.000 HD
ATOM     16  H   UNL     1      -1.443  15.552  18.491  0.00  0.00    +0.000 HD
ENDROOT
BRANCH   7  17
ATOM     17  C   UNL     1       4.234  14.742  18.328  0.00  0.00    +0.000 C 
BRANCH  17  18
ATOM     18  C   UNL     1       5.185  14.881  19.496  0.00  0.00    +0.000 A 
ATOM     19  C   UNL     1       4.687  14.924  20.808  0.00  0.00    +0.000 A 
ATOM     20  C   UNL     1       5.537  15.209  21.879  0.00  0.00    +0.000 A 
ATOM     21  C   UNL     1       6.887  15.439  21.636  0.00  0.00    +0.000 A 
ATOM     22  C   UNL     1       7.404  15.354  20.349  0.00  0.00    +0.000 A 
ATOM     23  C   UNL     1       6.555  15.076  19.278  0.00  0.00    +0.000 A 
BRANCH  21  24
ATOM     24  O   UNL     1       7.742  15.771  22.645  0.00  0.00    +0.000 OA
ATOM     25  H   UNL     1       8.649  15.584  22.352  0.00  0.00    +0.000 HD
ENDBRANCH  21  24
ENDBRANCH  17  18
ENDBRANCH   7  17
BRANCH  11  26
ATOM     26  C   UNL     1      -0.422  11.570  18.807  0.00  0.00    +0.000 C 
BRANCH  26  27
ATOM     27  C   UNL     1      -1.722  11.058  18.175  0.00  0.00    +0.000 A 
ATOM     28  C   UNL     1      -1.657  10.187  17.075  0.00  0.00    +0.000 A 
ATOM     29  C   UNL     1      -2.817   9.844  16.357  0.00  0.00    +0.000 A 
ATOM     30  C   UNL     1      -4.046  10.372  16.732  0.00  0.00    +0.000 A 
ATOM     31  C   UNL     1      -4.138  11.200  17.848  0.00  0.00    +0.000 A 
ATOM     32  C   UNL     1      -2.988  11.526  18.575  0.00  0.00    +0.000 A 
ENDBRANCH  26  27
BRANCH  26  33
ATOM     33  N   UNL     1       0.702  10.861  18.155  0.00  0.00    +0.000 N 
ATOM     34  H   UNL     1       0.595  10.796  17.146  0.00  0.00    +0.000 HD
BRANCH  33  35
ATOM     35  C   UNL     1       1.207   9.639  18.612  0.00  0.00    +0.000 A 
ATOM     36  C   UNL     1       1.919   8.724  17.836  0.00  0.00    +0.000 A 
ATOM     37  C   UNL     1       2.429   7.545  18.393  0.00  0.00    +0.000 A 
ATOM     38  C   UNL     1       2.208   7.245  19.734  0.00  0.00    +0.000 A 
ATOM     39  C   UNL     1       1.458   8.117  20.514  0.00  0.00    +0.000 A 
ATOM     40  C   UNL     1       0.962   9.298  19.954  0.00  0.00    +0.000 A 
ENDBRANCH  33  35
ENDBRANCH  26  33
ENDBRANCH  11  26
TORSDOF 7
ENDMDL
MODEL 2
REMARK VINA RESULT:      -7.4      5.322      9.825
REMARK  Name = 
REMARK  7 active torsions:
REMARK  status: ('A' for Active; 'I' for Inactive)
REMARK    1  A    between atoms: C_7  and  C_8
REMARK    2  A    between atoms: C_8  and  C_9
REMARK    3  A    between atoms: C_12  and  O_13
REMARK    4  A    between atoms: C_19  and  C_20
REMARK    5  A    between atoms: C_20  and  N_21
REMARK    6  A    between atoms: C_20  and  C_28
REMARK    7  A    between atoms: N_21  and  C_22
REMARK                            x       y       z     vdW  Elec       q    Type
REMARK                         _______ _______ _______ _____ _____    ______ ____
ROOT
ATOM      1  O   UNL     1       2.506   2.863  18.729  0.00  0.00    +0.000 OA
ATOM      2  C   UNL     1       3.100   3.330  19.703  0.00  0.00    +0.000 C 
ATOM      3  C   UNL     1       4.594   3.056  19.926  0.00  0.00    +0.000 C 
ATOM      4  N   UNL     1       5.240   3.064  18.607  0.00  0.00    +0.000 N 
ATOM      5  C   UNL     1       5.754   4.274  18.150  0.00  0.00    +0.000 C 
ATOM      6  O   UNL     1       6.902   4.617  18.429  0.00  0.00    +0.000 OA
ATOM      7  C   UNL     1       4.708   5.250  17.552  0.00  0.00    +0.000 C 
ATOM      8  N   UNL     1       4.162   6.026  18.676  0.00  0.00    +0.000 N 
ATOM      9  C   UNL     1       2.876   6.521  18.606  0.00  0.00    +0.000 C 
ATOM     10  O   UNL     1       2.293   6.655  17.529  0.00  0.00    +0.000 OA
ATOM     11  C   UNL     1       2.149   6.608  19.947  0.00  0.00    +0.000 C 
ATOM     12  C   UNL     1       1.519   5.199  20.116  0.00  0.00    +0.000 C 
ATOM     13  N   UNL     1       2.536   4.245  20.569  0.00  0.00    +0.000 N 
ATOM     14  H   UNL     1       4.609   2.632  17.935  0.00  0.00    +0.000 HD
ATOM     15  H   UNL     1       4.693   6.066  19.539  0.00  0.00    +0.000 HD
ATOM     16  H   UNL     1       3.020   4.449  21.437  0.00  0.00    +0.000 HD
ENDROOT
BRANCH   7  17
ATOM     17  C   UNL     1       5.291   6.147  16.450  0.00  0.00    +0.000 C 
BRANCH  17  18
ATOM     18  C   UNL     1       5.773   5.302  15.292  0.00  0.00    +0.000 A 
ATOM     19  C   UNL     1       7.073   5.475  14.788  0.00  0.00    +0.000 A 
ATOM     20  C   UNL     1       7.475   4.815  13.625  0.00  0.00    +0.000 A 
ATOM     21  C   UNL     1       6.579   3.975  12.973  0.00  0.00    +0.000 A 
ATOM     22  C   UNL     1       5.305   3.757  13.484  0.00  0.00    +0.000 A 
ATOM     23  C   UNL     1       4.901   4.420  14.643  0.00  0.00    +0.000 A 
BRANCH  21  24
ATOM     24  O   UNL     1       6.912   3.353  11.806  0.00  0.00    +0.000 OA
ATOM     25  H   UNL     1       6.106   2.969  11.423  0.00  0.00    +0.000 HD
ENDBRANCH  21  24
ENDBRANCH  17  18
ENDBRANCH   7  17
BRANCH  11  26
ATOM     26  C   UNL     1       1.107   7.759  19.894  0.00  0.00    +0.000 C 
BRANCH  26  27
ATOM     27  C   UNL     1       0.717   8.337  21.260  0.00  0.00    +0.000 A 
ATOM     28  C   UNL     1      -0.642   8.471  21.589  0.00  0.00    +0.000 A 
ATOM     29  C   UNL     1      -1.038   9.163  22.749  0.00  0.00    +0.000 A 
ATOM     30  C   UNL     1      -0.080   9.726  23.582  0.00  0.00    +0.000 A 
ATOM     31  C   UNL     1       1.273   9.563  23.297  0.00  0.00    +0.000 A 
ATOM     32  C   UNL     1       1.669   8.859  22.155  0.00  0.00    +0.000 A 
ENDBRANCH  26  27
BRANCH  26  33
ATOM     33  N   UNL     1       1.677   8.862  19.088  0.00  0.00    +0.000 N 
ATOM     34  H   UNL     1       2.638   9.081  19.343  0.00  0.00    +0.000 HD
BRANCH  33  35
ATOM     35  C   UNL     1       1.009  10.069  18.856  0.00  0.00    +0.000 A 
ATOM     36  C   UNL     1      -0.297  10.184  18.380  0.00  0.00    +0.000 A 
ATOM     37  C   UNL     1      -0.902  11.438  18.223  0.00  0.00    +0.000 A 
ATOM     38  C   UNL     1      -0.197  12.602  18.512  0.00  0.00    +0.000 A 
ATOM     39  C   UNL     1       1.123  12.513  18.939  0.00  0.00    +0.000 A 
ATOM     40  C   UNL     1       1.716  11.258  19.104  0.00  0.00    +0.000 A 
ENDBRANCH  33  35
ENDBRANCH  26  33
ENDBRANCH  11  26
TORSDOF 7
ENDMDL
MODEL 3
REMARK VINA RESULT:      -7.4      5.266      9.766
REMARK  Name = 
REMARK  7 active torsions:
REMARK  status: ('A' for Active; 'I' for Inactive)
REMARK    1  A    between atoms: C_7  and  C_8
REMARK    2  A    between atoms: C_8  and  C_9
REMARK    3  A    between atoms: C_12  and  O_13
REMARK    4  A    between atoms: C_19  and  C_20
REMARK    5  A    between atoms: C_20  and  N_21
REMARK    6  A    between atoms: C_20  and  C_28
REMARK    7  A    between atoms: N_21  and  C_22
REMARK                            x       y       z     vdW  Elec       q    Type
REMARK                         _______ _______ _______ _____ _____    ______ ____
ROOT
ATOM      1  O   UNL     1       2.542   3.005  18.866  0.00  0.00    +0.000 OA
ATOM      2  C   UNL     1       3.133   3.516  19.821  0.00  0.00    +0.000 C 
ATOM      3  C   UNL     1       4.628   3.259  20.056  0.00  0.00    +0.000 C 
ATOM      4  N   UNL     1       5.276   3.217  18.739  0.00  0.00    +0.000 N 
ATOM      5  C   UNL     1       5.783   4.410  18.232  0.00  0.00    +0.000 C 
ATOM      6  O   UNL     1       6.929   4.771  18.499  0.00  0.00    +0.000 OA
ATOM      7  C   UNL     1       4.732   5.355  17.594  0.00  0.00    +0.000 C 
ATOM      8  N   UNL     1       4.181   6.173  18.686  0.00  0.00    +0.000 N 
ATOM      9  C   UNL     1       2.892   6.657  18.594  0.00  0.00    +0.000 C 
ATOM     10  O   UNL     1       2.310   6.744  17.512  0.00  0.00    +0.000 OA
ATOM     11  C   UNL     1       2.163   6.795  19.930  0.00  0.00    +0.000 C 
ATOM     12  C   UNL     1       1.540   5.391  20.156  0.00  0.00    +0.000 C 
ATOM     13  N   UNL     1       2.563   4.462  20.649  0.00  0.00    +0.000 N 
ATOM     14  H   UNL     1       4.648   2.755  18.084  0.00  0.00    +0.000 HD
ATOM     15  H   UNL     1       4.711   6.252  19.547  0.00  0.00    +0.000 HD
ATOM     16  H   UNL     1       3.045   4.704  21.507  0.00  0.00    +0.000 HD
ENDROOT
BRANCH   7  17
ATOM     17  C   UNL     1       5.311   6.210  16.457  0.00  0.00    +0.000 C 
BRANCH  17  18
ATOM     18  C   UNL     1       5.771   5.323  15.321  0.00  0.00    +0.000 A 
ATOM     19  C   UNL     1       7.082   5.430  14.831  0.00  0.00    +0.000 A 
ATOM     20  C   UNL     1       7.469   4.732  13.685  0.00  0.00    +0.000 A 
ATOM     21  C   UNL     1       6.545   3.918  13.038  0.00  0.00    +0.000 A 
ATOM     22  C   UNL     1       5.258   3.764  13.537  0.00  0.00    +0.000 A 
ATOM     23  C   UNL     1       4.869   4.467  14.678  0.00  0.00    +0.000 A 
BRANCH  21  24
ATOM     24  O   UNL     1       6.865   3.259  11.888  0.00  0.00    +0.000 OA
ATOM     25  H   UNL     1       6.045   2.929  11.486  0.00  0.00    +0.000 HD
ENDBRANCH  21  24
ENDBRANCH  17  18
ENDBRANCH   7  17
BRANCH  11  26
ATOM     26  C   UNL     1       1.114   7.937  19.829  0.00  0.00    +0.000 C 
BRANCH  26  27
ATOM     27  C   UNL     1       0.757   8.603  21.164  0.00  0.00    +0.000 A 
ATOM     28  C   UNL     1       1.782   8.926  22.069  0.00  0.00    +0.000 A 
ATOM     29  C   UNL     1       1.482   9.365  23.371  0.00  0.00    +0.000 A 
ATOM     30  C   UNL     1       0.158   9.480  23.777  0.00  0.00    +0.000 A 
ATOM     31  C   UNL     1      -0.871   9.209  22.879  0.00  0.00    +0.000 A 
ATOM     32  C   UNL     1      -0.575   8.791  21.578  0.00  0.00    +0.000 A 
ENDBRANCH  26  27
BRANCH  26  33
ATOM     33  N   UNL     1       1.659   8.987  18.939  0.00  0.00    +0.000 N 
ATOM     34  H   UNL     1       2.653   9.149  19.082  0.00  0.00    +0.000 HD
BRANCH  33  35
ATOM     35  C   UNL     1       1.044  10.229  18.750  0.00  0.00    +0.000 A 
ATOM     36  C   UNL     1       1.666  11.466  18.921  0.00  0.00    +0.000 A 
ATOM     37  C   UNL     1       0.982  12.661  18.662  0.00  0.00    +0.000 A 
ATOM     38  C   UNL     1      -0.349  12.639  18.257  0.00  0.00    +0.000 A 
ATOM     39  C   UNL     1      -1.003  11.419  18.129  0.00  0.00    +0.000 A 
ATOM     40  C   UNL     1      -0.312  10.230  18.378  0.00  0.00    +0.000 A 
ENDBRANCH  33  35
ENDBRANCH  26  33
ENDBRANCH  11  26
TORSDOF 7
ENDMDL
MODEL 4
REMARK VINA RESULT:      -7.4      0.537      1.241
REMARK  Name = 
REMARK  7 active torsions:
REMARK  status: ('A' for Active; 'I' for Inactive)
REMARK    1  A    between atoms: C_7  and  C_8
REMARK    2  A    between atoms: C_8  and  C_9
REMARK    3  A    between atoms: C_12  and  O_13
REMARK    4  A    between atoms: C_19  and  C_20
REMARK    5  A    between atoms: C_20  and  N_21
REMARK    6  A    between atoms: C_20  and  C_28
REMARK    7  A    between atoms: N_21  and  C_22
REMARK                            x       y       z     vdW  Elec       q    Type
REMARK                         _______ _______ _______ _____ _____    ______ ____
ROOT
ATOM      1  O   UNL     1       0.517  16.492  20.686  0.00  0.00    +0.000 OA
ATOM      2  C   UNL     1       0.078  16.464  19.534  0.00  0.00    +0.000 C 
ATOM      3  C   UNL     1       0.596  17.438  18.465  0.00  0.00    +0.000 C 
ATOM      4  N   UNL     1       2.037  17.607  18.691  0.00  0.00    +0.000 N 
ATOM      5  C   UNL     1       2.899  16.749  18.015  0.00  0.00    +0.000 C 
ATOM      6  O   UNL     1       3.304  17.024  16.886  0.00  0.00    +0.000 OA
ATOM      7  C   UNL     1       3.050  15.339  18.641  0.00  0.00    +0.000 C 
ATOM      8  N   UNL     1       1.965  14.513  18.090  0.00  0.00    +0.000 N 
ATOM      9  C   UNL     1       1.463  13.461  18.829  0.00  0.00    +0.000 C 
ATOM     10  O   UNL     1       2.102  12.959  19.755  0.00  0.00    +0.000 OA
ATOM     11  C   UNL     1      -0.021  13.172  18.607  0.00  0.00    +0.000 C 
ATOM     12  C   UNL     1      -0.734  14.119  19.609  0.00  0.00    +0.000 C 
ATOM     13  N   UNL     1      -0.774  15.482  19.070  0.00  0.00    +0.000 N 
ATOM     14  H   UNL     1       2.208  17.617  19.695  0.00  0.00    +0.000 HD
ATOM     15  H   UNL     1       1.512  14.817  17.235  0.00  0.00    +0.000 HD
ATOM     16  H   UNL     1      -1.225  15.621  18.173  0.00  0.00    +0.000 HD
ENDROOT
BRANCH   7  17
ATOM     17  C   UNL     1       4.436  14.723  18.395  0.00  0.00    +0.000 C 
BRANCH  17  18
ATOM     18  C   UNL     1       5.455  15.348  19.322  0.00  0.00    +0.000 A 
ATOM     19  C   UNL     1       6.463  16.176  18.803  0.00  0.00    +0.000 A 
ATOM     20  C   UNL     1       7.498  16.630  19.624  0.00  0.00    +0.000 A 
ATOM     21  C   UNL     1       7.517  16.263  20.965  0.00  0.00    +0.000 A 
ATOM     22  C   UNL     1       6.501  15.483  21.504  0.00  0.00    +0.000 A 
ATOM     23  C   UNL     1       5.470  15.024  20.684  0.00  0.00    +0.000 A 
BRANCH  21  24
ATOM     24  O   UNL     1       8.535  16.640  21.789  0.00  0.00    +0.000 OA
ATOM     25  H   UNL     1       8.420  16.193  22.643  0.00  0.00    +0.000 HD
ENDBRANCH  21  24
ENDBRANCH  17  18
ENDBRANCH   7  17
BRANCH  11  26
ATOM     26  C   UNL     1      -0.296  11.665  18.864  0.00  0.00    +0.000 C 
BRANCH  26  27
ATOM     27  C   UNL     1      -1.642  11.156  18.332  0.00  0.00    +0.000 A 
ATOM     28  C   UNL     1      -1.660  10.227  17.280  0.00  0.00    +0.000 A 
ATOM     29  C   UNL     1      -2.867   9.879  16.645  0.00  0.00    +0.000 A 
ATOM     30  C   UNL     1      -4.059  10.460  17.057  0.00  0.00    +0.000 A 
ATOM     31  C   UNL     1      -4.067  11.348  18.129  0.00  0.00    +0.000 A 
ATOM     32  C   UNL     1      -2.871  11.681  18.773  0.00  0.00    +0.000 A 
ENDBRANCH  26  27
BRANCH  26  33
ATOM     33  N   UNL     1       0.771  10.881  18.202  0.00  0.00    +0.000 N 
ATOM     34  H   UNL     1       0.606  10.753  17.206  0.00  0.00    +0.000 HD
BRANCH  33  35
ATOM     35  C   UNL     1       1.270   9.678  18.712  0.00  0.00    +0.000 A 
ATOM     36  C   UNL     1       1.070   9.214  20.013  0.00  0.00    +0.000 A 
ATOM     37  C   UNL     1       1.569   7.971  20.422  0.00  0.00    +0.000 A 
ATOM     38  C   UNL     1       2.304   7.181  19.543  0.00  0.00    +0.000 A 
ATOM     39  C   UNL     1       2.558   7.646  18.257  0.00  0.00    +0.000 A 
ATOM     40  C   UNL     1       2.047   8.883  17.852  0.00  0.00    +0.000 A 
ENDBRANCH  33  35
ENDBRANCH  26  33
ENDBRANCH  11  26
TORSDOF 7
ENDMDL
MODEL 5
REMARK VINA RESULT:      -7.3      2.239      3.659
REMARK  Name = 
REMARK  7 active torsions:
REMARK  status: ('A' for Active; 'I' for Inactive)
REMARK    1  A    between atoms: C_7  and  C_8
REMARK    2  A    between atoms: C_8  and  C_9
REMARK    3  A    between atoms: C_12  and  O_13
REMARK    4  A    between atoms: C_19  and  C_20
REMARK    5  A    between atoms: C_20  and  N_21
REMARK    6  A    between atoms: C_20  and  C_28
REMARK    7  A    between atoms: N_21  and  C_22
REMARK                            x       y       z     vdW  Elec       q    Type
REMARK                         _______ _______ _______ _____ _____    ______ ____
ROOT
ATOM      1  O   UNL     1      -0.055  13.791  23.161  0.00  0.00    +0.000 OA
ATOM      2  C   UNL     1      -1.277  13.724  23.006  0.00  0.00    +0.000 C 
ATOM      3  C   UNL     1      -2.165  14.966  23.169  0.00  0.00    +0.000 C 
ATOM      4  N   UNL     1      -1.424  16.107  22.618  0.00  0.00    +0.000 N 
ATOM      5  C   UNL     1      -1.618  16.413  21.274  0.00  0.00    +0.000 C 
ATOM      6  O   UNL     1      -2.527  17.163  20.923  0.00  0.00    +0.000 OA
ATOM      7  C   UNL     1      -0.831  15.525  20.276  0.00  0.00    +0.000 C 
ATOM      8  N   UNL     1      -1.661  14.338  20.019  0.00  0.00    +0.000 N 
ATOM      9  C   UNL     1      -1.061  13.142  19.683  0.00  0.00    +0.000 C 
ATOM     10  O   UNL     1       0.088  13.098  19.242  0.00  0.00    +0.000 OA
ATOM     11  C   UNL     1      -1.802  11.895  20.163  0.00  0.00    +0.000 C 
ATOM     12  C   UNL     1      -1.262  11.677  21.601  0.00  0.00    +0.000 C 
ATOM     13  N   UNL     1      -1.922  12.600  22.531  0.00  0.00    +0.000 N 
ATOM     14  H   UNL     1      -0.438  15.997  22.851  0.00  0.00    +0.000 HD
ATOM     15  H   UNL     1      -2.653  14.387  20.228  0.00  0.00    +0.000 HD
ATOM     16  H   UNL     1      -2.933  12.561  22.596  0.00  0.00    +0.000 HD
ENDROOT
BRANCH   7  17
ATOM     17  C   UNL     1      -0.456  16.267  18.985  0.00  0.00    +0.000 C 
BRANCH  17  18
ATOM     18  C   UNL     1       1.043  16.453  18.907  0.00  0.00    +0.000 A 
ATOM     19  C   UNL     1       1.633  16.926  17.724  0.00  0.00    +0.000 A 
ATOM     20  C   UNL     1       3.022  16.953  17.587  0.00  0.00    +0.000 A 
ATOM     21  C   UNL     1       3.820  16.516  18.639  0.00  0.00    +0.000 A 
ATOM     22  C   UNL     1       3.253  16.089  19.834  0.00  0.00    +0.000 A 
ATOM     23  C   UNL     1       1.865  16.056  19.969  0.00  0.00    +0.000 A 
BRANCH  21  24
ATOM     24  O   UNL     1       5.178  16.476  18.530  0.00  0.00    +0.000 OA
ATOM     25  H   UNL     1       5.557  17.070  19.198  0.00  0.00    +0.000 HD
ENDBRANCH  21  24
ENDBRANCH  17  18
ENDBRANCH   7  17
BRANCH  11  26
ATOM     26  C   UNL     1      -1.507  10.716  19.196  0.00  0.00    +0.000 C 
BRANCH  26  27
ATOM     27  C   UNL     1      -2.277  10.762  17.870  0.00  0.00    +0.000 A 
ATOM     28  C   UNL     1      -3.452  11.526  17.781  0.00  0.00    +0.000 A 
ATOM     29  C   UNL     1      -4.280  11.448  16.646  0.00  0.00    +0.000 A 
ATOM     30  C   UNL     1      -3.939  10.604  15.597  0.00  0.00    +0.000 A 
ATOM     31  C   UNL     1      -2.754   9.874  15.646  0.00  0.00    +0.000 A 
ATOM     32  C   UNL     1      -1.920   9.966  16.765  0.00  0.00    +0.000 A 
ENDBRANCH  26  27
BRANCH  26  33
ATOM     33  N   UNL     1      -0.062  10.733  18.875  0.00  0.00    +0.000 N 
ATOM     34  H   UNL     1       0.133  11.125  17.956  0.00  0.00    +0.000 HD
BRANCH  33  35
ATOM     35  C   UNL     1       0.778   9.629  19.058  0.00  0.00    +0.000 A 
ATOM     36  C   UNL     1       0.948   8.940  20.259  0.00  0.00    +0.000 A 
ATOM     37  C   UNL     1       1.777   7.814  20.336  0.00  0.00    +0.000 A 
ATOM     38  C   UNL     1       2.477   7.375  19.216  0.00  0.00    +0.000 A 
ATOM     39  C   UNL     1       2.362   8.077  18.021  0.00  0.00    +0.000 A 
ATOM     40  C   UNL     1       1.524   9.193  17.949  0.00  0.00    +0.000 A 
ENDBRANCH  33  35
ENDBRANCH  26  33
ENDBRANCH  11  26
TORSDOF 7
ENDMDL
MODEL 6
REMARK VINA RESULT:      -7.3      2.758      6.375
REMARK  Name = 
REMARK  7 active torsions:
REMARK  status: ('A' for Active; 'I' for Inactive)
REMARK    1  A    between atoms: C_7  and  C_8
REMARK    2  A    between atoms: C_8  and  C_9
REMARK    3  A    between atoms: C_12  and  O_13
REMARK    4  A    between atoms: C_19  and  C_20
REMARK    5  A    between atoms: C_20  and  N_21
REMARK    6  A    between atoms: C_20  and  C_28
REMARK    7  A    between atoms: N_21  and  C_22
REMARK                            x       y       z     vdW  Elec       q    Type
REMARK                         _______ _______ _______ _____ _____    ______ ____
ROOT
ATOM      1  O   UNL     1       2.717  15.952  19.990  0.00  0.00    +0.000 OA
ATOM      2  C   UNL     1       2.873  15.134  20.900  0.00  0.00    +0.000 C 
ATOM      3  C   UNL     1       2.787  15.562  22.372  0.00  0.00    +0.000 C 
ATOM      4  N   UNL     1       1.722  16.568  22.473  0.00  0.00    +0.000 N 
ATOM      5  C   UNL     1       0.436  16.117  22.755  0.00  0.00    +0.000 C 
ATOM      6  O   UNL     1       0.059  15.976  23.917  0.00  0.00    +0.000 OA
ATOM      7  C   UNL     1      -0.340  15.537  21.544  0.00  0.00    +0.000 C 
ATOM      8  N   UNL     1       0.025  14.115  21.450  0.00  0.00    +0.000 N 
ATOM      9  C   UNL     1       0.001  13.482  20.225  0.00  0.00    +0.000 C 
ATOM     10  O   UNL     1      -0.642  13.934  19.276  0.00  0.00    +0.000 OA
ATOM     11  C   UNL     1       1.038  12.372  20.056  0.00  0.00    +0.000 C 
ATOM     12  C   UNL     1       2.303  13.123  19.560  0.00  0.00    +0.000 C 
ATOM     13  N   UNL     1       2.976  13.773  20.689  0.00  0.00    +0.000 N 
ATOM     14  H   UNL     1       1.753  17.156  21.642  0.00  0.00    +0.000 HD
ATOM     15  H   UNL     1       0.420  13.662  22.267  0.00  0.00    +0.000 HD
ATOM     16  H   UNL     1       3.274  13.188  21.461  0.00  0.00    +0.000 HD
ENDROOT
BRANCH   7  17
ATOM     17  C   UNL     1      -1.857  15.745  21.653  0.00  0.00    +0.000 C 
BRANCH  17  18
ATOM     18  C   UNL     1      -2.481  14.620  22.448  0.00  0.00    +0.000 A 
ATOM     19  C   UNL     1      -3.054  13.523  21.784  0.00  0.00    +0.000 A 
ATOM     20  C   UNL     1      -3.769  12.558  22.497  0.00  0.00    +0.000 A 
ATOM     21  C   UNL     1      -3.901  12.687  23.875  0.00  0.00    +0.000 A 
ATOM     22  C   UNL     1      -3.301  13.741  24.553  0.00  0.00    +0.000 A 
ATOM     23  C   UNL     1      -2.591  14.708  23.841  0.00  0.00    +0.000 A 
BRANCH  21  24
ATOM     24  O   UNL     1      -4.634  11.797  24.603  0.00  0.00    +0.000 OA
ATOM     25  H   UNL     1      -4.354  11.856  25.531  0.00  0.00    +0.000 HD
ENDBRANCH  21  24
ENDBRANCH  17  18
ENDBRANCH   7  17
BRANCH  11  26
ATOM     26  C   UNL     1       0.503  11.315  19.052  0.00  0.00    +0.000 C 
BRANCH  26  27
ATOM     27  C   UNL     1       1.254   9.978  19.063  0.00  0.00    +0.000 A 
ATOM     28  C   UNL     1       1.886   9.532  17.890  0.00  0.00    +0.000 A 
ATOM     29  C   UNL     1       2.424   8.235  17.809  0.00  0.00    +0.000 A 
ATOM     30  C   UNL     1       2.332   7.376  18.898  0.00  0.00    +0.000 A 
ATOM     31  C   UNL     1       1.751   7.816  20.084  0.00  0.00    +0.000 A 
ATOM     32  C   UNL     1       1.233   9.112  20.173  0.00  0.00    +0.000 A 
ENDBRANCH  26  27
BRANCH  26  33
ATOM     33  N   UNL     1      -0.912  11.035  19.386  0.00  0.00    +0.000 N 
ATOM     34  H   UNL     1      -1.015  10.289  20.071  0.00  0.00    +0.000 HD
BRANCH  33  35
ATOM     35  C   UNL     1      -1.912  10.873  18.421  0.00  0.00    +0.000 A 
ATOM     36  C   UNL     1      -1.824  10.040  17.306  0.00  0.00    +0.000 A 
ATOM     37  C   UNL     1      -2.898   9.906  16.417  0.00  0.00    +0.000 A 
ATOM     38  C   UNL     1      -4.071  10.628  16.613  0.00  0.00    +0.000 A 
ATOM     39  C   UNL     1      -4.162  11.503  17.690  0.00  0.00    +0.000 A 
ATOM     40  C   UNL     1      -3.091  11.624  18.580  0.00  0.00    +0.000 A 
ENDBRANCH  33  35
ENDBRANCH  26  33
ENDBRANCH  11  26
TORSDOF 7
ENDMDL
MODEL 7
REMARK VINA RESULT:      -7.3      5.299      9.785
REMARK  Name = 
REMARK  7 active torsions:
REMARK  status: ('A' for Active; 'I' for Inactive)
REMARK    1  A    between atoms: C_7  and  C_8
REMARK    2  A    between atoms: C_8  and  C_9
REMARK    3  A    between atoms: C_12  and  O_13
REMARK    4  A    between atoms: C_19  and  C_20
REMARK    5  A    between atoms: C_20  and  N_21
REMARK    6  A    between atoms: C_20  and  C_28
REMARK    7  A    between atoms: N_21  and  C_22
REMARK                            x       y       z     vdW  Elec       q    Type
REMARK                         _______ _______ _______ _____ _____    ______ ____
ROOT
ATOM      1  O   UNL     1       2.672   2.886  18.752  0.00  0.00    +0.000 OA
ATOM      2  C   UNL     1       3.227   3.354  19.749  0.00  0.00    +0.000 C 
ATOM      3  C   UNL     1       4.718   3.105  20.016  0.00  0.00    +0.000 C 
ATOM      4  N   UNL     1       5.405   3.139  18.719  0.00  0.00    +0.000 N 
ATOM      5  C   UNL     1       5.910   4.362  18.290  0.00  0.00    +0.000 C 
ATOM      6  O   UNL     1       7.042   4.724  18.610  0.00  0.00    +0.000 OA
ATOM      7  C   UNL     1       4.866   5.325  17.670  0.00  0.00    +0.000 C 
ATOM      8  N   UNL     1       4.270   6.080  18.784  0.00  0.00    +0.000 N 
ATOM      9  C   UNL     1       2.978   6.552  18.678  0.00  0.00    +0.000 C 
ATOM     10  O   UNL     1       2.427   6.687  17.585  0.00  0.00    +0.000 OA
ATOM     11  C   UNL     1       2.208   6.611  19.996  0.00  0.00    +0.000 C 
ATOM     12  C   UNL     1       1.599   5.190  20.131  0.00  0.00    +0.000 C 
ATOM     13  N   UNL     1       2.619   4.249  20.607  0.00  0.00    +0.000 N 
ATOM     14  H   UNL     1       4.804   2.703  18.023  0.00  0.00    +0.000 HD
ATOM     15  H   UNL     1       4.774   6.120  19.664  0.00  0.00    +0.000 HD
ATOM     16  H   UNL     1       3.071   4.452  21.491  0.00  0.00    +0.000 HD
ENDROOT
BRANCH   7  17
ATOM     17  C   UNL     1       5.467   6.245  16.596  0.00  0.00    +0.000 C 
BRANCH  17  18
ATOM     18  C   UNL     1       5.757   5.456  15.339  0.00  0.00    +0.000 A 
ATOM     19  C   UNL     1       4.809   4.545  14.845  0.00  0.00    +0.000 A 
ATOM     20  C   UNL     1       5.128   3.700  13.780  0.00  0.00    +0.000 A 
ATOM     21  C   UNL     1       6.390   3.777  13.202  0.00  0.00    +0.000 A 
ATOM     22  C   UNL     1       7.323   4.705  13.648  0.00  0.00    +0.000 A 
ATOM     23  C   UNL     1       7.008   5.545  14.716  0.00  0.00    +0.000 A 
BRANCH  21  24
ATOM     24  O   UNL     1       6.761   2.936  12.195  0.00  0.00    +0.000 OA
ATOM     25  H   UNL     1       6.288   2.095  12.308  0.00  0.00    +0.000 HD
ENDBRANCH  21  24
ENDBRANCH  17  18
ENDBRANCH   7  17
BRANCH  11  26
ATOM     26  C   UNL     1       1.147   7.744  19.922  0.00  0.00    +0.000 C 
BRANCH  26  27
ATOM     27  C   UNL     1       0.738   8.332  21.278  0.00  0.00    +0.000 A 
ATOM     28  C   UNL     1      -0.625   8.474  21.585  0.00  0.00    +0.000 A 
ATOM     29  C   UNL     1      -1.037   9.175  22.734  0.00  0.00    +0.000 A 
ATOM     30  C   UNL     1      -0.089   9.739  23.579  0.00  0.00    +0.000 A 
ATOM     31  C   UNL     1       1.268   9.568  23.316  0.00  0.00    +0.000 A 
ATOM     32  C   UNL     1       1.679   8.856  22.185  0.00  0.00    +0.000 A 
ENDBRANCH  26  27
BRANCH  26  33
ATOM     33  N   UNL     1       1.704   8.846  19.106  0.00  0.00    +0.000 N 
ATOM     34  H   UNL     1       2.675   9.051  19.331  0.00  0.00    +0.000 HD
BRANCH  33  35
ATOM     35  C   UNL     1       1.044  10.063  18.906  0.00  0.00    +0.000 A 
ATOM     36  C   UNL     1       1.555  11.317  19.239  0.00  0.00    +0.000 A 
ATOM     37  C   UNL     1       0.840  12.488  18.957  0.00  0.00    +0.000 A 
ATOM     38  C   UNL     1      -0.416  12.422  18.362  0.00  0.00    +0.000 A 
ATOM     39  C   UNL     1      -0.967  11.180  18.068  0.00  0.00    +0.000 A 
ATOM     40  C   UNL     1      -0.243  10.016  18.342  0.00  0.00    +0.000 A 
ENDBRANCH  33  35
ENDBRANCH  26  33
ENDBRANCH  11  26
TORSDOF 7
ENDMDL
MODEL 8
REMARK VINA RESULT:      -7.2      5.232      9.723
REMARK  Name = 
REMARK  7 active torsions:
REMARK  status: ('A' for Active; 'I' for Inactive)
REMARK    1  A    between atoms: C_7  and  C_8
REMARK    2  A    between atoms: C_8  and  C_9
REMARK    3  A    between atoms: C_12  and  O_13
REMARK    4  A    between atoms: C_19  and  C_20
REMARK    5  A    between atoms: C_20  and  N_21
REMARK    6  A    between atoms: C_20  and  C_28
REMARK    7  A    between atoms: N_21  and  C_22
REMARK                            x       y       z     vdW  Elec       q    Type
REMARK                         _______ _______ _______ _____ _____    ______ ____
ROOT
ATOM      1  O   UNL     1       2.565   3.017  18.734  0.00  0.00    +0.000 OA
ATOM      2  C   UNL     1       3.102   3.481  19.742  0.00  0.00    +0.000 C 
ATOM      3  C   UNL     1       4.581   3.203  20.050  0.00  0.00    +0.000 C 
ATOM      4  N   UNL     1       5.302   3.213  18.772  0.00  0.00    +0.000 N 
ATOM      5  C   UNL     1       5.844   4.423  18.348  0.00  0.00    +0.000 C 
ATOM      6  O   UNL     1       6.974   4.763  18.695  0.00  0.00    +0.000 OA
ATOM      7  C   UNL     1       4.836   5.403  17.693  0.00  0.00    +0.000 C 
ATOM      8  N   UNL     1       4.228   6.177  18.786  0.00  0.00    +0.000 N 
ATOM      9  C   UNL     1       2.949   6.675  18.642  0.00  0.00    +0.000 C 
ATOM     10  O   UNL     1       2.430   6.813  17.533  0.00  0.00    +0.000 OA
ATOM     11  C   UNL     1       2.145   6.760  19.939  0.00  0.00    +0.000 C 
ATOM     12  C   UNL     1       1.503   5.353  20.067  0.00  0.00    +0.000 C 
ATOM     13  N   UNL     1       2.491   4.395  20.577  0.00  0.00    +0.000 N 
ATOM     14  H   UNL     1       4.710   2.784  18.063  0.00  0.00    +0.000 HD
ATOM     15  H   UNL     1       4.708   6.214  19.678  0.00  0.00    +0.000 HD
ATOM     16  H   UNL     1       2.924   4.595  21.471  0.00  0.00    +0.000 HD
ENDROOT
BRANCH   7  17
ATOM     17  C   UNL     1       5.484   6.301  16.629  0.00  0.00    +0.000 C 
BRANCH  17  18
ATOM     18  C   UNL     1       5.764   5.504  15.375  0.00  0.00    +0.000 A 
ATOM     19  C   UNL     1       4.791   4.629  14.866  0.00  0.00    +0.000 A 
ATOM     20  C   UNL     1       5.093   3.775  13.803  0.00  0.00    +0.000 A 
ATOM     21  C   UNL     1       6.366   3.805  13.245  0.00  0.00    +0.000 A 
ATOM     22  C   UNL     1       7.326   4.698  13.706  0.00  0.00    +0.000 A 
ATOM     23  C   UNL     1       7.027   5.547  14.771  0.00  0.00    +0.000 A 
BRANCH  21  24
ATOM     24  O   UNL     1       6.721   2.952  12.241  0.00  0.00    +0.000 OA
ATOM     25  H   UNL     1       6.681   3.436  11.400  0.00  0.00    +0.000 HD
ENDBRANCH  21  24
ENDBRANCH  17  18
ENDBRANCH   7  17
BRANCH  11  26
ATOM     26  C   UNL     1       1.110   7.913  19.828  0.00  0.00    +0.000 C 
BRANCH  26  27
ATOM     27  C   UNL     1       0.756   8.590  21.159  0.00  0.00    +0.000 A 
ATOM     28  C   UNL     1       1.781   8.908  22.064  0.00  0.00    +0.000 A 
ATOM     29  C   UNL     1       1.482   9.357  23.364  0.00  0.00    +0.000 A 
ATOM     30  C   UNL     1       0.159   9.488  23.765  0.00  0.00    +0.000 A 
ATOM     31  C   UNL     1      -0.871   9.222  22.866  0.00  0.00    +0.000 A 
ATOM     32  C   UNL     1      -0.575   8.794  21.568  0.00  0.00    +0.000 A 
ENDBRANCH  26  27
BRANCH  26  33
ATOM     33  N   UNL     1       1.669   8.952  18.934  0.00  0.00    +0.000 N 
ATOM     34  H   UNL     1       2.657   9.128  19.103  0.00  0.00    +0.000 HD
BRANCH  33  35
ATOM     35  C   UNL     1       1.048  10.184  18.705  0.00  0.00    +0.000 A 
ATOM     36  C   UNL     1      -0.297  10.355  18.374  0.00  0.00    +0.000 A 
ATOM     37  C   UNL     1      -0.844  11.634  18.209  0.00  0.00    +0.000 A 
ATOM     38  C   UNL     1      -0.046  12.766  18.344  0.00  0.00    +0.000 A 
ATOM     39  C   UNL     1       1.308  12.617  18.623  0.00  0.00    +0.000 A 
ATOM     40  C   UNL     1       1.845  11.338  18.798  0.00  0.00    +0.000 A 
ENDBRANCH  33  35
ENDBRANCH  26  33
ENDBRANCH  11  26
TORSDOF 7
ENDMDL
MODEL 9
REMARK VINA RESULT:      -7.2      2.254      6.182
REMARK  Name = 
REMARK  7 active torsions:
REMARK  status: ('A' for Active; 'I' for Inactive)
REMARK    1  A    between atoms: C_7  and  C_8
REMARK    2  A    between atoms: C_8  and  C_9
REMARK    3  A    between atoms: C_12  and  O_13
REMARK    4  A    between atoms: C_19  and  C_20
REMARK    5  A    between atoms: C_20  and  N_21
REMARK    6  A    between atoms: C_20  and  C_28
REMARK    7  A    between atoms: N_21  and  C_22
REMARK                            x       y       z     vdW  Elec       q    Type
REMARK                         _______ _______ _______ _____ _____    ______ ____
ROOT
ATOM      1  O   UNL     1       2.749  15.682  18.548  0.00  0.00    +0.000 OA
ATOM      2  C   UNL     1       3.012  14.996  19.539  0.00  0.00    +0.000 C 
ATOM      3  C   UNL     1       3.127  15.630  20.933  0.00  0.00    +0.000 C 
ATOM      4  N   UNL     1       2.099  16.674  21.023  0.00  0.00    +0.000 N 
ATOM      5  C   UNL     1       0.855  16.311  21.531  0.00  0.00    +0.000 C 
ATOM      6  O   UNL     1       0.633  16.347  22.740  0.00  0.00    +0.000 OA
ATOM      7  C   UNL     1      -0.081  15.591  20.526  0.00  0.00    +0.000 C 
ATOM      8  N   UNL     1       0.248  14.159  20.592  0.00  0.00    +0.000 N 
ATOM      9  C   UNL     1       0.053  13.360  19.484  0.00  0.00    +0.000 C 
ATOM     10  O   UNL     1      -0.703  13.695  18.571  0.00  0.00    +0.000 OA
ATOM     11  C   UNL     1       1.043  12.205  19.344  0.00  0.00    +0.000 C 
ATOM     12  C   UNL     1       2.241  12.836  18.587  0.00  0.00    +0.000 C 
ATOM     13  N   UNL     1       3.067  13.617  19.515  0.00  0.00    +0.000 N 
ATOM     14  H   UNL     1       2.028  17.138  20.119  0.00  0.00    +0.000 HD
ATOM     15  H   UNL     1       0.741  13.813  21.408  0.00  0.00    +0.000 HD
ATOM     16  H   UNL     1       3.456  13.136  20.318  0.00  0.00    +0.000 HD
ENDROOT
BRANCH   7  17
ATOM     17  C   UNL     1      -1.568  15.863  20.799  0.00  0.00    +0.000 C 
BRANCH  17  18
ATOM     18  C   UNL     1      -2.160  14.741  21.623  0.00  0.00    +0.000 A 
ATOM     19  C   UNL     1      -3.069  13.844  21.041  0.00  0.00    +0.000 A 
ATOM     20  C   UNL     1      -3.739  12.905  21.828  0.00  0.00    +0.000 A 
ATOM     21  C   UNL     1      -3.490  12.857  23.195  0.00  0.00    +0.000 A 
ATOM     22  C   UNL     1      -2.558  13.707  23.779  0.00  0.00    +0.000 A 
ATOM     23  C   UNL     1      -1.893  14.650  22.995  0.00  0.00    +0.000 A 
BRANCH  21  24
ATOM     24  O   UNL     1      -4.159  11.992  24.008  0.00  0.00    +0.000 OA
ATOM     25  H   UNL     1      -3.607  11.813  24.787  0.00  0.00    +0.000 HD
ENDBRANCH  21  24
ENDBRANCH  17  18
ENDBRANCH   7  17
BRANCH  11  26
ATOM     26  C   UNL     1       0.364  11.034  18.581  0.00  0.00    +0.000 C 
BRANCH  26  27
ATOM     27  C   UNL     1       0.977   9.653  18.843  0.00  0.00    +0.000 A 
ATOM     28  C   UNL     1       0.954   9.125  20.144  0.00  0.00    +0.000 A 
ATOM     29  C   UNL     1       1.664   7.952  20.459  0.00  0.00    +0.000 A 
ATOM     30  C   UNL     1       2.403   7.303  19.477  0.00  0.00    +0.000 A 
ATOM     31  C   UNL     1       2.399   7.786  18.171  0.00  0.00    +0.000 A 
ATOM     32  C   UNL     1       1.678   8.941  17.852  0.00  0.00    +0.000 A 
ENDBRANCH  26  27
BRANCH  26  33
ATOM     33  N   UNL     1      -1.057  10.977  18.991  0.00  0.00    +0.000 N 
ATOM     34  H   UNL     1      -1.225  10.310  19.741  0.00  0.00    +0.000 HD
BRANCH  33  35
ATOM     35  C   UNL     1      -2.116  10.876  18.082  0.00  0.00    +0.000 A 
ATOM     36  C   UNL     1      -3.355  11.501  18.220  0.00  0.00    +0.000 A 
ATOM     37  C   UNL     1      -4.340  11.381  17.232  0.00  0.00    +0.000 A 
ATOM     38  C   UNL     1      -4.112  10.606  16.099  0.00  0.00    +0.000 A 
ATOM     39  C   UNL     1      -2.903   9.933  15.964  0.00  0.00    +0.000 A 
ATOM     40  C   UNL     1      -1.920  10.067  16.949  0.00  0.00    +0.000 A 
ENDBRANCH  33  35
ENDBRANCH  26  33
ENDBRANCH  11  26
TORSDOF 7
ENDMDL
