MODEL 1
REMARK VINA RESULT:      -6.5      0.000      0.000
REMARK  Name = 
REMARK  7 active torsions:
REMARK  status: ('A' for Active; 'I' for Inactive)
REMARK    1  A    between atoms: O_1  and  C_2
REMARK    2  A    between atoms: C_2  and  C_3
REMARK    3  A    between atoms: C_3  and  C_4
REMARK    4  A    between atoms: C_3  and  O_6
REMARK    5  A    between atoms: C_4  and  O_5
REMARK    6  A    between atoms: O_6  and  C_7
REMARK    7  A    between atoms: C_7  and  N_8
REMARK                            x       y       z     vdW  Elec       q    Type
REMARK                         _______ _______ _______ _____ _____    ______ ____
ROOT
ATOM      1  N   UNL     1       4.666   5.497  16.765  0.00  0.00    +0.000 N 
ATOM      2  C   UNL     1       4.966   4.278  16.214  0.00  0.00    +0.000 A 
ATOM      3 BR   UNL     1       6.073   3.948  14.735  0.00  0.00    +0.000 Br
ATOM      4  N   UNL     1       4.348   3.300  16.840  0.00  0.00    +0.000 NA
ATOM      5  C   UNL     1       3.625   3.897  17.849  0.00  0.00    +0.000 A 
ATOM      6  C   UNL     1       2.787   3.346  18.836  0.00  0.00    +0.000 A 
ATOM      7 CL   UNL     1       2.628   1.641  18.795  0.00  0.00    +0.000 Cl
ATOM      8  C   UNL     1       2.154   4.184  19.758  0.00  0.00    +0.000 A 
ATOM      9 CL   UNL     1       1.120   3.566  20.995  0.00  0.00    +0.000 Cl
ATOM     10  C   UNL     1       2.349   5.567  19.698  0.00  0.00    +0.000 A 
ATOM     11  C   UNL     1       3.174   6.145  18.726  0.00  0.00    +0.000 A 
ATOM     12  C   UNL     1       3.800   5.281  17.819  0.00  0.00    +0.000 A 
ENDROOT
BRANCH   1  13
ATOM     13  C   UNL     1       5.101   6.797  16.285  0.00  0.00    +0.000 C 
BRANCH  13  14
ATOM     14  O   UNL     1       6.519   6.874  16.397  0.00  0.00    +0.000 OA
BRANCH  14  15
ATOM     15  C   UNL     1       6.991   7.121  17.734  0.00  0.00    +0.000 C 
BRANCH  15  16
ATOM     16  C   UNL     1       7.675   5.829  18.222  0.00  0.00    +0.000 C 
BRANCH  16  17
ATOM     17  O   UNL     1       7.252   5.503  19.548  0.00  0.00    +0.000 OA
ATOM     18  H   UNL     1       6.752   4.667  19.490  0.00  0.00    +0.000 HD
ENDBRANCH  16  17
ENDBRANCH  15  16
BRANCH  15  19
ATOM     19  C   UNL     1       7.966   8.311  17.812  0.00  0.00    +0.000 C 
BRANCH  19  20
ATOM     20  O   UNL     1       8.768   8.267  18.988  0.00  0.00    +0.000 OA
ATOM     21  H   UNL     1       8.911   7.316  19.191  0.00  0.00    +0.000 HD
ENDBRANCH  19  20
ENDBRANCH  15  19
ENDBRANCH  14  15
ENDBRANCH  13  14
ENDBRANCH   1  13
TORSDOF 7
ENDMDL
MODEL 2
REMARK VINA RESULT:      -6.4      0.556      1.443
REMARK  Name = 
REMARK  7 active torsions:
REMARK  status: ('A' for Active; 'I' for Inactive)
REMARK    1  A    between atoms: O_1  and  C_2
REMARK    2  A    between atoms: C_2  and  C_3
REMARK    3  A    between atoms: C_3  and  C_4
REMARK    4  A    between atoms: C_3  and  O_6
REMARK    5  A    between atoms: C_4  and  O_5
REMARK    6  A    between atoms: O_6  and  C_7
REMARK    7  A    between atoms: C_7  and  N_8
REMARK                            x       y       z     vdW  Elec       q    Type
REMARK                         _______ _______ _______ _____ _____    ______ ____
ROOT
ATOM      1  N   UNL     1       4.627   5.461  16.918  0.00  0.00    +0.000 N 
ATOM      2  C   UNL     1       4.960   4.277  16.313  0.00  0.00    +0.000 A 
ATOM      3 BR   UNL     1       6.082   4.043  14.827  0.00  0.00    +0.000 Br
ATOM      4  N   UNL     1       4.361   3.256  16.887  0.00  0.00    +0.000 NA
ATOM      5  C   UNL     1       3.618   3.787  17.918  0.00  0.00    +0.000 A 
ATOM      6  C   UNL     1       2.788   3.170  18.872  0.00  0.00    +0.000 A 
ATOM      7 CL   UNL     1       2.670   1.466  18.749  0.00  0.00    +0.000 Cl
ATOM      8  C   UNL     1       2.130   3.949  19.828  0.00  0.00    +0.000 A 
ATOM      9 CL   UNL     1       1.103   3.249  21.027  0.00  0.00    +0.000 Cl
ATOM     10  C   UNL     1       2.291   5.337  19.835  0.00  0.00    +0.000 A 
ATOM     11  C   UNL     1       3.109   5.980  18.897  0.00  0.00    +0.000 A 
ATOM     12  C   UNL     1       3.760   5.174  17.954  0.00  0.00    +0.000 A 
ENDROOT
BRANCH   1  13
ATOM     13  C   UNL     1       5.034   6.792  16.503  0.00  0.00    +0.000 C 
BRANCH  13  14
ATOM     14  O   UNL     1       5.815   7.375  17.541  0.00  0.00    +0.000 OA
BRANCH  14  15
ATOM     15  C   UNL     1       7.187   6.940  17.561  0.00  0.00    +0.000 C 
BRANCH  15  16
ATOM     16  C   UNL     1       8.064   8.199  17.703  0.00  0.00    +0.000 C 
BRANCH  16  17
ATOM     17  O   UNL     1       8.750   8.200  18.957  0.00  0.00    +0.000 OA
ATOM     18  H   UNL     1       9.416   8.912  18.917  0.00  0.00    +0.000 HD
ENDBRANCH  16  17
ENDBRANCH  15  16
BRANCH  15  19
ATOM     19  C   UNL     1       7.481   5.946  18.701  0.00  0.00    +0.000 C 
BRANCH  19  20
ATOM     20  O   UNL     1       7.877   4.671  18.207  0.00  0.00    +0.000 OA
ATOM     21  H   UNL     1       8.857   4.638  18.274  0.00  0.00    +0.000 HD
ENDBRANCH  19  20
ENDBRANCH  15  19
ENDBRANCH  14  15
ENDBRANCH  13  14
ENDBRANCH   1  13
TORSDOF 7
ENDMDL
MODEL 3
REMARK VINA RESULT:      -6.2      2.837      3.831
REMARK  Name = 
REMARK  7 active torsions:
REMARK  status: ('A' for Active; 'I' for Inactive)
REMARK    1  A    between atoms: O_1  and  C_2
REMARK    2  A    between atoms: C_2  and  C_3
REMARK    3  A    between atoms: C_3  and  C_4
REMARK    4  A    between atoms: C_3  and  O_6
REMARK    5  A    between atoms: C_4  and  O_5
REMARK    6  A    between atoms: O_6  and  C_7
REMARK    7  A    between atoms: C_7  and  N_8
REMARK                            x       y       z     vdW  Elec       q    Type
REMARK                         _______ _______ _______ _____ _____    ______ ____
ROOT
ATOM      1  N   UNL     1       4.077   4.886  18.388  0.00  0.00    +0.000 N 
ATOM      2  C   UNL     1       3.652   4.249  19.524  0.00  0.00    +0.000 A 
ATOM      3 BR   UNL     1       4.097   2.513  20.080  0.00  0.00    +0.000 Br
ATOM      4  N   UNL     1       2.829   5.002  20.222  0.00  0.00    +0.000 NA
ATOM      5  C   UNL     1       2.721   6.185  19.524  0.00  0.00    +0.000 A 
ATOM      6  C   UNL     1       1.989   7.356  19.798  0.00  0.00    +0.000 A 
ATOM      7 CL   UNL     1       1.072   7.326  21.245  0.00  0.00    +0.000 Cl
ATOM      8  C   UNL     1       2.046   8.434  18.912  0.00  0.00    +0.000 A 
ATOM      9 CL   UNL     1       1.176   9.899  19.197  0.00  0.00    +0.000 Cl
ATOM     10  C   UNL     1       2.824   8.351  17.753  0.00  0.00    +0.000 A 
ATOM     11  C   UNL     1       3.560   7.199  17.451  0.00  0.00    +0.000 A 
ATOM     12  C   UNL     1       3.489   6.135  18.361  0.00  0.00    +0.000 A 
ENDROOT
BRANCH   1  13
ATOM     13  C   UNL     1       4.923   4.331  17.346  0.00  0.00    +0.000 C 
BRANCH  13  14
ATOM     14  O   UNL     1       6.252   4.219  17.847  0.00  0.00    +0.000 OA
BRANCH  14  15
ATOM     15  C   UNL     1       7.227   4.967  17.098  0.00  0.00    +0.000 C 
BRANCH  15  16
ATOM     16  C   UNL     1       6.772   4.965  15.626  0.00  0.00    +0.000 C 
BRANCH  16  17
ATOM     17  O   UNL     1       7.793   5.501  14.780  0.00  0.00    +0.000 OA
ATOM     18  H   UNL     1       7.392   5.634  13.900  0.00  0.00    +0.000 HD
ENDBRANCH  16  17
ENDBRANCH  15  16
BRANCH  15  19
ATOM     19  C   UNL     1       7.393   6.411  17.611  0.00  0.00    +0.000 C 
BRANCH  19  20
ATOM     20  O   UNL     1       6.880   7.365  16.687  0.00  0.00    +0.000 OA
ATOM     21  H   UNL     1       6.082   7.757  17.106  0.00  0.00    +0.000 HD
ENDBRANCH  19  20
ENDBRANCH  15  19
ENDBRANCH  14  15
ENDBRANCH  13  14
ENDBRANCH   1  13
TORSDOF 7
ENDMDL
MODEL 4
REMARK VINA RESULT:      -6.1      2.752      4.130
REMARK  Name = 
REMARK  7 active torsions:
REMARK  status: ('A' for Active; 'I' for Inactive)
REMARK    1  A    between atoms: O_1  and  C_2
REMARK    2  A    between atoms: C_2  and  C_3
REMARK    3  A    between atoms: C_3  and  C_4
REMARK    4  A    between atoms: C_3  and  O_6
REMARK    5  A    between atoms: C_4  and  O_5
REMARK    6  A    between atoms: O_6  and  C_7
REMARK    7  A    between atoms: C_7  and  N_8
REMARK                            x       y       z     vdW  Elec       q    Type
REMARK                         _______ _______ _______ _____ _____    ______ ____
ROOT
ATOM      1  N   UNL     1       6.068   4.971  17.064  0.00  0.00    +0.000 N 
ATOM      2  C   UNL     1       6.175   6.135  17.778  0.00  0.00    +0.000 A 
ATOM      3 BR   UNL     1       7.603   7.352  17.749  0.00  0.00    +0.000 Br
ATOM      4  N   UNL     1       5.131   6.322  18.557  0.00  0.00    +0.000 NA
ATOM      5  C   UNL     1       4.300   5.246  18.335  0.00  0.00    +0.000 A 
ATOM      6  C   UNL     1       3.044   4.920  18.881  0.00  0.00    +0.000 A 
ATOM      7 CL   UNL     1       2.424   6.043  20.016  0.00  0.00    +0.000 Cl
ATOM      8  C   UNL     1       2.398   3.746  18.486  0.00  0.00    +0.000 A 
ATOM      9 CL   UNL     1       0.854   3.296  19.116  0.00  0.00    +0.000 Cl
ATOM     10  C   UNL     1       2.998   2.893  17.555  0.00  0.00    +0.000 A 
ATOM     11  C   UNL     1       4.248   3.188  16.996  0.00  0.00    +0.000 A 
ATOM     12  C   UNL     1       4.870   4.375  17.406  0.00  0.00    +0.000 A 
ENDROOT
BRANCH   1  13
ATOM     13  C   UNL     1       7.064   4.406  16.170  0.00  0.00    +0.000 C 
BRANCH  13  14
ATOM     14  O   UNL     1       7.373   5.367  15.165  0.00  0.00    +0.000 OA
BRANCH  14  15
ATOM     15  C   UNL     1       6.827   5.060  13.869  0.00  0.00    +0.000 C 
BRANCH  15  16
ATOM     16  C   UNL     1       7.970   5.207  12.846  0.00  0.00    +0.000 C 
BRANCH  16  17
ATOM     17  O   UNL     1       9.016   6.029  13.370  0.00  0.00    +0.000 OA
ATOM     18  H   UNL     1       9.839   5.508  13.322  0.00  0.00    +0.000 HD
ENDBRANCH  16  17
ENDBRANCH  15  16
BRANCH  15  19
ATOM     19  C   UNL     1       6.218   3.646  13.799  0.00  0.00    +0.000 C 
BRANCH  19  20
ATOM     20  O   UNL     1       6.381   3.059  12.512  0.00  0.00    +0.000 OA
ATOM     21  H   UNL     1       7.227   3.408  12.152  0.00  0.00    +0.000 HD
ENDBRANCH  19  20
ENDBRANCH  15  19
ENDBRANCH  14  15
ENDBRANCH  13  14
ENDBRANCH   1  13
TORSDOF 7
ENDMDL
MODEL 5
REMARK VINA RESULT:      -6.1      2.806      4.031
REMARK  Name = 
REMARK  7 active torsions:
REMARK  status: ('A' for Active; 'I' for Inactive)
REMARK    1  A    between atoms: O_1  and  C_2
REMARK    2  A    between atoms: C_2  and  C_3
REMARK    3  A    between atoms: C_3  and  C_4
REMARK    4  A    between atoms: C_3  and  O_6
REMARK    5  A    between atoms: C_4  and  O_5
REMARK    6  A    between atoms: O_6  and  C_7
REMARK    7  A    between atoms: C_7  and  N_8
REMARK                            x       y       z     vdW  Elec       q    Type
REMARK                         _______ _______ _______ _____ _____    ______ ____
ROOT
ATOM      1  N   UNL     1       5.715   4.783  16.977  0.00  0.00    +0.000 N 
ATOM      2  C   UNL     1       5.847   5.952  17.679  0.00  0.00    +0.000 A 
ATOM      3 BR   UNL     1       7.234   7.208  17.533  0.00  0.00    +0.000 Br
ATOM      4  N   UNL     1       4.865   6.113  18.540  0.00  0.00    +0.000 NA
ATOM      5  C   UNL     1       4.049   5.014  18.387  0.00  0.00    +0.000 A 
ATOM      6  C   UNL     1       2.851   4.656  19.034  0.00  0.00    +0.000 A 
ATOM      7 CL   UNL     1       2.294   5.766  20.214  0.00  0.00    +0.000 Cl
ATOM      8  C   UNL     1       2.208   3.463  18.694  0.00  0.00    +0.000 A 
ATOM      9 CL   UNL     1       0.733   2.972  19.447  0.00  0.00    +0.000 Cl
ATOM     10  C   UNL     1       2.753   2.624  17.718  0.00  0.00    +0.000 A 
ATOM     11  C   UNL     1       3.945   2.952  17.059  0.00  0.00    +0.000 A 
ATOM     12  C   UNL     1       4.565   4.156  17.416  0.00  0.00    +0.000 A 
ENDROOT
BRANCH   1  13
ATOM     13  C   UNL     1       6.650   4.243  16.006  0.00  0.00    +0.000 C 
BRANCH  13  14
ATOM     14  O   UNL     1       6.528   4.982  14.794  0.00  0.00    +0.000 OA
BRANCH  14  15
ATOM     15  C   UNL     1       7.007   4.285  13.630  0.00  0.00    +0.000 C 
BRANCH  15  16
ATOM     16  C   UNL     1       5.784   3.638  12.951  0.00  0.00    +0.000 C 
BRANCH  16  17
ATOM     17  O   UNL     1       6.178   2.502  12.176  0.00  0.00    +0.000 OA
ATOM     18  H   UNL     1       7.148   2.431  12.249  0.00  0.00    +0.000 HD
ENDBRANCH  16  17
ENDBRANCH  15  16
BRANCH  15  19
ATOM     19  C   UNL     1       7.745   5.210  12.643  0.00  0.00    +0.000 C 
BRANCH  19  20
ATOM     20  O   UNL     1       8.774   5.958  13.283  0.00  0.00    +0.000 OA
ATOM     21  H   UNL     1       8.412   6.861  13.429  0.00  0.00    +0.000 HD
ENDBRANCH  19  20
ENDBRANCH  15  19
ENDBRANCH  14  15
ENDBRANCH  13  14
ENDBRANCH   1  13
TORSDOF 7
ENDMDL
MODEL 6
REMARK VINA RESULT:      -6.1      2.955      3.971
REMARK  Name = 
REMARK  7 active torsions:
REMARK  status: ('A' for Active; 'I' for Inactive)
REMARK    1  A    between atoms: O_1  and  C_2
REMARK    2  A    between atoms: C_2  and  C_3
REMARK    3  A    between atoms: C_3  and  C_4
REMARK    4  A    between atoms: C_3  and  O_6
REMARK    5  A    between atoms: C_4  and  O_5
REMARK    6  A    between atoms: O_6  and  C_7
REMARK    7  A    between atoms: C_7  and  N_8
REMARK                            x       y       z     vdW  Elec       q    Type
REMARK                         _______ _______ _______ _____ _____    ______ ____
ROOT
ATOM      1  N   UNL     1       3.911   4.914  18.687  0.00  0.00    +0.000 N 
ATOM      2  C   UNL     1       3.371   4.362  19.819  0.00  0.00    +0.000 A 
ATOM      3 BR   UNL     1       3.690   2.644  20.502  0.00  0.00    +0.000 Br
ATOM      4  N   UNL     1       2.534   5.189  20.407  0.00  0.00    +0.000 NA
ATOM      5  C   UNL     1       2.535   6.333  19.640  0.00  0.00    +0.000 A 
ATOM      6  C   UNL     1       1.841   7.549  19.792  0.00  0.00    +0.000 A 
ATOM      7 CL   UNL     1       0.816   7.642  21.161  0.00  0.00    +0.000 Cl
ATOM      8  C   UNL     1       2.017   8.571  18.856  0.00  0.00    +0.000 A 
ATOM      9 CL   UNL     1       1.197  10.085  18.991  0.00  0.00    +0.000 Cl
ATOM     10  C   UNL     1       2.876   8.387  17.768  0.00  0.00    +0.000 A 
ATOM     11  C   UNL     1       3.578   7.189  17.589  0.00  0.00    +0.000 A 
ATOM     12  C   UNL     1       3.387   6.184  18.546  0.00  0.00    +0.000 A 
ENDROOT
BRANCH   1  13
ATOM     13  C   UNL     1       4.807   4.263  17.747  0.00  0.00    +0.000 C 
BRANCH  13  14
ATOM     14  O   UNL     1       6.071   4.074  18.376  0.00  0.00    +0.000 OA
BRANCH  14  15
ATOM     15  C   UNL     1       7.138   4.848  17.799  0.00  0.00    +0.000 C 
BRANCH  15  16
ATOM     16  C   UNL     1       6.612   5.432  16.473  0.00  0.00    +0.000 C 
BRANCH  16  17
ATOM     17  O   UNL     1       7.665   5.534  15.512  0.00  0.00    +0.000 OA
ATOM     18  H   UNL     1       7.247   5.537  14.630  0.00  0.00    +0.000 HD
ENDBRANCH  16  17
ENDBRANCH  15  16
BRANCH  15  19
ATOM     19  C   UNL     1       7.628   5.974  18.729  0.00  0.00    +0.000 C 
BRANCH  19  20
ATOM     20  O   UNL     1       8.296   5.463  19.877  0.00  0.00    +0.000 OA
ATOM     21  H   UNL     1       9.258   5.588  19.718  0.00  0.00    +0.000 HD
ENDBRANCH  19  20
ENDBRANCH  15  19
ENDBRANCH  14  15
ENDBRANCH  13  14
ENDBRANCH   1  13
TORSDOF 7
ENDMDL
MODEL 7
REMARK VINA RESULT:      -6.0      3.331      4.412
REMARK  Name = 
REMARK  7 active torsions:
REMARK  status: ('A' for Active; 'I' for Inactive)
REMARK    1  A    between atoms: O_1  and  C_2
REMARK    2  A    between atoms: C_2  and  C_3
REMARK    3  A    between atoms: C_3  and  C_4
REMARK    4  A    between atoms: C_3  and  O_6
REMARK    5  A    between atoms: C_4  and  O_5
REMARK    6  A    between atoms: O_6  and  C_7
REMARK    7  A    between atoms: C_7  and  N_8
REMARK                            x       y       z     vdW  Elec       q    Type
REMARK                         _______ _______ _______ _____ _____    ______ ____
ROOT
ATOM      1  N   UNL     1       3.049   4.930  19.083  0.00  0.00    +0.000 N 
ATOM      2  C   UNL     1       2.528   4.592  20.305  0.00  0.00    +0.000 A 
ATOM      3 BR   UNL     1       2.616   2.917  21.147  0.00  0.00    +0.000 Br
ATOM      4  N   UNL     1       1.896   5.605  20.858  0.00  0.00    +0.000 NA
ATOM      5  C   UNL     1       2.019   6.653  19.972  0.00  0.00    +0.000 A 
ATOM      6  C   UNL     1       1.554   7.979  20.039  0.00  0.00    +0.000 A 
ATOM      7 CL   UNL     1       0.685   8.381  21.460  0.00  0.00    +0.000 Cl
ATOM      8  C   UNL     1       1.812   8.861  18.986  0.00  0.00    +0.000 A 
ATOM      9 CL   UNL     1       1.271  10.501  19.013  0.00  0.00    +0.000 Cl
ATOM     10  C   UNL     1       2.527   8.427  17.866  0.00  0.00    +0.000 A 
ATOM     11  C   UNL     1       3.001   7.112  17.769  0.00  0.00    +0.000 A 
ATOM     12  C   UNL     1       2.732   6.252  18.842  0.00  0.00    +0.000 A 
ENDROOT
BRANCH   1  13
ATOM     13  C   UNL     1       3.736   4.046  18.158  0.00  0.00    +0.000 C 
BRANCH  13  14
ATOM     14  O   UNL     1       5.089   3.907  18.578  0.00  0.00    +0.000 OA
BRANCH  14  15
ATOM     15  C   UNL     1       5.965   4.941  18.094  0.00  0.00    +0.000 C 
BRANCH  15  16
ATOM     16  C   UNL     1       6.706   5.521  19.315  0.00  0.00    +0.000 C 
BRANCH  16  17
ATOM     17  O   UNL     1       8.089   5.160  19.286  0.00  0.00    +0.000 OA
ATOM     18  H   UNL     1       8.476   5.583  18.496  0.00  0.00    +0.000 HD
ENDBRANCH  16  17
ENDBRANCH  15  16
BRANCH  15  19
ATOM     19  C   UNL     1       6.971   4.429  17.045  0.00  0.00    +0.000 C 
BRANCH  19  20
ATOM     20  O   UNL     1       7.556   5.494  16.304  0.00  0.00    +0.000 OA
ATOM     21  H   UNL     1       7.711   6.225  16.943  0.00  0.00    +0.000 HD
ENDBRANCH  19  20
ENDBRANCH  15  19
ENDBRANCH  14  15
ENDBRANCH  13  14
ENDBRANCH   1  13
TORSDOF 7
ENDMDL
MODEL 8
REMARK VINA RESULT:      -6.0      3.045      3.972
REMARK  Name = 
REMARK  7 active torsions:
REMARK  status: ('A' for Active; 'I' for Inactive)
REMARK    1  A    between atoms: O_1  and  C_2
REMARK    2  A    between atoms: C_2  and  C_3
REMARK    3  A    between atoms: C_3  and  C_4
REMARK    4  A    between atoms: C_3  and  O_6
REMARK    5  A    between atoms: C_4  and  O_5
REMARK    6  A    between atoms: O_6  and  C_7
REMARK    7  A    between atoms: C_7  and  N_8
REMARK                            x       y       z     vdW  Elec       q    Type
REMARK                         _______ _______ _______ _____ _____    ______ ____
ROOT
ATOM      1  N   UNL     1       3.503   5.136  18.381  0.00  0.00    +0.000 N 
ATOM      2  C   UNL     1       3.162   4.549  19.572  0.00  0.00    +0.000 A 
ATOM      3 BR   UNL     1       3.549   2.797  20.120  0.00  0.00    +0.000 Br
ATOM      4  N   UNL     1       2.472   5.370  20.334  0.00  0.00    +0.000 NA
ATOM      5  C   UNL     1       2.368   6.545  19.623  0.00  0.00    +0.000 A 
ATOM      6  C   UNL     1       1.750   7.768  19.945  0.00  0.00    +0.000 A 
ATOM      7 CL   UNL     1       0.996   7.827  21.481  0.00  0.00    +0.000 Cl
ATOM      8  C   UNL     1       1.783   8.824  19.030  0.00  0.00    +0.000 A 
ATOM      9 CL   UNL     1       1.048  10.350  19.370  0.00  0.00    +0.000 Cl
ATOM     10  C   UNL     1       2.423   8.667  17.798  0.00  0.00    +0.000 A 
ATOM     11  C   UNL     1       3.044   7.462  17.448  0.00  0.00    +0.000 A 
ATOM     12  C   UNL     1       3.001   6.422  18.386  0.00  0.00    +0.000 A 
ENDROOT
BRANCH   1  13
ATOM     13  C   UNL     1       4.192   4.505  17.269  0.00  0.00    +0.000 C 
BRANCH  13  14
ATOM     14  O   UNL     1       5.556   4.305  17.630  0.00  0.00    +0.000 OA
BRANCH  14  15
ATOM     15  C   UNL     1       6.286   5.522  17.868  0.00  0.00    +0.000 C 
BRANCH  15  16
ATOM     16  C   UNL     1       7.667   5.124  18.426  0.00  0.00    +0.000 C 
BRANCH  16  17
ATOM     17  O   UNL     1       8.214   4.030  17.686  0.00  0.00    +0.000 OA
ATOM     18  H   UNL     1       8.698   4.412  16.930  0.00  0.00    +0.000 HD
ENDBRANCH  16  17
ENDBRANCH  15  16
BRANCH  15  19
ATOM     19  C   UNL     1       6.443   6.380  16.598  0.00  0.00    +0.000 C 
BRANCH  19  20
ATOM     20  O   UNL     1       7.356   5.799  15.673  0.00  0.00    +0.000 OA
ATOM     21  H   UNL     1       8.248   6.136  15.913  0.00  0.00    +0.000 HD
ENDBRANCH  19  20
ENDBRANCH  15  19
ENDBRANCH  14  15
ENDBRANCH  13  14
ENDBRANCH   1  13
TORSDOF 7
ENDMDL
MODEL 9
REMARK VINA RESULT:      -6.0      2.685      3.370
REMARK  Name = 
REMARK  7 active torsions:
REMARK  status: ('A' for Active; 'I' for Inactive)
REMARK    1  A    between atoms: O_1  and  C_2
REMARK    2  A    between atoms: C_2  and  C_3
REMARK    3  A    between atoms: C_3  and  C_4
REMARK    4  A    between atoms: C_3  and  O_6
REMARK    5  A    between atoms: C_4  and  O_5
REMARK    6  A    between atoms: O_6  and  C_7
REMARK    7  A    between atoms: C_7  and  N_8
REMARK                            x       y       z     vdW  Elec       q    Type
REMARK                         _______ _______ _______ _____ _____    ______ ____
ROOT
ATOM      1  N   UNL     1       4.992   5.418  17.778  0.00  0.00    +0.000 N 
ATOM      2  C   UNL     1       5.873   5.061  18.765  0.00  0.00    +0.000 A 
ATOM      3 BR   UNL     1       7.680   5.549  18.898  0.00  0.00    +0.000 Br
ATOM      4  N   UNL     1       5.308   4.274  19.655  0.00  0.00    +0.000 NA
ATOM      5  C   UNL     1       4.003   4.118  19.244  0.00  0.00    +0.000 A 
ATOM      6  C   UNL     1       2.936   3.395  19.810  0.00  0.00    +0.000 A 
ATOM      7 CL   UNL     1       3.303   2.561  21.260  0.00  0.00    +0.000 Cl
ATOM      8  C   UNL     1       1.687   3.395  19.184  0.00  0.00    +0.000 A 
ATOM      9 CL   UNL     1       0.339   2.532  19.832  0.00  0.00    +0.000 Cl
ATOM     10  C   UNL     1       1.497   4.107  17.996  0.00  0.00    +0.000 A 
ATOM     11  C   UNL     1       2.540   4.834  17.407  0.00  0.00    +0.000 A 
ATOM     12  C   UNL     1       3.779   4.820  18.060  0.00  0.00    +0.000 A 
ENDROOT
BRANCH   1  13
ATOM     13  C   UNL     1       5.287   6.208  16.595  0.00  0.00    +0.000 C 
BRANCH  13  14
ATOM     14  O   UNL     1       4.926   5.455  15.441  0.00  0.00    +0.000 OA
BRANCH  14  15
ATOM     15  C   UNL     1       5.918   4.497  15.030  0.00  0.00    +0.000 C 
BRANCH  15  16
ATOM     16  C   UNL     1       5.622   4.136  13.561  0.00  0.00    +0.000 C 
BRANCH  16  17
ATOM     17  O   UNL     1       6.389   2.999  13.155  0.00  0.00    +0.000 OA
ATOM     18  H   UNL     1       5.812   2.456  12.586  0.00  0.00    +0.000 HD
ENDBRANCH  16  17
ENDBRANCH  15  16
BRANCH  15  19
ATOM     19  C   UNL     1       7.357   5.028  15.176  0.00  0.00    +0.000 C 
BRANCH  19  20
ATOM     20  O   UNL     1       7.866   5.532  13.945  0.00  0.00    +0.000 OA
ATOM     21  H   UNL     1       8.003   6.496  14.074  0.00  0.00    +0.000 HD
ENDBRANCH  19  20
ENDBRANCH  15  19
ENDBRANCH  14  15
ENDBRANCH  13  14
ENDBRANCH   1  13
TORSDOF 7
ENDMDL
