MODEL 1
REMARK VINA RESULT:      -8.4      0.000      0.000
REMARK  Name = 
REMARK  3 active torsions:
REMARK  status: ('A' for Active; 'I' for Inactive)
REMARK    1  A    between atoms: C_2  and  C_5
REMARK    2  A    between atoms: C_9  and  C_10
REMARK    3  A    between atoms: N_17  and  C_18
REMARK                            x       y       z     vdW  Elec       q    Type
REMARK                         _______ _______ _______ _____ _____    ______ ____
ROOT
ATOM      1  C   UNL     1       1.952   5.568  19.933  0.00  0.00    +0.000 A 
ATOM      2  C   UNL     1       1.003   4.853  20.696  0.00  0.00    +0.000 A 
ATOM      3  N   UNL     1       1.386   3.611  20.988  0.00  0.00    +0.000 NA
ATOM      4  N   UNL     1       2.613   3.505  20.427  0.00  0.00    +0.000 N 
ATOM      5  C   UNL     1       3.462   2.409  20.475  0.00  0.00    +0.000 A 
ATOM      6  C   UNL     1       4.668   2.469  19.898  0.00  0.00    +0.000 A 
ATOM      7  C   UNL     1       5.022   3.746  19.185  0.00  0.00    +0.000 A 
ATOM      8  N   UNL     1       6.255   3.811  18.589  0.00  0.00    +0.000 N 
ATOM      9  N   UNL     1       4.202   4.768  19.115  0.00  0.00    +0.000 NA
ATOM     10  C   UNL     1       2.994   4.671  19.756  0.00  0.00    +0.000 A 
ATOM     11  H   UNL     1       6.947   3.115  18.839  0.00  0.00    +0.000 HD
ENDROOT
BRANCH   1  16
ATOM     12  C   UNL     1       1.362   9.302  19.753  0.00  0.00    +0.000 A 
ATOM     13  C   UNL     1       1.871   9.578  18.476  0.00  0.00    +0.000 A 
ATOM     14  C   UNL     1       2.383   8.551  17.686  0.00  0.00    +0.000 A 
ATOM     15  C   UNL     1       2.396   7.239  18.164  0.00  0.00    +0.000 A 
ATOM     16  C   UNL     1       1.903   6.936  19.440  0.00  0.00    +0.000 A 
ATOM     17  C   UNL     1       1.390   7.978  20.225  0.00  0.00    +0.000 A 
BRANCH  12  19
ATOM     18  F   UNL     1      -0.528  10.646  20.377  0.00  0.00    +0.000 F 
ATOM     19  C   UNL     1       0.788  10.392  20.621  0.00  0.00    +0.000 C 
ATOM     20  F   UNL     1       1.430  11.583  20.460  0.00  0.00    +0.000 F 
ATOM     21  F   UNL     1       0.869  10.103  21.950  0.00  0.00    +0.000 F 
ENDBRANCH  12  19
ENDBRANCH   1  16
BRANCH   8  22
ATOM     22  C   UNL     1       6.612   4.689  17.480  0.00  0.00    +0.000 C 
ATOM     23  C   UNL     1       6.566   6.131  17.999  0.00  0.00    +0.000 C 
ATOM     24  C   UNL     1       6.555   7.145  16.869  0.00  0.00    +0.000 C 
ATOM     25  O   UNL     1       5.511   6.846  15.947  0.00  0.00    +0.000 OA
ATOM     26  C   UNL     1       5.728   5.594  15.300  0.00  0.00    +0.000 C 
ATOM     27  C   UNL     1       5.658   4.457  16.310  0.00  0.00    +0.000 C 
ENDBRANCH   8  22
TORSDOF 3
ENDMDL
MODEL 2
REMARK VINA RESULT:      -8.2      4.049      6.396
REMARK  Name = 
REMARK  3 active torsions:
REMARK  status: ('A' for Active; 'I' for Inactive)
REMARK    1  A    between atoms: C_2  and  C_5
REMARK    2  A    between atoms: C_9  and  C_10
REMARK    3  A    between atoms: N_17  and  C_18
REMARK                            x       y       z     vdW  Elec       q    Type
REMARK                         _______ _______ _______ _____ _____    ______ ____
ROOT
ATOM      1  C   UNL     1       4.811   3.773  19.162  0.00  0.00    +0.000 A 
ATOM      2  C   UNL     1       4.915   2.455  19.659  0.00  0.00    +0.000 A 
ATOM      3  N   UNL     1       3.927   2.123  20.488  0.00  0.00    +0.000 NA
ATOM      4  N   UNL     1       3.146   3.227  20.529  0.00  0.00    +0.000 N 
ATOM      5  C   UNL     1       1.960   3.387  21.229  0.00  0.00    +0.000 A 
ATOM      6  C   UNL     1       1.278   4.535  21.142  0.00  0.00    +0.000 A 
ATOM      7  C   UNL     1       1.878   5.623  20.292  0.00  0.00    +0.000 A 
ATOM      8  N   UNL     1       1.185   6.802  20.203  0.00  0.00    +0.000 N 
ATOM      9  N   UNL     1       3.017   5.478  19.657  0.00  0.00    +0.000 NA
ATOM     10  C   UNL     1       3.657   4.270  19.748  0.00  0.00    +0.000 A 
ATOM     11  H   UNL     1       0.219   6.817  20.508  0.00  0.00    +0.000 HD
ENDROOT
BRANCH   1  16
ATOM     12  C   UNL     1       6.455   4.942  15.959  0.00  0.00    +0.000 A 
ATOM     13  C   UNL     1       7.330   5.914  16.463  0.00  0.00    +0.000 A 
ATOM     14  C   UNL     1       7.388   6.167  17.833  0.00  0.00    +0.000 A 
ATOM     15  C   UNL     1       6.569   5.455  18.711  0.00  0.00    +0.000 A 
ATOM     16  C   UNL     1       5.677   4.485  18.234  0.00  0.00    +0.000 A 
ATOM     17  C   UNL     1       5.630   4.239  16.855  0.00  0.00    +0.000 A 
BRANCH  12  19
ATOM     18  F   UNL     1       6.445   3.307  14.200  0.00  0.00    +0.000 F 
ATOM     19  C   UNL     1       6.385   4.638  14.485  0.00  0.00    +0.000 C 
ATOM     20  F   UNL     1       7.402   5.212  13.783  0.00  0.00    +0.000 F 
ATOM     21  F   UNL     1       5.235   5.088  13.909  0.00  0.00    +0.000 F 
ENDBRANCH  12  19
ENDBRANCH   1  16
BRANCH   8  22
ATOM     22  C   UNL     1       1.765   8.100  19.874  0.00  0.00    +0.000 C 
ATOM     23  C   UNL     1       0.873   9.178  20.502  0.00  0.00    +0.000 C 
ATOM     24  C   UNL     1       1.153  10.556  19.930  0.00  0.00    +0.000 C 
ATOM     25  O   UNL     1       1.081  10.526  18.508  0.00  0.00    +0.000 OA
ATOM     26  C   UNL     1       2.098   9.695  17.951  0.00  0.00    +0.000 C 
ATOM     27  C   UNL     1       1.879   8.245  18.357  0.00  0.00    +0.000 C 
ENDBRANCH   8  22
TORSDOF 3
ENDMDL
MODEL 3
REMARK VINA RESULT:      -8.1      1.433      1.911
REMARK  Name = 
REMARK  3 active torsions:
REMARK  status: ('A' for Active; 'I' for Inactive)
REMARK    1  A    between atoms: C_2  and  C_5
REMARK    2  A    between atoms: C_9  and  C_10
REMARK    3  A    between atoms: N_17  and  C_18
REMARK                            x       y       z     vdW  Elec       q    Type
REMARK                         _______ _______ _______ _____ _____    ______ ____
ROOT
ATOM      1  C   UNL     1       1.648   4.794  19.701  0.00  0.00    +0.000 A 
ATOM      2  C   UNL     1       0.768   3.967  20.432  0.00  0.00    +0.000 A 
ATOM      3  N   UNL     1       1.008   2.666  20.271  0.00  0.00    +0.000 NA
ATOM      4  N   UNL     1       2.072   2.629  19.435  0.00  0.00    +0.000 N 
ATOM      5  C   UNL     1       2.737   1.501  18.979  0.00  0.00    +0.000 A 
ATOM      6  C   UNL     1       3.802   1.628  18.179  0.00  0.00    +0.000 A 
ATOM      7  C   UNL     1       4.201   3.026  17.788  0.00  0.00    +0.000 A 
ATOM      8  N   UNL     1       5.289   3.161  16.965  0.00  0.00    +0.000 N 
ATOM      9  N   UNL     1       3.548   4.088  18.196  0.00  0.00    +0.000 NA
ATOM     10  C   UNL     1       2.487   3.907  19.045  0.00  0.00    +0.000 A 
ATOM     11  H   UNL     1       5.903   2.364  16.845  0.00  0.00    +0.000 HD
ENDROOT
BRANCH   1  16
ATOM     12  C   UNL     1       1.440   8.448  20.666  0.00  0.00    +0.000 A 
ATOM     13  C   UNL     1       1.898   9.049  19.485  0.00  0.00    +0.000 A 
ATOM     14  C   UNL     1       2.254   8.265  18.389  0.00  0.00    +0.000 A 
ATOM     15  C   UNL     1       2.159   6.874  18.463  0.00  0.00    +0.000 A 
ATOM     16  C   UNL     1       1.713   6.246  19.634  0.00  0.00    +0.000 A 
ATOM     17  C   UNL     1       1.357   7.046  20.728  0.00  0.00    +0.000 A 
BRANCH  12  19
ATOM     18  F   UNL     1       0.870  10.596  21.578  0.00  0.00    +0.000 F 
ATOM     19  C   UNL     1       1.033   9.273  21.860  0.00  0.00    +0.000 C 
ATOM     20  F   UNL     1       1.948   9.221  22.868  0.00  0.00    +0.000 F 
ATOM     21  F   UNL     1      -0.146   8.863  22.406  0.00  0.00    +0.000 F 
ENDBRANCH  12  19
ENDBRANCH   1  16
BRANCH   8  22
ATOM     22  C   UNL     1       5.553   4.300  16.093  0.00  0.00    +0.000 C 
ATOM     23  C   UNL     1       6.143   3.756  14.786  0.00  0.00    +0.000 C 
ATOM     24  C   UNL     1       6.795   4.847  13.956  0.00  0.00    +0.000 C 
ATOM     25  O   UNL     1       7.740   5.568  14.741  0.00  0.00    +0.000 OA
ATOM     26  C   UNL     1       7.105   6.266  15.811  0.00  0.00    +0.000 C 
ATOM     27  C   UNL     1       6.491   5.281  16.796  0.00  0.00    +0.000 C 
ENDBRANCH   8  22
TORSDOF 3
ENDMDL
MODEL 4
REMARK VINA RESULT:      -8.0      2.341      4.489
REMARK  Name = 
REMARK  3 active torsions:
REMARK  status: ('A' for Active; 'I' for Inactive)
REMARK    1  A    between atoms: C_2  and  C_5
REMARK    2  A    between atoms: C_9  and  C_10
REMARK    3  A    between atoms: N_17  and  C_18
REMARK                            x       y       z     vdW  Elec       q    Type
REMARK                         _______ _______ _______ _____ _____    ______ ____
ROOT
ATOM      1  C   UNL     1       3.814   6.964  17.555  0.00  0.00    +0.000 A 
ATOM      2  C   UNL     1       4.737   7.601  16.697  0.00  0.00    +0.000 A 
ATOM      3  N   UNL     1       5.455   6.748  15.967  0.00  0.00    +0.000 NA
ATOM      4  N   UNL     1       4.990   5.531  16.331  0.00  0.00    +0.000 N 
ATOM      5  C   UNL     1       5.389   4.300  15.832  0.00  0.00    +0.000 A 
ATOM      6  C   UNL     1       4.807   3.178  16.269  0.00  0.00    +0.000 A 
ATOM      7  C   UNL     1       3.750   3.325  17.330  0.00  0.00    +0.000 A 
ATOM      8  N   UNL     1       3.153   2.177  17.784  0.00  0.00    +0.000 N 
ATOM      9  N   UNL     1       3.398   4.489  17.822  0.00  0.00    +0.000 NA
ATOM     10  C   UNL     1       3.997   5.612  17.313  0.00  0.00    +0.000 A 
ATOM     11  H   UNL     1       3.272   1.328  17.245  0.00  0.00    +0.000 HD
ENDROOT
BRANCH   1  16
ATOM     12  C   UNL     1       1.237   9.288  19.067  0.00  0.00    +0.000 A 
ATOM     13  C   UNL     1       0.972   8.624  20.273  0.00  0.00    +0.000 A 
ATOM     14  C   UNL     1       1.642   7.442  20.586  0.00  0.00    +0.000 A 
ATOM     15  C   UNL     1       2.578   6.911  19.697  0.00  0.00    +0.000 A 
ATOM     16  C   UNL     1       2.855   7.549  18.481  0.00  0.00    +0.000 A 
ATOM     17  C   UNL     1       2.176   8.737  18.178  0.00  0.00    +0.000 A 
BRANCH  12  19
ATOM     18  F   UNL     1       1.368  11.515  18.177  0.00  0.00    +0.000 F 
ATOM     19  C   UNL     1       0.539  10.576  18.711  0.00  0.00    +0.000 C 
ATOM     20  F   UNL     1      -0.046  11.169  19.789  0.00  0.00    +0.000 F 
ATOM     21  F   UNL     1      -0.457  10.399  17.798  0.00  0.00    +0.000 F 
ENDBRANCH  12  19
ENDBRANCH   1  16
BRANCH   8  22
ATOM     22  C   UNL     1       2.504   2.019  19.081  0.00  0.00    +0.000 C 
ATOM     23  C   UNL     1       1.211   2.842  19.055  0.00  0.00    +0.000 C 
ATOM     24  C   UNL     1       0.642   3.058  20.446  0.00  0.00    +0.000 C 
ATOM     25  O   UNL     1       1.637   3.601  21.309  0.00  0.00    +0.000 OA
ATOM     26  C   UNL     1       2.716   2.689  21.501  0.00  0.00    +0.000 C 
ATOM     27  C   UNL     1       3.457   2.459  20.192  0.00  0.00    +0.000 C 
ENDBRANCH   8  22
TORSDOF 3
ENDMDL
MODEL 5
REMARK VINA RESULT:      -7.9      4.403      6.564
REMARK  Name = 
REMARK  3 active torsions:
REMARK  status: ('A' for Active; 'I' for Inactive)
REMARK    1  A    between atoms: C_2  and  C_5
REMARK    2  A    between atoms: C_9  and  C_10
REMARK    3  A    between atoms: N_17  and  C_18
REMARK                            x       y       z     vdW  Elec       q    Type
REMARK                         _______ _______ _______ _____ _____    ______ ____
ROOT
ATOM      1  C   UNL     1       4.327   3.667  18.224  0.00  0.00    +0.000 A 
ATOM      2  C   UNL     1       4.625   2.321  18.529  0.00  0.00    +0.000 A 
ATOM      3  N   UNL     1       4.049   1.893  19.652  0.00  0.00    +0.000 NA
ATOM      4  N   UNL     1       3.346   2.963  20.090  0.00  0.00    +0.000 N 
ATOM      5  C   UNL     1       2.536   3.029  21.213  0.00  0.00    +0.000 A 
ATOM      6  C   UNL     1       1.872   4.155  21.498  0.00  0.00    +0.000 A 
ATOM      7  C   UNL     1       2.079   5.323  20.571  0.00  0.00    +0.000 A 
ATOM      8  N   UNL     1       1.404   6.480  20.860  0.00  0.00    +0.000 N 
ATOM      9  N   UNL     1       2.872   5.266  19.527  0.00  0.00    +0.000 NA
ATOM     10  C   UNL     1       3.499   4.077  19.258  0.00  0.00    +0.000 A 
ATOM     11  H   UNL     1       0.640   6.438  21.524  0.00  0.00    +0.000 HD
ENDROOT
BRANCH   1  16
ATOM     12  C   UNL     1       5.522   4.671  14.776  0.00  0.00    +0.000 A 
ATOM     13  C   UNL     1       5.510   6.068  14.900  0.00  0.00    +0.000 A 
ATOM     14  C   UNL     1       5.131   6.664  16.102  0.00  0.00    +0.000 A 
ATOM     15  C   UNL     1       4.756   5.872  17.188  0.00  0.00    +0.000 A 
ATOM     16  C   UNL     1       4.749   4.474  17.089  0.00  0.00    +0.000 A 
ATOM     17  C   UNL     1       5.134   3.887  15.876  0.00  0.00    +0.000 A 
BRANCH  12  19
ATOM     18  F   UNL     1       4.935   3.874  12.588  0.00  0.00    +0.000 F 
ATOM     19  C   UNL     1       5.944   4.001  13.494  0.00  0.00    +0.000 C 
ATOM     20  F   UNL     1       6.421   2.741  13.694  0.00  0.00    +0.000 F 
ATOM     21  F   UNL     1       6.937   4.676  12.849  0.00  0.00    +0.000 F 
ENDBRANCH  12  19
ENDBRANCH   1  16
BRANCH   8  22
ATOM     22  C   UNL     1       1.800   7.818  20.434  0.00  0.00    +0.000 C 
ATOM     23  C   UNL     1       0.797   8.811  21.034  0.00  0.00    +0.000 C 
ATOM     24  C   UNL     1       0.878  10.175  20.374  0.00  0.00    +0.000 C 
ATOM     25  O   UNL     1       0.765  10.048  18.960  0.00  0.00    +0.000 OA
ATOM     26  C   UNL     1       1.863   9.320  18.412  0.00  0.00    +0.000 C 
ATOM     27  C   UNL     1       1.846   7.882  18.908  0.00  0.00    +0.000 C 
ENDBRANCH   8  22
TORSDOF 3
ENDMDL
MODEL 6
REMARK VINA RESULT:      -7.9      3.199      5.767
REMARK  Name = 
REMARK  3 active torsions:
REMARK  status: ('A' for Active; 'I' for Inactive)
REMARK    1  A    between atoms: C_2  and  C_5
REMARK    2  A    between atoms: C_9  and  C_10
REMARK    3  A    between atoms: N_17  and  C_18
REMARK                            x       y       z     vdW  Elec       q    Type
REMARK                         _______ _______ _______ _____ _____    ______ ____
ROOT
ATOM      1  C   UNL     1       4.652   3.663  18.826  0.00  0.00    +0.000 A 
ATOM      2  C   UNL     1       4.810   2.327  19.257  0.00  0.00    +0.000 A 
ATOM      3  N   UNL     1       3.931   1.966  20.191  0.00  0.00    +0.000 NA
ATOM      4  N   UNL     1       3.168   3.069  20.370  0.00  0.00    +0.000 N 
ATOM      5  C   UNL     1       2.080   3.205  21.218  0.00  0.00    +0.000 A 
ATOM      6  C   UNL     1       1.399   4.356  21.259  0.00  0.00    +0.000 A 
ATOM      7  C   UNL     1       1.894   5.474  20.380  0.00  0.00    +0.000 A 
ATOM      8  N   UNL     1       1.202   6.656  20.421  0.00  0.00    +0.000 N 
ATOM      9  N   UNL     1       2.944   5.351  19.603  0.00  0.00    +0.000 NA
ATOM     10  C   UNL     1       3.583   4.139  19.569  0.00  0.00    +0.000 A 
ATOM     11  H   UNL     1       0.282   6.661  20.845  0.00  0.00    +0.000 HD
ENDROOT
BRANCH   1  16
ATOM     12  C   UNL     1       6.877   6.251  17.190  0.00  0.00    +0.000 A 
ATOM     13  C   UNL     1       6.873   5.789  15.866  0.00  0.00    +0.000 A 
ATOM     14  C   UNL     1       6.139   4.656  15.519  0.00  0.00    +0.000 A 
ATOM     15  C   UNL     1       5.406   3.972  16.490  0.00  0.00    +0.000 A 
ATOM     16  C   UNL     1       5.400   4.406  17.822  0.00  0.00    +0.000 A 
ATOM     17  C   UNL     1       6.141   5.547  18.158  0.00  0.00    +0.000 A 
BRANCH  12  19
ATOM     18  F   UNL     1       8.540   7.897  16.645  0.00  0.00    +0.000 F 
ATOM     19  C   UNL     1       7.649   7.483  17.589  0.00  0.00    +0.000 C 
ATOM     20  F   UNL     1       8.375   7.299  18.727  0.00  0.00    +0.000 F 
ATOM     21  F   UNL     1       6.842   8.554  17.832  0.00  0.00    +0.000 F 
ENDBRANCH  12  19
ENDBRANCH   1  16
BRANCH   8  22
ATOM     22  C   UNL     1       1.744   7.964  20.069  0.00  0.00    +0.000 C 
ATOM     23  C   UNL     1       0.815   9.027  20.668  0.00  0.00    +0.000 C 
ATOM     24  C   UNL     1       1.057  10.401  20.070  0.00  0.00    +0.000 C 
ATOM     25  O   UNL     1       0.996  10.339  18.648  0.00  0.00    +0.000 OA
ATOM     26  C   UNL     1       2.042   9.529  18.115  0.00  0.00    +0.000 C 
ATOM     27  C   UNL     1       1.865   8.081  18.550  0.00  0.00    +0.000 C 
ENDBRANCH   8  22
TORSDOF 3
ENDMDL
MODEL 7
REMARK VINA RESULT:      -7.9      0.704      1.073
REMARK  Name = 
REMARK  3 active torsions:
REMARK  status: ('A' for Active; 'I' for Inactive)
REMARK    1  A    between atoms: C_2  and  C_5
REMARK    2  A    between atoms: C_9  and  C_10
REMARK    3  A    between atoms: N_17  and  C_18
REMARK                            x       y       z     vdW  Elec       q    Type
REMARK                         _______ _______ _______ _____ _____    ______ ____
ROOT
ATOM      1  C   UNL     1       1.979   5.575  19.998  0.00  0.00    +0.000 A 
ATOM      2  C   UNL     1       1.093   4.789  20.767  0.00  0.00    +0.000 A 
ATOM      3  N   UNL     1       1.544   3.557  20.998  0.00  0.00    +0.000 NA
ATOM      4  N   UNL     1       2.753   3.529  20.390  0.00  0.00    +0.000 N 
ATOM      5  C   UNL     1       3.652   2.475  20.365  0.00  0.00    +0.000 A 
ATOM      6  C   UNL     1       4.831   2.612  19.747  0.00  0.00    +0.000 A 
ATOM      7  C   UNL     1       5.099   3.930  19.071  0.00  0.00    +0.000 A 
ATOM      8  N   UNL     1       6.304   4.074  18.434  0.00  0.00    +0.000 N 
ATOM      9  N   UNL     1       4.231   4.914  19.070  0.00  0.00    +0.000 NA
ATOM     10  C   UNL     1       3.054   4.736  19.749  0.00  0.00    +0.000 A 
ATOM     11  H   UNL     1       7.037   3.404  18.632  0.00  0.00    +0.000 HD
ENDROOT
BRANCH   1  16
ATOM     12  C   UNL     1       1.253   9.290  19.995  0.00  0.00    +0.000 A 
ATOM     13  C   UNL     1       1.656   9.626  18.695  0.00  0.00    +0.000 A 
ATOM     14  C   UNL     1       2.143   8.644  17.834  0.00  0.00    +0.000 A 
ATOM     15  C   UNL     1       2.235   7.319  18.263  0.00  0.00    +0.000 A 
ATOM     16  C   UNL     1       1.848   6.957  19.560  0.00  0.00    +0.000 A 
ATOM     17  C   UNL     1       1.359   7.953  20.416  0.00  0.00    +0.000 A 
BRANCH  12  19
ATOM     18  F   UNL     1       1.430  11.484  20.956  0.00  0.00    +0.000 F 
ATOM     19  C   UNL     1       0.708  10.329  20.941  0.00  0.00    +0.000 C 
ATOM     20  F   UNL     1       0.676   9.896  22.232  0.00  0.00    +0.000 F 
ATOM     21  F   UNL     1      -0.570  10.695  20.641  0.00  0.00    +0.000 F 
ENDBRANCH  12  19
ENDBRANCH   1  16
BRANCH   8  22
ATOM     22  C   UNL     1       6.578   5.008  17.347  0.00  0.00    +0.000 C 
ATOM     23  C   UNL     1       5.280   5.770  17.052  0.00  0.00    +0.000 C 
ATOM     24  C   UNL     1       5.331   6.492  15.718  0.00  0.00    +0.000 C 
ATOM     25  O   UNL     1       5.700   5.589  14.680  0.00  0.00    +0.000 OA
ATOM     26  C   UNL     1       7.023   5.091  14.867  0.00  0.00    +0.000 C 
ATOM     27  C   UNL     1       7.098   4.244  16.129  0.00  0.00    +0.000 C 
ENDBRANCH   8  22
TORSDOF 3
ENDMDL
MODEL 8
REMARK VINA RESULT:      -7.7      0.955      1.357
REMARK  Name = 
REMARK  3 active torsions:
REMARK  status: ('A' for Active; 'I' for Inactive)
REMARK    1  A    between atoms: C_2  and  C_5
REMARK    2  A    between atoms: C_9  and  C_10
REMARK    3  A    between atoms: N_17  and  C_18
REMARK                            x       y       z     vdW  Elec       q    Type
REMARK                         _______ _______ _______ _____ _____    ______ ____
ROOT
ATOM      1  C   UNL     1       1.976   5.356  20.335  0.00  0.00    +0.000 A 
ATOM      2  C   UNL     1       1.242   4.595  21.271  0.00  0.00    +0.000 A 
ATOM      3  N   UNL     1       1.714   3.360  21.436  0.00  0.00    +0.000 NA
ATOM      4  N   UNL     1       2.787   3.306  20.612  0.00  0.00    +0.000 N 
ATOM      5  C   UNL     1       3.653   2.238  20.439  0.00  0.00    +0.000 A 
ATOM      6  C   UNL     1       4.697   2.348  19.609  0.00  0.00    +0.000 A 
ATOM      7  C   UNL     1       4.848   3.650  18.870  0.00  0.00    +0.000 A 
ATOM      8  N   UNL     1       5.914   3.767  18.016  0.00  0.00    +0.000 N 
ATOM      9  N   UNL     1       4.006   4.647  19.013  0.00  0.00    +0.000 NA
ATOM     10  C   UNL     1       2.976   4.497  19.905  0.00  0.00    +0.000 A 
ATOM     11  H   UNL     1       6.663   3.089  18.086  0.00  0.00    +0.000 HD
ENDROOT
BRANCH   1  16
ATOM     12  C   UNL     1       1.117   9.042  20.362  0.00  0.00    +0.000 A 
ATOM     13  C   UNL     1       1.465   9.394  19.050  0.00  0.00    +0.000 A 
ATOM     14  C   UNL     1       1.958   8.430  18.171  0.00  0.00    +0.000 A 
ATOM     15  C   UNL     1       2.112   7.109  18.595  0.00  0.00    +0.000 A 
ATOM     16  C   UNL     1       1.781   6.732  19.903  0.00  0.00    +0.000 A 
ATOM     17  C   UNL     1       1.286   7.710  20.777  0.00  0.00    +0.000 A 
BRANCH  12  19
ATOM     18  F   UNL     1      -0.789  10.181  21.277  0.00  0.00    +0.000 F 
ATOM     19  C   UNL     1       0.567  10.060  21.327  0.00  0.00    +0.000 C 
ATOM     20  F   UNL     1       1.058  11.312  21.104  0.00  0.00    +0.000 F 
ATOM     21  F   UNL     1       0.865   9.770  22.625  0.00  0.00    +0.000 F 
ENDBRANCH  12  19
ENDBRANCH   1  16
BRANCH   8  22
ATOM     22  C   UNL     1       5.990   4.679  16.880  0.00  0.00    +0.000 C 
ATOM     23  C   UNL     1       6.234   3.834  15.623  0.00  0.00    +0.000 C 
ATOM     24  C   UNL     1       6.696   4.677  14.448  0.00  0.00    +0.000 C 
ATOM     25  O   UNL     1       7.820   5.469  14.819  0.00  0.00    +0.000 OA
ATOM     26  C   UNL     1       7.479   6.419  15.827  0.00  0.00    +0.000 C 
ATOM     27  C   UNL     1       7.094   5.708  17.117  0.00  0.00    +0.000 C 
ENDBRANCH   8  22
TORSDOF 3
ENDMDL
MODEL 9
REMARK VINA RESULT:      -7.7      5.130      7.869
REMARK  Name = 
REMARK  3 active torsions:
REMARK  status: ('A' for Active; 'I' for Inactive)
REMARK    1  A    between atoms: C_2  and  C_5
REMARK    2  A    between atoms: C_9  and  C_10
REMARK    3  A    between atoms: N_17  and  C_18
REMARK                            x       y       z     vdW  Elec       q    Type
REMARK                         _______ _______ _______ _____ _____    ______ ____
ROOT
ATOM      1  C   UNL     1       0.421   9.635  21.166  0.00  0.00    +0.000 A 
ATOM      2  C   UNL     1      -0.402   9.138  22.202  0.00  0.00    +0.000 A 
ATOM      3  N   UNL     1      -0.941  10.097  22.954  0.00  0.00    +0.000 NA
ATOM      4  N   UNL     1      -0.486  11.245  22.401  0.00  0.00    +0.000 N 
ATOM      5  C   UNL     1      -0.787  12.539  22.795  0.00  0.00    +0.000 A 
ATOM      6  C   UNL     1      -0.284  13.581  22.122  0.00  0.00    +0.000 A 
ATOM      7  C   UNL     1       0.629  13.271  20.967  0.00  0.00    +0.000 A 
ATOM      8  N   UNL     1       1.150  14.334  20.276  0.00  0.00    +0.000 N 
ATOM      9  N   UNL     1       0.937  12.044  20.617  0.00  0.00    +0.000 NA
ATOM     10  C   UNL     1       0.365  11.012  21.315  0.00  0.00    +0.000 A 
ATOM     11  H   UNL     1       0.733  15.247  20.413  0.00  0.00    +0.000 HD
ENDROOT
BRANCH   1  16
ATOM     12  C   UNL     1       2.428   6.952  19.405  0.00  0.00    +0.000 A 
ATOM     13  C   UNL     1       2.537   7.516  18.126  0.00  0.00    +0.000 A 
ATOM     14  C   UNL     1       1.974   8.762  17.856  0.00  0.00    +0.000 A 
ATOM     15  C   UNL     1       1.293   9.455  18.858  0.00  0.00    +0.000 A 
ATOM     16  C   UNL     1       1.160   8.910  20.143  0.00  0.00    +0.000 A 
ATOM     17  C   UNL     1       1.731   7.657  20.402  0.00  0.00    +0.000 A 
BRANCH  12  19
ATOM     18  F   UNL     1       4.397   5.654  19.859  0.00  0.00    +0.000 F 
ATOM     19  C   UNL     1       3.041   5.614  19.728  0.00  0.00    +0.000 C 
ATOM     20  F   UNL     1       2.790   4.678  18.770  0.00  0.00    +0.000 F 
ATOM     21  F   UNL     1       2.572   5.088  20.894  0.00  0.00    +0.000 F 
ENDBRANCH  12  19
ENDBRANCH   1  16
BRANCH   8  22
ATOM     22  C   UNL     1       2.378  14.310  19.488  0.00  0.00    +0.000 C 
ATOM     23  C   UNL     1       3.538  14.657  20.429  0.00  0.00    +0.000 C 
ATOM     24  C   UNL     1       4.800  15.025  19.669  0.00  0.00    +0.000 C 
ATOM     25  O   UNL     1       4.524  16.048  18.717  0.00  0.00    +0.000 OA
ATOM     26  C   UNL     1       3.620  15.594  17.711  0.00  0.00    +0.000 C 
ATOM     27  C   UNL     1       2.260  15.287  18.319  0.00  0.00    +0.000 C 
ENDBRANCH   8  22
TORSDOF 3
ENDMDL
