MODEL 1
REMARK VINA RESULT:      -6.1      0.000      0.000
REMARK  Name = 
REMARK  9 active torsions:
REMARK  status: ('A' for Active; 'I' for Inactive)
REMARK    1  A    between atoms: C_1  and  C_2
REMARK    2  A    between atoms: C_2  and  C_3
REMARK    3  A    between atoms: N_10  and  S_11
REMARK    4  A    between atoms: S_11  and  C_14
REMARK    5  A    between atoms: C_14  and  C_15
REMARK    6  A    between atoms: N_20  and  C_21
REMARK    7  A    between atoms: C_21  and  C_22
REMARK    8  A    between atoms: C_22  and  C_23
REMARK    9  A    between atoms: C_22  and  C_24
REMARK                            x       y       z     vdW  Elec       q    Type
REMARK                         _______ _______ _______ _____ _____    ______ ____
ROOT
ATOM      1  C   UNL     1       3.243   5.528  18.477  0.00  0.00    +0.000 C 
ATOM      2  N   UNL     1       4.351   5.646  17.817  0.00  0.00    +0.000 NA
ATOM      3  C   UNL     1       5.274   4.654  18.412  0.00  0.00    +0.000 C 
ATOM      4  C   UNL     1       6.339   5.379  19.278  0.00  0.00    +0.000 C 
ATOM      5  C   UNL     1       7.696   5.058  18.659  0.00  0.00    +0.000 C 
ATOM      6  C   UNL     1       7.388   4.643  17.241  0.00  0.00    +0.000 C 
ATOM      7  C   UNL     1       7.082   5.801  16.297  0.00  0.00    +0.000 C 
ATOM      8  N   UNL     1       6.204   5.193  15.258  0.00  0.00    +0.000 NA
ATOM      9  C   UNL     1       5.571   3.973  15.872  0.00  0.00    +0.000 C 
ATOM     10  C   UNL     1       6.058   3.896  17.327  0.00  0.00    +0.000 C 
ATOM     11  C   UNL     1       4.379   3.883  19.378  0.00  0.00    +0.000 C 
ATOM     12  O   UNL     1       4.682   2.900  20.030  0.00  0.00    +0.000 OA
ATOM     13  N   UNL     1       3.226   4.627  19.476  0.00  0.00    +0.000 N 
ENDROOT
BRANCH   8  14
ATOM     14  S   UNL     1       6.976   5.029  13.755  0.00  0.00    +0.000 S 
ATOM     15  O   UNL     1       6.496   6.095  12.903  0.00  0.00    +0.000 OA
ATOM     16  O   UNL     1       8.391   4.867  14.015  0.00  0.00    +0.000 OA
BRANCH  14  17
ATOM     17  C   UNL     1       6.319   3.486  13.130  0.00  0.00    +0.000 C 
ATOM     18  C   UNL     1       6.783   3.251  11.705  0.00  0.00    +0.000 C 
ENDBRANCH  14  17
ENDBRANCH   8  14
BRANCH   1  20
ATOM     19  C   UNL     1       2.295   7.827  18.064  0.00  0.00    +0.000 C 
ATOM     20  C   UNL     1       2.014   6.330  18.125  0.00  0.00    +0.000 C 
ENDBRANCH   1  20
BRANCH  13  21
ATOM     21  C   UNL     1       2.476   4.743  20.725  0.00  0.00    +0.000 C 
BRANCH  21  22
ATOM     22  C   UNL     1       1.316   3.760  20.922  0.00  0.00    +0.000 C 
ATOM     23  C   UNL     1       0.844   3.171  19.595  0.00  0.00    +0.000 C 
ATOM     24  C   UNL     1       1.763   2.627  21.856  0.00  0.00    +0.000 C 
ENDBRANCH  21  22
ENDBRANCH  13  21
TORSDOF 5
ENDMDL
MODEL 2
REMARK VINA RESULT:      -5.7      1.656      2.122
REMARK  Name = 
REMARK  9 active torsions:
REMARK  status: ('A' for Active; 'I' for Inactive)
REMARK    1  A    between atoms: C_1  and  C_2
REMARK    2  A    between atoms: C_2  and  C_3
REMARK    3  A    between atoms: N_10  and  S_11
REMARK    4  A    between atoms: S_11  and  C_14
REMARK    5  A    between atoms: C_14  and  C_15
REMARK    6  A    between atoms: N_20  and  C_21
REMARK    7  A    between atoms: C_21  and  C_22
REMARK    8  A    between atoms: C_22  and  C_23
REMARK    9  A    between atoms: C_22  and  C_24
REMARK                            x       y       z     vdW  Elec       q    Type
REMARK                         _______ _______ _______ _____ _____    ______ ____
ROOT
ATOM      1  C   UNL     1       3.056   4.363  18.050  0.00  0.00    +0.000 C 
ATOM      2  N   UNL     1       3.780   4.749  17.049  0.00  0.00    +0.000 NA
ATOM      3  C   UNL     1       5.130   4.992  17.606  0.00  0.00    +0.000 C 
ATOM      4  C   UNL     1       5.397   6.518  17.695  0.00  0.00    +0.000 C 
ATOM      5  C   UNL     1       6.604   6.801  16.806  0.00  0.00    +0.000 C 
ATOM      6  C   UNL     1       6.675   5.627  15.861  0.00  0.00    +0.000 C 
ATOM      7  C   UNL     1       5.660   5.671  14.723  0.00  0.00    +0.000 C 
ATOM      8  N   UNL     1       5.448   4.238  14.376  0.00  0.00    +0.000 NA
ATOM      9  C   UNL     1       5.827   3.429  15.588  0.00  0.00    +0.000 C 
ATOM     10  C   UNL     1       6.226   4.424  16.689  0.00  0.00    +0.000 C 
ATOM     11  C   UNL     1       5.008   4.487  19.041  0.00  0.00    +0.000 C 
ATOM     12  O   UNL     1       5.902   4.397  19.863  0.00  0.00    +0.000 OA
ATOM     13  N   UNL     1       3.659   4.315  19.252  0.00  0.00    +0.000 N 
ENDROOT
BRANCH   8  14
ATOM     14  S   UNL     1       6.129   3.814  12.879  0.00  0.00    +0.000 S 
ATOM     15  O   UNL     1       7.240   4.708  12.639  0.00  0.00    +0.000 OA
ATOM     16  O   UNL     1       6.318   2.378  12.887  0.00  0.00    +0.000 OA
BRANCH  14  17
ATOM     17  C   UNL     1       4.831   4.223  11.716  0.00  0.00    +0.000 C 
ATOM     18  C   UNL     1       4.138   2.963  11.231  0.00  0.00    +0.000 C 
ENDBRANCH  14  17
ENDBRANCH   8  14
BRANCH   1  20
ATOM     19  C   UNL     1       1.421   2.444  18.025  0.00  0.00    +0.000 C 
ATOM     20  C   UNL     1       1.615   3.949  17.881  0.00  0.00    +0.000 C 
ENDBRANCH   1  20
BRANCH  13  21
ATOM     21  C   UNL     1       3.029   4.591  20.541  0.00  0.00    +0.000 C 
BRANCH  21  22
ATOM     22  C   UNL     1       2.722   3.379  21.428  0.00  0.00    +0.000 C 
ATOM     23  C   UNL     1       1.238   3.025  21.405  0.00  0.00    +0.000 C 
ATOM     24  C   UNL     1       3.544   2.175  20.945  0.00  0.00    +0.000 C 
ENDBRANCH  21  22
ENDBRANCH  13  21
TORSDOF 5
ENDMDL
MODEL 3
REMARK VINA RESULT:      -5.6     12.166     14.771
REMARK  Name = 
REMARK  9 active torsions:
REMARK  status: ('A' for Active; 'I' for Inactive)
REMARK    1  A    between atoms: C_1  and  C_2
REMARK    2  A    between atoms: C_2  and  C_3
REMARK    3  A    between atoms: N_10  and  S_11
REMARK    4  A    between atoms: S_11  and  C_14
REMARK    5  A    between atoms: C_14  and  C_15
REMARK    6  A    between atoms: N_20  and  C_21
REMARK    7  A    between atoms: C_21  and  C_22
REMARK    8  A    between atoms: C_22  and  C_23
REMARK    9  A    between atoms: C_22  and  C_24
REMARK                            x       y       z     vdW  Elec       q    Type
REMARK                         _______ _______ _______ _____ _____    ______ ____
ROOT
ATOM      1  C   UNL     1      -3.363  13.464  23.210  0.00  0.00    +0.000 C 
ATOM      2  N   UNL     1      -4.330  12.882  22.577  0.00  0.00    +0.000 NA
ATOM      3  C   UNL     1      -5.553  13.629  22.948  0.00  0.00    +0.000 C 
ATOM      4  C   UNL     1      -6.408  12.785  23.932  0.00  0.00    +0.000 C 
ATOM      5  C   UNL     1      -7.748  12.541  23.246  0.00  0.00    +0.000 C 
ATOM      6  C   UNL     1      -7.478  12.756  21.777  0.00  0.00    +0.000 C 
ATOM      7  C   UNL     1      -6.765  11.594  21.091  0.00  0.00    +0.000 C 
ATOM      8  N   UNL     1      -6.040  12.238  19.959  0.00  0.00    +0.000 NA
ATOM      9  C   UNL     1      -5.855  13.688  20.320  0.00  0.00    +0.000 C 
ATOM     10  C   UNL     1      -6.449  13.884  21.724  0.00  0.00    +0.000 C 
ATOM     11  C   UNL     1      -5.009  14.810  23.746  0.00  0.00    +0.000 C 
ATOM     12  O   UNL     1      -5.644  15.753  24.182  0.00  0.00    +0.000 OA
ATOM     13  N   UNL     1      -3.694  14.497  24.006  0.00  0.00    +0.000 N 
ENDROOT
BRANCH   8  14
ATOM     14  S   UNL     1      -6.713  11.864  18.446  0.00  0.00    +0.000 S 
ATOM     15  O   UNL     1      -7.039  10.454  18.454  0.00  0.00    +0.000 OA
ATOM     16  O   UNL     1      -7.727  12.859  18.170  0.00  0.00    +0.000 OA
BRANCH  14  17
ATOM     17  C   UNL     1      -5.340  12.106  17.324  0.00  0.00    +0.000 C 
ATOM     18  C   UNL     1      -4.081  11.470  17.882  0.00  0.00    +0.000 C 
ENDBRANCH  14  17
ENDBRANCH   8  14
BRANCH   1  20
ATOM     19  C   UNL     1      -1.759  11.522  23.105  0.00  0.00    +0.000 C 
ATOM     20  C   UNL     1      -1.926  13.036  23.041  0.00  0.00    +0.000 C 
ENDBRANCH   1  20
BRANCH  13  21
ATOM     21  C   UNL     1      -3.039  14.860  25.260  0.00  0.00    +0.000 C 
BRANCH  21  22
ATOM     22  C   UNL     1      -2.041  16.024  25.200  0.00  0.00    +0.000 C 
ATOM     23  C   UNL     1      -2.738  17.373  25.353  0.00  0.00    +0.000 C 
ATOM     24  C   UNL     1      -0.997  15.855  26.313  0.00  0.00    +0.000 C 
ENDBRANCH  21  22
ENDBRANCH  13  21
TORSDOF 5
ENDMDL
MODEL 4
REMARK VINA RESULT:      -5.5      8.870     12.445
REMARK  Name = 
REMARK  9 active torsions:
REMARK  status: ('A' for Active; 'I' for Inactive)
REMARK    1  A    between atoms: C_1  and  C_2
REMARK    2  A    between atoms: C_2  and  C_3
REMARK    3  A    between atoms: N_10  and  S_11
REMARK    4  A    between atoms: S_11  and  C_14
REMARK    5  A    between atoms: C_14  and  C_15
REMARK    6  A    between atoms: N_20  and  C_21
REMARK    7  A    between atoms: C_21  and  C_22
REMARK    8  A    between atoms: C_22  and  C_23
REMARK    9  A    between atoms: C_22  and  C_24
REMARK                            x       y       z     vdW  Elec       q    Type
REMARK                         _______ _______ _______ _____ _____    ______ ____
ROOT
ATOM      1  C   UNL     1      -0.583  10.259  20.560  0.00  0.00    +0.000 C 
ATOM      2  N   UNL     1      -0.879  11.261  21.324  0.00  0.00    +0.000 NA
ATOM      3  C   UNL     1      -1.278  12.353  20.409  0.00  0.00    +0.000 C 
ATOM      4  C   UNL     1      -0.157  13.425  20.345  0.00  0.00    +0.000 C 
ATOM      5  C   UNL     1      -0.769  14.726  20.852  0.00  0.00    +0.000 C 
ATOM      6  C   UNL     1      -1.975  14.303  21.654  0.00  0.00    +0.000 C 
ATOM      7  C   UNL     1      -1.650  13.760  23.043  0.00  0.00    +0.000 C 
ATOM      8  N   UNL     1      -2.783  12.840  23.342  0.00  0.00    +0.000 NA
ATOM      9  C   UNL     1      -3.375  12.424  22.021  0.00  0.00    +0.000 C 
ATOM     10  C   UNL     1      -2.531  13.084  20.920  0.00  0.00    +0.000 C 
ATOM     11  C   UNL     1      -1.304  11.669  19.045  0.00  0.00    +0.000 C 
ATOM     12  O   UNL     1      -1.672  12.155  17.990  0.00  0.00    +0.000 OA
ATOM     13  N   UNL     1      -0.677  10.459  19.233  0.00  0.00    +0.000 N 
ENDROOT
BRANCH   8  14
ATOM     14  S   UNL     1      -3.826  13.444  24.537  0.00  0.00    +0.000 S 
ATOM     15  O   UNL     1      -4.382  12.309  25.241  0.00  0.00    +0.000 OA
ATOM     16  O   UNL     1      -3.107  14.479  25.250  0.00  0.00    +0.000 OA
BRANCH  14  17
ATOM     17  C   UNL     1      -5.138  14.200  23.584  0.00  0.00    +0.000 C 
ATOM     18  C   UNL     1      -4.937  15.701  23.502  0.00  0.00    +0.000 C 
ENDBRANCH  14  17
ENDBRANCH   8  14
BRANCH   1  20
ATOM     19  C   UNL     1       1.028   9.002  22.037  0.00  0.00    +0.000 C 
ATOM     20  C   UNL     1      -0.188   8.915  21.122  0.00  0.00    +0.000 C 
ENDBRANCH   1  20
BRANCH  13  21
ATOM     21  C   UNL     1       0.172   9.854  18.210  0.00  0.00    +0.000 C 
BRANCH  21  22
ATOM     22  C   UNL     1       1.684   9.883  18.468  0.00  0.00    +0.000 C 
ATOM     23  C   UNL     1       2.399   8.735  17.762  0.00  0.00    +0.000 C 
ATOM     24  C   UNL     1       2.256  11.222  17.982  0.00  0.00    +0.000 C 
ENDBRANCH  21  22
ENDBRANCH  13  21
TORSDOF 5
ENDMDL
MODEL 5
REMARK VINA RESULT:      -5.4      9.349     12.618
REMARK  Name = 
REMARK  9 active torsions:
REMARK  status: ('A' for Active; 'I' for Inactive)
REMARK    1  A    between atoms: C_1  and  C_2
REMARK    2  A    between atoms: C_2  and  C_3
REMARK    3  A    between atoms: N_10  and  S_11
REMARK    4  A    between atoms: S_11  and  C_14
REMARK    5  A    between atoms: C_14  and  C_15
REMARK    6  A    between atoms: N_20  and  C_21
REMARK    7  A    between atoms: C_21  and  C_22
REMARK    8  A    between atoms: C_22  and  C_23
REMARK    9  A    between atoms: C_22  and  C_24
REMARK                            x       y       z     vdW  Elec       q    Type
REMARK                         _______ _______ _______ _____ _____    ______ ____
ROOT
ATOM      1  C   UNL     1      -1.126  11.815  18.994  0.00  0.00    +0.000 C 
ATOM      2  N   UNL     1      -1.962  12.050  19.955  0.00  0.00    +0.000 NA
ATOM      3  C   UNL     1      -1.128  12.343  21.142  0.00  0.00    +0.000 C 
ATOM      4  C   UNL     1      -1.167  11.142  22.125  0.00  0.00    +0.000 C 
ATOM      5  C   UNL     1      -1.764  11.664  23.427  0.00  0.00    +0.000 C 
ATOM      6  C   UNL     1      -2.511  12.917  23.039  0.00  0.00    +0.000 C 
ATOM      7  C   UNL     1      -3.858  12.666  22.367  0.00  0.00    +0.000 C 
ATOM      8  N   UNL     1      -4.065  13.872  21.519  0.00  0.00    +0.000 NA
ATOM      9  C   UNL     1      -2.706  14.464  21.252  0.00  0.00    +0.000 C 
ATOM     10  C   UNL     1      -1.674  13.548  21.927  0.00  0.00    +0.000 C 
ATOM     11  C   UNL     1       0.286  12.391  20.569  0.00  0.00    +0.000 C 
ATOM     12  O   UNL     1       1.305  12.697  21.162  0.00  0.00    +0.000 OA
ATOM     13  N   UNL     1       0.182  11.863  19.303  0.00  0.00    +0.000 N 
ENDROOT
BRANCH   8  14
ATOM     14  S   UNL     1      -5.287  14.893  22.108  0.00  0.00    +0.000 S 
ATOM     15  O   UNL     1      -5.959  15.469  20.965  0.00  0.00    +0.000 OA
ATOM     16  O   UNL     1      -6.025  14.145  23.105  0.00  0.00    +0.000 OA
BRANCH  14  17
ATOM     17  C   UNL     1      -4.367  16.195  22.922  0.00  0.00    +0.000 C 
ATOM     18  C   UNL     1      -4.285  15.933  24.414  0.00  0.00    +0.000 C 
ENDBRANCH  14  17
ENDBRANCH   8  14
BRANCH   1  20
ATOM     19  C   UNL     1      -2.315  10.203  17.464  0.00  0.00    +0.000 C 
ATOM     20  C   UNL     1      -1.588  11.537  17.585  0.00  0.00    +0.000 C 
ENDBRANCH   1  20
BRANCH  13  21
ATOM     21  C   UNL     1       1.235  11.040  18.713  0.00  0.00    +0.000 C 
BRANCH  21  22
ATOM     22  C   UNL     1       1.012   9.523  18.733  0.00  0.00    +0.000 C 
ATOM     23  C   UNL     1       1.981   8.798  17.804  0.00  0.00    +0.000 C 
ATOM     24  C   UNL     1       1.188   9.002  20.166  0.00  0.00    +0.000 C 
ENDBRANCH  21  22
ENDBRANCH  13  21
TORSDOF 5
ENDMDL
MODEL 6
REMARK VINA RESULT:      -5.4      9.696     12.486
REMARK  Name = 
REMARK  9 active torsions:
REMARK  status: ('A' for Active; 'I' for Inactive)
REMARK    1  A    between atoms: C_1  and  C_2
REMARK    2  A    between atoms: C_2  and  C_3
REMARK    3  A    between atoms: N_10  and  S_11
REMARK    4  A    between atoms: S_11  and  C_14
REMARK    5  A    between atoms: C_14  and  C_15
REMARK    6  A    between atoms: N_20  and  C_21
REMARK    7  A    between atoms: C_21  and  C_22
REMARK    8  A    between atoms: C_22  and  C_23
REMARK    9  A    between atoms: C_22  and  C_24
REMARK                            x       y       z     vdW  Elec       q    Type
REMARK                         _______ _______ _______ _____ _____    ______ ____
ROOT
ATOM      1  C   UNL     1       9.319  12.336  20.003  0.00  0.00    +0.000 C 
ATOM      2  N   UNL     1       9.036  12.741  21.200  0.00  0.00    +0.000 NA
ATOM      3  C   UNL     1       8.413  14.073  21.031  0.00  0.00    +0.000 C 
ATOM      4  C   UNL     1       9.407  15.180  21.472  0.00  0.00    +0.000 C 
ATOM      5  C   UNL     1       8.748  15.922  22.630  0.00  0.00    +0.000 C 
ATOM      6  C   UNL     1       7.710  14.966  23.164  0.00  0.00    +0.000 C 
ATOM      7  C   UNL     1       8.272  13.841  24.028  0.00  0.00    +0.000 C 
ATOM      8  N   UNL     1       7.283  12.739  23.868  0.00  0.00    +0.000 NA
ATOM      9  C   UNL     1       6.559  12.979  22.570  0.00  0.00    +0.000 C 
ATOM     10  C   UNL     1       7.177  14.233  21.933  0.00  0.00    +0.000 C 
ATOM     11  C   UNL     1       8.266  14.197  19.517  0.00  0.00    +0.000 C 
ATOM     12  O   UNL     1       7.713  15.095  18.907  0.00  0.00    +0.000 OA
ATOM     13  N   UNL     1       9.026  13.176  18.994  0.00  0.00    +0.000 N 
ENDROOT
BRANCH   8  14
ATOM     14  S   UNL     1       6.361  12.470  25.268  0.00  0.00    +0.000 S 
ATOM     15  O   UNL     1       5.185  13.309  25.179  0.00  0.00    +0.000 OA
ATOM     16  O   UNL     1       6.240  11.037  25.432  0.00  0.00    +0.000 OA
BRANCH  14  17
ATOM     17  C   UNL     1       7.405  13.118  26.569  0.00  0.00    +0.000 C 
ATOM     18  C   UNL     1       7.076  12.453  27.893  0.00  0.00    +0.000 C 
ENDBRANCH  14  17
ENDBRANCH   8  14
BRANCH   1  20
ATOM     19  C   UNL     1       8.977  10.076  18.941  0.00  0.00    +0.000 C 
ATOM     20  C   UNL     1       9.913  10.975  19.740  0.00  0.00    +0.000 C 
ENDBRANCH   1  20
BRANCH  13  21
ATOM     21  C   UNL     1       9.781  13.324  17.752  0.00  0.00    +0.000 C 
BRANCH  21  22
ATOM     22  C   UNL     1      11.175  13.954  17.868  0.00  0.00    +0.000 C 
ATOM     23  C   UNL     1      12.182  13.266  16.952  0.00  0.00    +0.000 C 
ATOM     24  C   UNL     1      11.090  15.444  17.512  0.00  0.00    +0.000 C 
ENDBRANCH  21  22
ENDBRANCH  13  21
TORSDOF 5
ENDMDL
MODEL 7
REMARK VINA RESULT:      -5.3      7.480     10.414
REMARK  Name = 
REMARK  9 active torsions:
REMARK  status: ('A' for Active; 'I' for Inactive)
REMARK    1  A    between atoms: C_1  and  C_2
REMARK    2  A    between atoms: C_2  and  C_3
REMARK    3  A    between atoms: N_10  and  S_11
REMARK    4  A    between atoms: S_11  and  C_14
REMARK    5  A    between atoms: C_14  and  C_15
REMARK    6  A    between atoms: N_20  and  C_21
REMARK    7  A    between atoms: C_21  and  C_22
REMARK    8  A    between atoms: C_22  and  C_23
REMARK    9  A    between atoms: C_22  and  C_24
REMARK                            x       y       z     vdW  Elec       q    Type
REMARK                         _______ _______ _______ _____ _____    ______ ____
ROOT
ATOM      1  C   UNL     1       0.861   9.567  20.907  0.00  0.00    +0.000 C 
ATOM      2  N   UNL     1       0.446  10.788  20.793  0.00  0.00    +0.000 NA
ATOM      3  C   UNL     1       0.464  11.079  19.342  0.00  0.00    +0.000 C 
ATOM      4  C   UNL     1       1.652  12.021  19.007  0.00  0.00    +0.000 C 
ATOM      5  C   UNL     1       1.048  13.295  18.427  0.00  0.00    +0.000 C 
ATOM      6  C   UNL     1      -0.384  13.298  18.902  0.00  0.00    +0.000 C 
ATOM      7  C   UNL     1      -0.564  13.718  20.358  0.00  0.00    +0.000 C 
ATOM      8  N   UNL     1      -1.821  13.035  20.775  0.00  0.00    +0.000 NA
ATOM      9  C   UNL     1      -2.012  11.859  19.854  0.00  0.00    +0.000 C 
ATOM     10  C   UNL     1      -0.805  11.829  18.903  0.00  0.00    +0.000 C 
ATOM     11  C   UNL     1       0.794   9.724  18.721  0.00  0.00    +0.000 C 
ATOM     12  O   UNL     1       0.825   9.451  17.534  0.00  0.00    +0.000 OA
ATOM     13  N   UNL     1       1.206   8.935  19.771  0.00  0.00    +0.000 N 
ENDROOT
BRANCH   8  14
ATOM     14  S   UNL     1      -3.117  14.111  20.987  0.00  0.00    +0.000 S 
ATOM     15  O   UNL     1      -2.634  15.439  20.678  0.00  0.00    +0.000 OA
ATOM     16  O   UNL     1      -4.255  13.553  20.287  0.00  0.00    +0.000 OA
BRANCH  14  17
ATOM     17  C   UNL     1      -3.423  14.031  22.749  0.00  0.00    +0.000 C 
ATOM     18  C   UNL     1      -3.086  12.651  23.283  0.00  0.00    +0.000 C 
ENDBRANCH  14  17
ENDBRANCH   8  14
BRANCH   1  20
ATOM     19  C   UNL     1      -0.004   9.498  23.274  0.00  0.00    +0.000 C 
ATOM     20  C   UNL     1       0.923   8.866  22.242  0.00  0.00    +0.000 C 
ENDBRANCH   1  20
BRANCH  13  21
ATOM     21  C   UNL     1       2.266   7.939  19.629  0.00  0.00    +0.000 C 
BRANCH  21  22
ATOM     22  C   UNL     1       1.822   6.512  19.286  0.00  0.00    +0.000 C 
ATOM     23  C   UNL     1       2.652   5.921  18.149  0.00  0.00    +0.000 C 
ATOM     24  C   UNL     1       1.955   5.625  20.533  0.00  0.00    +0.000 C 
ENDBRANCH  21  22
ENDBRANCH  13  21
TORSDOF 5
ENDMDL
MODEL 8
REMARK VINA RESULT:      -5.3     10.150     13.629
REMARK  Name = 
REMARK  9 active torsions:
REMARK  status: ('A' for Active; 'I' for Inactive)
REMARK    1  A    between atoms: C_1  and  C_2
REMARK    2  A    between atoms: C_2  and  C_3
REMARK    3  A    between atoms: N_10  and  S_11
REMARK    4  A    between atoms: S_11  and  C_14
REMARK    5  A    between atoms: C_14  and  C_15
REMARK    6  A    between atoms: N_20  and  C_21
REMARK    7  A    between atoms: C_21  and  C_22
REMARK    8  A    between atoms: C_22  and  C_23
REMARK    9  A    between atoms: C_22  and  C_24
REMARK                            x       y       z     vdW  Elec       q    Type
REMARK                         _______ _______ _______ _____ _____    ______ ____
ROOT
ATOM      1  C   UNL     1      -0.736  11.804  21.065  0.00  0.00    +0.000 C 
ATOM      2  N   UNL     1      -1.798  12.051  21.763  0.00  0.00    +0.000 NA
ATOM      3  C   UNL     1      -1.743  13.498  22.070  0.00  0.00    +0.000 C 
ATOM      4  C   UNL     1      -1.368  13.707  23.562  0.00  0.00    +0.000 C 
ATOM      5  C   UNL     1      -2.536  14.446  24.206  0.00  0.00    +0.000 C 
ATOM      6  C   UNL     1      -3.710  14.189  23.293  0.00  0.00    +0.000 C 
ATOM      7  C   UNL     1      -4.332  12.803  23.439  0.00  0.00    +0.000 C 
ATOM      8  N   UNL     1      -4.934  12.539  22.102  0.00  0.00    +0.000 NA
ATOM      9  C   UNL     1      -4.207  13.407  21.109  0.00  0.00    +0.000 C 
ATOM     10  C   UNL     1      -3.117  14.164  21.884  0.00  0.00    +0.000 C 
ATOM     11  C   UNL     1      -0.551  13.981  21.249  0.00  0.00    +0.000 C 
ATOM     12  O   UNL     1      -0.176  15.132  21.111  0.00  0.00    +0.000 OA
ATOM     13  N   UNL     1       0.096  12.837  20.841  0.00  0.00    +0.000 N 
ENDROOT
BRANCH   8  14
ATOM     14  S   UNL     1      -6.631  12.586  22.122  0.00  0.00    +0.000 S 
ATOM     15  O   UNL     1      -7.036  13.858  21.565  0.00  0.00    +0.000 OA
ATOM     16  O   UNL     1      -7.101  11.342  21.549  0.00  0.00    +0.000 OA
BRANCH  14  17
ATOM     17  C   UNL     1      -7.014  12.602  23.870  0.00  0.00    +0.000 C 
ATOM     18  C   UNL     1      -7.778  13.861  24.234  0.00  0.00    +0.000 C 
ENDBRANCH  14  17
ENDBRANCH   8  14
BRANCH   1  20
ATOM     19  C   UNL     1      -0.991  10.277  19.076  0.00  0.00    +0.000 C 
ATOM     20  C   UNL     1      -0.456  10.436  20.494  0.00  0.00    +0.000 C 
ENDBRANCH   1  20
BRANCH  13  21
ATOM     21  C   UNL     1       1.551  12.761  20.732  0.00  0.00    +0.000 C 
BRANCH  21  22
ATOM     22  C   UNL     1       2.154  13.102  19.364  0.00  0.00    +0.000 C 
ATOM     23  C   UNL     1       1.076  13.263  18.296  0.00  0.00    +0.000 C 
ATOM     24  C   UNL     1       2.965  14.402  19.476  0.00  0.00    +0.000 C 
ENDBRANCH  21  22
ENDBRANCH  13  21
TORSDOF 5
ENDMDL
MODEL 9
REMARK VINA RESULT:      -5.2      9.421     12.640
REMARK  Name = 
REMARK  9 active torsions:
REMARK  status: ('A' for Active; 'I' for Inactive)
REMARK    1  A    between atoms: C_1  and  C_2
REMARK    2  A    between atoms: C_2  and  C_3
REMARK    3  A    between atoms: N_10  and  S_11
REMARK    4  A    between atoms: S_11  and  C_14
REMARK    5  A    between atoms: C_14  and  C_15
REMARK    6  A    between atoms: N_20  and  C_21
REMARK    7  A    between atoms: C_21  and  C_22
REMARK    8  A    between atoms: C_22  and  C_23
REMARK    9  A    between atoms: C_22  and  C_24
REMARK                            x       y       z     vdW  Elec       q    Type
REMARK                         _______ _______ _______ _____ _____    ______ ____
ROOT
ATOM      1  C   UNL     1      -1.216  11.847  19.004  0.00  0.00    +0.000 C 
ATOM      2  N   UNL     1      -2.068  12.080  19.950  0.00  0.00    +0.000 NA
ATOM      3  C   UNL     1      -1.256  12.404  21.144  0.00  0.00    +0.000 C 
ATOM      4  C   UNL     1      -1.288  11.216  22.142  0.00  0.00    +0.000 C 
ATOM      5  C   UNL     1      -1.911  11.744  23.430  0.00  0.00    +0.000 C 
ATOM      6  C   UNL     1      -2.674  12.978  23.015  0.00  0.00    +0.000 C 
ATOM      7  C   UNL     1      -4.007  12.695  22.329  0.00  0.00    +0.000 C 
ATOM      8  N   UNL     1      -4.224  13.886  21.461  0.00  0.00    +0.000 NA
ATOM      9  C   UNL     1      -2.872  14.498  21.205  0.00  0.00    +0.000 C 
ATOM     10  C   UNL     1      -1.834  13.610  21.906  0.00  0.00    +0.000 C 
ATOM     11  C   UNL     1       0.164  12.470  20.590  0.00  0.00    +0.000 C 
ATOM     12  O   UNL     1       1.170  12.801  21.192  0.00  0.00    +0.000 OA
ATOM     13  N   UNL     1       0.087  11.922  19.330  0.00  0.00    +0.000 N 
ENDROOT
BRANCH   8  14
ATOM     14  S   UNL     1      -5.472  14.892  22.020  0.00  0.00    +0.000 S 
ATOM     15  O   UNL     1      -5.776  14.492  23.377  0.00  0.00    +0.000 OA
ATOM     16  O   UNL     1      -5.091  16.256  21.716  0.00  0.00    +0.000 OA
BRANCH  14  17
ATOM     17  C   UNL     1      -6.857  14.430  20.985  0.00  0.00    +0.000 C 
ATOM     18  C   UNL     1      -7.739  13.423  21.699  0.00  0.00    +0.000 C 
ENDBRANCH  14  17
ENDBRANCH   8  14
BRANCH   1  20
ATOM     19  C   UNL     1      -2.433  10.237  17.495  0.00  0.00    +0.000 C 
ATOM     20  C   UNL     1      -1.653  11.542  17.592  0.00  0.00    +0.000 C 
ENDBRANCH   1  20
BRANCH  13  21
ATOM     21  C   UNL     1       1.162  11.110  18.765  0.00  0.00    +0.000 C 
BRANCH  21  22
ATOM     22  C   UNL     1       0.949   9.592  18.769  0.00  0.00    +0.000 C 
ATOM     23  C   UNL     1       1.917   8.884  17.826  0.00  0.00    +0.000 C 
ATOM     24  C   UNL     1       1.138   9.056  20.196  0.00  0.00    +0.000 C 
ENDBRANCH  21  22
ENDBRANCH  13  21
TORSDOF 5
ENDMDL
