MODEL 1
REMARK VINA RESULT:      -6.9      0.000      0.000
REMARK  Name = 
REMARK  10 active torsions:
REMARK  status: ('A' for Active; 'I' for Inactive)
REMARK    1  A    between atoms: C_1  and  O_2
REMARK    2  A    between atoms: O_2  and  C_3
REMARK    3  A    between atoms: C_5  and  N_6
REMARK    4  A    between atoms: C_14  and  C_15
REMARK    5  A    between atoms: C_19  and  N_20
REMARK    6  A    between atoms: C_21  and  C_23
REMARK    7  A    between atoms: C_30  and  O_31
REMARK    8  A    between atoms: O_31  and  C_32
REMARK    9  A    between atoms: C_33  and  O_34
REMARK   10  A    between atoms: O_34  and  C_35
REMARK                            x       y       z     vdW  Elec       q    Type
REMARK                         _______ _______ _______ _____ _____    ______ ____
ROOT
ATOM      1  N   UNL     1      -1.701  11.693  23.224  0.00  0.00    +0.000 N 
ATOM      2  C   UNL     1      -0.954  10.956  22.298  0.00  0.00    +0.000 A 
ATOM      3  N   UNL     1       0.152  10.360  22.769  0.00  0.00    +0.000 NA
ATOM      4  C   UNL     1       0.986   9.732  21.917  0.00  0.00    +0.000 A 
ATOM      5  N   UNL     1       2.126   9.144  22.442  0.00  0.00    +0.000 N 
ATOM      6  C   UNL     1       0.673   9.727  20.559  0.00  0.00    +0.000 A 
ATOM      7  S   UNL     1       1.557   9.117  19.222  0.00  0.00    +0.000 S 
ATOM      8  C   UNL     1       0.327   9.558  18.121  0.00  0.00    +0.000 A 
ATOM      9  C   UNL     1      -0.767  10.142  18.734  0.00  0.00    +0.000 A 
ATOM     10  C   UNL     1      -0.530  10.286  20.151  0.00  0.00    +0.000 A 
ATOM     11  N   UNL     1      -1.358  10.893  21.029  0.00  0.00    +0.000 NA
ATOM     12  H   UNL     1      -1.311  11.583  24.150  0.00  0.00    +0.000 HD
ATOM     13  H   UNL     1       2.350   9.486  23.367  0.00  0.00    +0.000 HD
ATOM     14  H   UNL     1       2.895   9.017  21.795  0.00  0.00    +0.000 HD
ENDROOT
BRANCH   1  17
ATOM     15  C   UNL     1      -4.845  13.727  23.009  0.00  0.00    +0.000 A 
ATOM     16  C   UNL     1      -3.968  12.628  23.039  0.00  0.00    +0.000 A 
ATOM     17  C   UNL     1      -2.582  12.770  23.033  0.00  0.00    +0.000 A 
ATOM     18  C   UNL     1      -2.088  14.071  22.924  0.00  0.00    +0.000 A 
ATOM     19  C   UNL     1      -2.943  15.192  22.816  0.00  0.00    +0.000 A 
ATOM     20  C   UNL     1      -4.344  15.031  22.876  0.00  0.00    +0.000 A 
BRANCH  15  22
ATOM     21  C   UNL     1      -6.595  12.561  24.054  0.00  0.00    +0.000 C 
ATOM     22  O   UNL     1      -6.202  13.516  23.072  0.00  0.00    +0.000 OA
ENDBRANCH  15  22
BRANCH  19  23
ATOM     23  O   UNL     1      -2.225  16.358  22.680  0.00  0.00    +0.000 OA
ATOM     24  C   UNL     1      -0.808  16.293  22.623  0.00  0.00    +0.000 C 
ENDBRANCH  19  23
BRANCH  20  25
ATOM     25  O   UNL     1      -5.101  16.167  22.791  0.00  0.00    +0.000 OA
ATOM     26  C   UNL     1      -5.540  16.843  23.959  0.00  0.00    +0.000 C 
ENDBRANCH  20  25
ENDBRANCH   1  17
BRANCH   9  27
ATOM     27  C   UNL     1      -1.967  10.528  17.971  0.00  0.00    +0.000 A 
ATOM     28  C   UNL     1      -2.191  10.030  16.680  0.00  0.00    +0.000 A 
ATOM     29  C   UNL     1      -3.336  10.391  15.971  0.00  0.00    +0.000 A 
ATOM     30  C   UNL     1      -4.264  11.271  16.530  0.00  0.00    +0.000 A 
ATOM     31  C   UNL     1      -4.067  11.802  17.804  0.00  0.00    +0.000 A 
ATOM     32  C   UNL     1      -2.923  11.405  18.523  0.00  0.00    +0.000 A 
BRANCH  31  33
ATOM     33  N   UNL     1      -4.917  12.784  18.383  0.00  0.00    +0.000 N 
ATOM     34  C   UNL     1      -5.823  12.585  19.407  0.00  0.00    +0.000 C 
ATOM     35  O   UNL     1      -5.985  11.553  20.044  0.00  0.00    +0.000 OA
ATOM     36  H   UNL     1      -4.934  13.685  17.922  0.00  0.00    +0.000 HD
BRANCH  34  37
ATOM     37  C   UNL     1      -6.735  13.724  19.748  0.00  0.00    +0.000 C 
ATOM     38  C   UNL     1      -6.845  15.057  19.067  0.00  0.00    +0.000 C 
ATOM     39  C   UNL     1      -7.913  14.022  18.843  0.00  0.00    +0.000 C 
ENDBRANCH  34  37
ENDBRANCH  31  33
ENDBRANCH   9  27
TORSDOF 7
ENDMDL
MODEL 2
REMARK VINA RESULT:      -6.8      0.602      2.212
REMARK  Name = 
REMARK  10 active torsions:
REMARK  status: ('A' for Active; 'I' for Inactive)
REMARK    1  A    between atoms: C_1  and  O_2
REMARK    2  A    between atoms: O_2  and  C_3
REMARK    3  A    between atoms: C_5  and  N_6
REMARK    4  A    between atoms: C_14  and  C_15
REMARK    5  A    between atoms: C_19  and  N_20
REMARK    6  A    between atoms: C_21  and  C_23
REMARK    7  A    between atoms: C_30  and  O_31
REMARK    8  A    between atoms: O_31  and  C_32
REMARK    9  A    between atoms: C_33  and  O_34
REMARK   10  A    between atoms: O_34  and  C_35
REMARK                            x       y       z     vdW  Elec       q    Type
REMARK                         _______ _______ _______ _____ _____    ______ ____
ROOT
ATOM      1  N   UNL     1      -1.670  11.487  23.333  0.00  0.00    +0.000 N 
ATOM      2  C   UNL     1      -0.921  10.807  22.366  0.00  0.00    +0.000 A 
ATOM      3  N   UNL     1       0.198  10.207  22.799  0.00  0.00    +0.000 NA
ATOM      4  C   UNL     1       1.034   9.633  21.911  0.00  0.00    +0.000 A 
ATOM      5  N   UNL     1       2.189   9.039  22.396  0.00  0.00    +0.000 N 
ATOM      6  C   UNL     1       0.708   9.686  20.557  0.00  0.00    +0.000 A 
ATOM      7  S   UNL     1       1.588   9.155  19.184  0.00  0.00    +0.000 S 
ATOM      8  C   UNL     1       0.340   9.627  18.116  0.00  0.00    +0.000 A 
ATOM      9  C   UNL     1      -0.757  10.163  18.767  0.00  0.00    +0.000 A 
ATOM     10  C   UNL     1      -0.508  10.245  20.187  0.00  0.00    +0.000 A 
ATOM     11  N   UNL     1      -1.337  10.796  21.100  0.00  0.00    +0.000 NA
ATOM     12  H   UNL     1      -1.269  11.339  24.250  0.00  0.00    +0.000 HD
ATOM     13  H   UNL     1       2.416   9.341  23.335  0.00  0.00    +0.000 HD
ATOM     14  H   UNL     1       2.952   8.956  21.737  0.00  0.00    +0.000 HD
ENDROOT
BRANCH   1  17
ATOM     15  C   UNL     1      -3.212  14.732  22.254  0.00  0.00    +0.000 A 
ATOM     16  C   UNL     1      -2.258  13.733  22.521  0.00  0.00    +0.000 A 
ATOM     17  C   UNL     1      -2.570  12.557  23.202  0.00  0.00    +0.000 A 
ATOM     18  C   UNL     1      -3.877  12.439  23.678  0.00  0.00    +0.000 A 
ATOM     19  C   UNL     1      -4.838  13.458  23.492  0.00  0.00    +0.000 A 
ATOM     20  C   UNL     1      -4.517  14.618  22.754  0.00  0.00    +0.000 A 
BRANCH  15  22
ATOM     21  C   UNL     1      -1.661  16.477  22.000  0.00  0.00    +0.000 C 
ATOM     22  O   UNL     1      -2.847  15.842  21.530  0.00  0.00    +0.000 OA
ENDBRANCH  15  22
BRANCH  19  23
ATOM     23  O   UNL     1      -6.037  13.130  24.082  0.00  0.00    +0.000 OA
ATOM     24  C   UNL     1      -7.078  12.595  23.278  0.00  0.00    +0.000 C 
ENDBRANCH  19  23
BRANCH  20  25
ATOM     25  O   UNL     1      -5.511  15.546  22.596  0.00  0.00    +0.000 OA
ATOM     26  C   UNL     1      -5.768  16.520  23.595  0.00  0.00    +0.000 C 
ENDBRANCH  20  25
ENDBRANCH   1  17
BRANCH   9  27
ATOM     27  C   UNL     1      -1.971  10.565  18.034  0.00  0.00    +0.000 A 
ATOM     28  C   UNL     1      -2.175  10.167  16.706  0.00  0.00    +0.000 A 
ATOM     29  C   UNL     1      -3.333  10.542  16.025  0.00  0.00    +0.000 A 
ATOM     30  C   UNL     1      -4.294  11.337  16.650  0.00  0.00    +0.000 A 
ATOM     31  C   UNL     1      -4.117  11.768  17.965  0.00  0.00    +0.000 A 
ATOM     32  C   UNL     1      -2.960  11.358  18.653  0.00  0.00    +0.000 A 
BRANCH  31  33
ATOM     33  N   UNL     1      -5.004  12.667  18.619  0.00  0.00    +0.000 N 
ATOM     34  C   UNL     1      -6.349  12.463  18.860  0.00  0.00    +0.000 C 
ATOM     35  O   UNL     1      -6.983  11.442  18.628  0.00  0.00    +0.000 OA
ATOM     36  H   UNL     1      -4.634  13.586  18.826  0.00  0.00    +0.000 HD
BRANCH  34  37
ATOM     37  C   UNL     1      -7.130  13.614  19.417  0.00  0.00    +0.000 C 
ATOM     38  C   UNL     1      -6.816  15.079  19.316  0.00  0.00    +0.000 C 
ATOM     39  C   UNL     1      -7.916  14.498  18.470  0.00  0.00    +0.000 C 
ENDBRANCH  34  37
ENDBRANCH  31  33
ENDBRANCH   9  27
TORSDOF 7
ENDMDL
MODEL 3
REMARK VINA RESULT:      -6.5      8.996     11.826
REMARK  Name = 
REMARK  10 active torsions:
REMARK  status: ('A' for Active; 'I' for Inactive)
REMARK    1  A    between atoms: C_1  and  O_2
REMARK    2  A    between atoms: O_2  and  C_3
REMARK    3  A    between atoms: C_5  and  N_6
REMARK    4  A    between atoms: C_14  and  C_15
REMARK    5  A    between atoms: C_19  and  N_20
REMARK    6  A    between atoms: C_21  and  C_23
REMARK    7  A    between atoms: C_30  and  O_31
REMARK    8  A    between atoms: O_31  and  C_32
REMARK    9  A    between atoms: C_33  and  O_34
REMARK   10  A    between atoms: O_34  and  C_35
REMARK                            x       y       z     vdW  Elec       q    Type
REMARK                         _______ _______ _______ _____ _____    ______ ____
ROOT
ATOM      1  N   UNL     1       7.072  16.852  19.933  0.00  0.00    +0.000 N 
ATOM      2  C   UNL     1       8.238  16.553  19.219  0.00  0.00    +0.000 A 
ATOM      3  N   UNL     1       8.875  17.595  18.662  0.00  0.00    +0.000 NA
ATOM      4  C   UNL     1       9.936  17.378  17.862  0.00  0.00    +0.000 A 
ATOM      5  N   UNL     1      10.555  18.480  17.291  0.00  0.00    +0.000 N 
ATOM      6  C   UNL     1      10.341  16.065  17.631  0.00  0.00    +0.000 A 
ATOM      7  S   UNL     1      11.567  15.448  16.602  0.00  0.00    +0.000 S 
ATOM      8  C   UNL     1      11.262  13.839  17.090  0.00  0.00    +0.000 A 
ATOM      9  C   UNL     1      10.262  13.740  18.041  0.00  0.00    +0.000 A 
ATOM     10  C   UNL     1       9.693  15.040  18.308  0.00  0.00    +0.000 A 
ATOM     11  N   UNL     1       8.643  15.287  19.120  0.00  0.00    +0.000 NA
ATOM     12  H   UNL     1       6.941  17.853  19.980  0.00  0.00    +0.000 HD
ATOM     13  H   UNL     1       9.975  19.308  17.316  0.00  0.00    +0.000 HD
ATOM     14  H   UNL     1      11.075  18.303  16.441  0.00  0.00    +0.000 HD
ENDROOT
BRANCH   1  17
ATOM     15  C   UNL     1       4.060  14.652  19.527  0.00  0.00    +0.000 A 
ATOM     16  C   UNL     1       5.081  15.580  19.249  0.00  0.00    +0.000 A 
ATOM     17  C   UNL     1       5.955  16.053  20.227  0.00  0.00    +0.000 A 
ATOM     18  C   UNL     1       5.728  15.615  21.532  0.00  0.00    +0.000 A 
ATOM     19  C   UNL     1       4.665  14.743  21.857  0.00  0.00    +0.000 A 
ATOM     20  C   UNL     1       3.823  14.233  20.845  0.00  0.00    +0.000 A 
BRANCH  15  22
ATOM     21  C   UNL     1       2.564  15.209  17.805  0.00  0.00    +0.000 C 
ATOM     22  O   UNL     1       3.269  14.186  18.505  0.00  0.00    +0.000 OA
ENDBRANCH  15  22
BRANCH  19  23
ATOM     23  O   UNL     1       4.622  14.486  23.208  0.00  0.00    +0.000 OA
ATOM     24  C   UNL     1       5.458  15.234  24.079  0.00  0.00    +0.000 C 
ENDBRANCH  19  23
BRANCH  20  25
ATOM     25  O   UNL     1       2.834  13.373  21.238  0.00  0.00    +0.000 OA
ATOM     26  C   UNL     1       1.492  13.813  21.371  0.00  0.00    +0.000 C 
ENDBRANCH  20  25
ENDBRANCH   1  17
BRANCH   9  27
ATOM     27  C   UNL     1       9.897  12.448  18.648  0.00  0.00    +0.000 A 
ATOM     28  C   UNL     1      10.376  12.085  19.913  0.00  0.00    +0.000 A 
ATOM     29  C   UNL     1      10.014  10.866  20.484  0.00  0.00    +0.000 A 
ATOM     30  C   UNL     1       9.185   9.980  19.793  0.00  0.00    +0.000 A 
ATOM     31  C   UNL     1       8.703  10.298  18.523  0.00  0.00    +0.000 A 
ATOM     32  C   UNL     1       9.050  11.546  17.970  0.00  0.00    +0.000 A 
BRANCH  31  33
ATOM     33  N   UNL     1       7.948   9.396  17.724  0.00  0.00    +0.000 N 
ATOM     34  C   UNL     1       7.882   8.024  17.876  0.00  0.00    +0.000 C 
ATOM     35  O   UNL     1       8.392   7.366  18.772  0.00  0.00    +0.000 OA
ATOM     36  H   UNL     1       7.509   9.790  16.903  0.00  0.00    +0.000 HD
BRANCH  34  37
ATOM     37  C   UNL     1       7.155   7.251  16.817  0.00  0.00    +0.000 C 
ATOM     38  C   UNL     1       6.823   5.787  16.806  0.00  0.00    +0.000 C 
ATOM     39  C   UNL     1       5.737   6.790  17.084  0.00  0.00    +0.000 C 
ENDBRANCH  34  37
ENDBRANCH  31  33
ENDBRANCH   9  27
TORSDOF 7
ENDMDL
MODEL 4
REMARK VINA RESULT:      -6.4      3.235      6.845
REMARK  Name = 
REMARK  10 active torsions:
REMARK  status: ('A' for Active; 'I' for Inactive)
REMARK    1  A    between atoms: C_1  and  O_2
REMARK    2  A    between atoms: O_2  and  C_3
REMARK    3  A    between atoms: C_5  and  N_6
REMARK    4  A    between atoms: C_14  and  C_15
REMARK    5  A    between atoms: C_19  and  N_20
REMARK    6  A    between atoms: C_21  and  C_23
REMARK    7  A    between atoms: C_30  and  O_31
REMARK    8  A    between atoms: O_31  and  C_32
REMARK    9  A    between atoms: C_33  and  O_34
REMARK   10  A    between atoms: O_34  and  C_35
REMARK                            x       y       z     vdW  Elec       q    Type
REMARK                         _______ _______ _______ _____ _____    ______ ____
ROOT
ATOM      1  N   UNL     1      -3.702  14.847  20.750  0.00  0.00    +0.000 N 
ATOM      2  C   UNL     1      -2.304  14.875  20.698  0.00  0.00    +0.000 A 
ATOM      3  N   UNL     1      -1.748  16.044  20.344  0.00  0.00    +0.000 NA
ATOM      4  C   UNL     1      -0.416  16.119  20.156  0.00  0.00    +0.000 A 
ATOM      5  N   UNL     1       0.118  17.340  19.774  0.00  0.00    +0.000 N 
ATOM      6  C   UNL     1       0.350  14.968  20.333  0.00  0.00    +0.000 A 
ATOM      7  S   UNL     1       2.025  14.701  20.078  0.00  0.00    +0.000 S 
ATOM      8  C   UNL     1       1.917  13.080  20.606  0.00  0.00    +0.000 A 
ATOM      9  C   UNL     1       0.640  12.721  21.002  0.00  0.00    +0.000 A 
ATOM     10  C   UNL     1      -0.278  13.815  20.784  0.00  0.00    +0.000 A 
ATOM     11  N   UNL     1      -1.613  13.771  20.983  0.00  0.00    +0.000 NA
ATOM     12  H   UNL     1      -4.074  15.772  20.584  0.00  0.00    +0.000 HD
ATOM     13  H   UNL     1      -0.582  17.973  19.409  0.00  0.00    +0.000 HD
ATOM     14  H   UNL     1       1.006  17.302  19.290  0.00  0.00    +0.000 HD
ENDROOT
BRANCH   1  17
ATOM     15  C   UNL     1      -6.663  12.597  21.243  0.00  0.00    +0.000 A 
ATOM     16  C   UNL     1      -5.680  13.577  21.474  0.00  0.00    +0.000 A 
ATOM     17  C   UNL     1      -4.597  13.773  20.618  0.00  0.00    +0.000 A 
ATOM     18  C   UNL     1      -4.487  12.895  19.539  0.00  0.00    +0.000 A 
ATOM     19  C   UNL     1      -5.416  11.852  19.322  0.00  0.00    +0.000 A 
ATOM     20  C   UNL     1      -6.534  11.703  20.170  0.00  0.00    +0.000 A 
BRANCH  15  22
ATOM     21  C   UNL     1      -7.380  12.553  23.479  0.00  0.00    +0.000 C 
ATOM     22  O   UNL     1      -7.733  12.494  22.100  0.00  0.00    +0.000 OA
ENDBRANCH  15  22
BRANCH  19  23
ATOM     23  O   UNL     1      -5.076  11.099  18.222  0.00  0.00    +0.000 OA
ATOM     24  C   UNL     1      -4.928  11.742  16.964  0.00  0.00    +0.000 C 
ENDBRANCH  19  23
BRANCH  20  25
ATOM     25  O   UNL     1      -7.402  10.685  19.877  0.00  0.00    +0.000 OA
ATOM     26  C   UNL     1      -7.591   9.604  20.776  0.00  0.00    +0.000 C 
ENDBRANCH  20  25
ENDBRANCH   1  17
BRANCH   9  27
ATOM     27  C   UNL     1       0.349  11.389  21.559  0.00  0.00    +0.000 A 
ATOM     28  C   UNL     1      -0.599  11.226  22.579  0.00  0.00    +0.000 A 
ATOM     29  C   UNL     1      -0.877   9.960  23.091  0.00  0.00    +0.000 A 
ATOM     30  C   UNL     1      -0.200   8.838  22.609  0.00  0.00    +0.000 A 
ATOM     31  C   UNL     1       0.764   8.963  21.608  0.00  0.00    +0.000 A 
ATOM     32  C   UNL     1       1.014  10.242  21.077  0.00  0.00    +0.000 A 
BRANCH  31  33
ATOM     33  N   UNL     1       1.564   7.879  21.153  0.00  0.00    +0.000 N 
ATOM     34  C   UNL     1       1.988   7.660  19.856  0.00  0.00    +0.000 C 
ATOM     35  O   UNL     1       1.820   8.404  18.900  0.00  0.00    +0.000 OA
ATOM     36  H   UNL     1       1.742   7.145  21.826  0.00  0.00    +0.000 HD
BRANCH  34  37
ATOM     37  C   UNL     1       2.684   6.364  19.571  0.00  0.00    +0.000 C 
ATOM     38  C   UNL     1       2.554   5.063  20.309  0.00  0.00    +0.000 C 
ATOM     39  C   UNL     1       1.895   5.220  18.966  0.00  0.00    +0.000 C 
ENDBRANCH  34  37
ENDBRANCH  31  33
ENDBRANCH   9  27
TORSDOF 7
ENDMDL
MODEL 5
REMARK VINA RESULT:      -6.3      3.610      6.807
REMARK  Name = 
REMARK  10 active torsions:
REMARK  status: ('A' for Active; 'I' for Inactive)
REMARK    1  A    between atoms: C_1  and  O_2
REMARK    2  A    between atoms: O_2  and  C_3
REMARK    3  A    between atoms: C_5  and  N_6
REMARK    4  A    between atoms: C_14  and  C_15
REMARK    5  A    between atoms: C_19  and  N_20
REMARK    6  A    between atoms: C_21  and  C_23
REMARK    7  A    between atoms: C_30  and  O_31
REMARK    8  A    between atoms: O_31  and  C_32
REMARK    9  A    between atoms: C_33  and  O_34
REMARK   10  A    between atoms: O_34  and  C_35
REMARK                            x       y       z     vdW  Elec       q    Type
REMARK                         _______ _______ _______ _____ _____    ______ ____
ROOT
ATOM      1  N   UNL     1      -1.222  14.126  21.163  0.00  0.00    +0.000 N 
ATOM      2  C   UNL     1      -2.506  14.492  21.584  0.00  0.00    +0.000 A 
ATOM      3  N   UNL     1      -2.587  15.588  22.355  0.00  0.00    +0.000 NA
ATOM      4  C   UNL     1      -3.770  15.937  22.896  0.00  0.00    +0.000 A 
ATOM      5  N   UNL     1      -3.807  17.065  23.701  0.00  0.00    +0.000 N 
ATOM      6  C   UNL     1      -4.883  15.138  22.641  0.00  0.00    +0.000 A 
ATOM      7  S   UNL     1      -6.484  15.242  23.248  0.00  0.00    +0.000 S 
ATOM      8  C   UNL     1      -6.996  13.903  22.318  0.00  0.00    +0.000 A 
ATOM      9  C   UNL     1      -5.992  13.376  21.526  0.00  0.00    +0.000 A 
ATOM     10  C   UNL     1      -4.748  14.070  21.765  0.00  0.00    +0.000 A 
ATOM     11  N   UNL     1      -3.553  13.752  21.220  0.00  0.00    +0.000 NA
ATOM     12  H   UNL     1      -0.550  14.822  21.455  0.00  0.00    +0.000 HD
ATOM     13  H   UNL     1      -2.889  17.348  24.018  0.00  0.00    +0.000 HD
ATOM     14  H   UNL     1      -4.562  17.103  24.374  0.00  0.00    +0.000 HD
ENDROOT
BRANCH   1  17
ATOM     15  C   UNL     1       0.730  11.474  19.367  0.00  0.00    +0.000 A 
ATOM     16  C   UNL     1       0.091  12.694  19.656  0.00  0.00    +0.000 A 
ATOM     17  C   UNL     1      -0.712  12.875  20.781  0.00  0.00    +0.000 A 
ATOM     18  C   UNL     1      -0.916  11.755  21.589  0.00  0.00    +0.000 A 
ATOM     19  C   UNL     1      -0.349  10.497  21.285  0.00  0.00    +0.000 A 
ATOM     20  C   UNL     1       0.503  10.347  20.170  0.00  0.00    +0.000 A 
BRANCH  15  22
ATOM     21  C   UNL     1       2.512  12.430  18.172  0.00  0.00    +0.000 C 
ATOM     22  O   UNL     1       1.552  11.382  18.269  0.00  0.00    +0.000 OA
ENDBRANCH  15  22
BRANCH  19  23
ATOM     23  O   UNL     1      -0.724   9.544  22.204  0.00  0.00    +0.000 OA
ATOM     24  C   UNL     1      -0.143   9.568  23.499  0.00  0.00    +0.000 C 
ENDBRANCH  19  23
BRANCH  20  25
ATOM     25  O   UNL     1       1.033   9.103  19.959  0.00  0.00    +0.000 OA
ATOM     26  C   UNL     1       1.621   8.759  18.715  0.00  0.00    +0.000 C 
ENDBRANCH  20  25
ENDBRANCH   1  17
BRANCH   9  27
ATOM     27  C   UNL     1      -6.246  12.263  20.593  0.00  0.00    +0.000 A 
ATOM     28  C   UNL     1      -7.041  11.173  20.972  0.00  0.00    +0.000 A 
ATOM     29  C   UNL     1      -7.286  10.132  20.079  0.00  0.00    +0.000 A 
ATOM     30  C   UNL     1      -6.725  10.151  18.801  0.00  0.00    +0.000 A 
ATOM     31  C   UNL     1      -5.913  11.209  18.394  0.00  0.00    +0.000 A 
ATOM     32  C   UNL     1      -5.698  12.271  19.294  0.00  0.00    +0.000 A 
BRANCH  31  33
ATOM     33  N   UNL     1      -5.225  11.235  17.149  0.00  0.00    +0.000 N 
ATOM     34  C   UNL     1      -4.052  10.570  16.847  0.00  0.00    +0.000 C 
ATOM     35  O   UNL     1      -3.455   9.783  17.568  0.00  0.00    +0.000 OA
ATOM     36  H   UNL     1      -5.573  11.890  16.462  0.00  0.00    +0.000 HD
BRANCH  34  37
ATOM     37  C   UNL     1      -3.414  10.872  15.525  0.00  0.00    +0.000 C 
ATOM     38  C   UNL     1      -2.534   9.980  14.698  0.00  0.00    +0.000 C 
ATOM     39  C   UNL     1      -3.959  10.212  14.275  0.00  0.00    +0.000 C 
ENDBRANCH  34  37
ENDBRANCH  31  33
ENDBRANCH   9  27
TORSDOF 7
ENDMDL
MODEL 6
REMARK VINA RESULT:      -6.3      3.447      7.078
REMARK  Name = 
REMARK  10 active torsions:
REMARK  status: ('A' for Active; 'I' for Inactive)
REMARK    1  A    between atoms: C_1  and  O_2
REMARK    2  A    between atoms: O_2  and  C_3
REMARK    3  A    between atoms: C_5  and  N_6
REMARK    4  A    between atoms: C_14  and  C_15
REMARK    5  A    between atoms: C_19  and  N_20
REMARK    6  A    between atoms: C_21  and  C_23
REMARK    7  A    between atoms: C_30  and  O_31
REMARK    8  A    between atoms: O_31  and  C_32
REMARK    9  A    between atoms: C_33  and  O_34
REMARK   10  A    between atoms: O_34  and  C_35
REMARK                            x       y       z     vdW  Elec       q    Type
REMARK                         _______ _______ _______ _____ _____    ______ ____
ROOT
ATOM      1  N   UNL     1      -3.853  14.205  20.748  0.00  0.00    +0.000 N 
ATOM      2  C   UNL     1      -2.466  14.385  20.701  0.00  0.00    +0.000 A 
ATOM      3  N   UNL     1      -2.037  15.650  20.569  0.00  0.00    +0.000 NA
ATOM      4  C   UNL     1      -0.723  15.895  20.398  0.00  0.00    +0.000 A 
ATOM      5  N   UNL     1      -0.323  17.214  20.248  0.00  0.00    +0.000 N 
ATOM      6  C   UNL     1       0.157  14.815  20.357  0.00  0.00    +0.000 A 
ATOM      7  S   UNL     1       1.845  14.773  20.056  0.00  0.00    +0.000 S 
ATOM      8  C   UNL     1       1.911  13.080  20.275  0.00  0.00    +0.000 A 
ATOM      9  C   UNL     1       0.685  12.526  20.598  0.00  0.00    +0.000 A 
ATOM     10  C   UNL     1      -0.342  13.541  20.587  0.00  0.00    +0.000 A 
ATOM     11  N   UNL     1      -1.662  13.325  20.776  0.00  0.00    +0.000 NA
ATOM     12  H   UNL     1      -4.319  15.102  20.757  0.00  0.00    +0.000 HD
ATOM     13  H   UNL     1      -1.091  17.828  20.007  0.00  0.00    +0.000 HD
ATOM     14  H   UNL     1       0.554  17.356  19.764  0.00  0.00    +0.000 HD
ENDROOT
BRANCH   1  17
ATOM     15  C   UNL     1      -6.596  11.647  20.780  0.00  0.00    +0.000 A 
ATOM     16  C   UNL     1      -5.717  12.664  21.194  0.00  0.00    +0.000 A 
ATOM     17  C   UNL     1      -4.638  13.088  20.421  0.00  0.00    +0.000 A 
ATOM     18  C   UNL     1      -4.418  12.401  19.226  0.00  0.00    +0.000 A 
ATOM     19  C   UNL     1      -5.238  11.324  18.817  0.00  0.00    +0.000 A 
ATOM     20  C   UNL     1      -6.357  10.945  19.589  0.00  0.00    +0.000 A 
BRANCH  15  22
ATOM     21  C   UNL     1      -7.639  11.899  22.869  0.00  0.00    +0.000 C 
ATOM     22  O   UNL     1      -7.673  11.316  21.568  0.00  0.00    +0.000 OA
ENDBRANCH  15  22
BRANCH  19  23
ATOM     23  O   UNL     1      -4.801  10.784  17.630  0.00  0.00    +0.000 OA
ATOM     24  C   UNL     1      -3.490  11.089  17.174  0.00  0.00    +0.000 C 
ENDBRANCH  19  23
BRANCH  20  25
ATOM     25  O   UNL     1      -7.116   9.911  19.112  0.00  0.00    +0.000 OA
ATOM     26  C   UNL     1      -7.052   8.623  19.704  0.00  0.00    +0.000 C 
ENDBRANCH  20  25
ENDBRANCH   1  17
BRANCH   9  27
ATOM     27  C   UNL     1       0.541  11.091  20.899  0.00  0.00    +0.000 A 
ATOM     28  C   UNL     1      -0.186  10.659  22.017  0.00  0.00    +0.000 A 
ATOM     29  C   UNL     1      -0.329   9.299  22.286  0.00  0.00    +0.000 A 
ATOM     30  C   UNL     1       0.269   8.348  21.457  0.00  0.00    +0.000 A 
ATOM     31  C   UNL     1       1.016   8.740  20.346  0.00  0.00    +0.000 A 
ATOM     32  C   UNL     1       1.126  10.115  20.066  0.00  0.00    +0.000 A 
BRANCH  31  33
ATOM     33  N   UNL     1       1.738   7.828  19.528  0.00  0.00    +0.000 N 
ATOM     34  C   UNL     1       2.061   6.522  19.843  0.00  0.00    +0.000 C 
ATOM     35  O   UNL     1       1.707   5.905  20.839  0.00  0.00    +0.000 OA
ATOM     36  H   UNL     1       2.146   8.213  18.687  0.00  0.00    +0.000 HD
BRANCH  34  37
ATOM     37  C   UNL     1       2.973   5.794  18.903  0.00  0.00    +0.000 C 
ATOM     38  C   UNL     1       4.087   6.360  18.072  0.00  0.00    +0.000 C 
ATOM     39  C   UNL     1       4.416   5.563  19.304  0.00  0.00    +0.000 C 
ENDBRANCH  34  37
ENDBRANCH  31  33
ENDBRANCH   9  27
TORSDOF 7
ENDMDL
MODEL 7
REMARK VINA RESULT:      -6.3      3.240      7.589
REMARK  Name = 
REMARK  10 active torsions:
REMARK  status: ('A' for Active; 'I' for Inactive)
REMARK    1  A    between atoms: C_1  and  O_2
REMARK    2  A    between atoms: O_2  and  C_3
REMARK    3  A    between atoms: C_5  and  N_6
REMARK    4  A    between atoms: C_14  and  C_15
REMARK    5  A    between atoms: C_19  and  N_20
REMARK    6  A    between atoms: C_21  and  C_23
REMARK    7  A    between atoms: C_30  and  O_31
REMARK    8  A    between atoms: O_31  and  C_32
REMARK    9  A    between atoms: C_33  and  O_34
REMARK   10  A    between atoms: O_34  and  C_35
REMARK                            x       y       z     vdW  Elec       q    Type
REMARK                         _______ _______ _______ _____ _____    ______ ____
ROOT
ATOM      1  N   UNL     1      -2.895  11.448  17.624  0.00  0.00    +0.000 N 
ATOM      2  C   UNL     1      -4.123  11.991  18.020  0.00  0.00    +0.000 A 
ATOM      3  N   UNL     1      -5.090  12.006  17.090  0.00  0.00    +0.000 NA
ATOM      4  C   UNL     1      -6.261  12.618  17.356  0.00  0.00    +0.000 A 
ATOM      5  N   UNL     1      -7.228  12.626  16.363  0.00  0.00    +0.000 N 
ATOM      6  C   UNL     1      -6.429  13.228  18.597  0.00  0.00    +0.000 A 
ATOM      7  S   UNL     1      -7.732  14.163  19.205  0.00  0.00    +0.000 S 
ATOM      8  C   UNL     1      -6.975  14.355  20.725  0.00  0.00    +0.000 A 
ATOM      9  C   UNL     1      -5.756  13.707  20.810  0.00  0.00    +0.000 A 
ATOM     10  C   UNL     1      -5.421  13.100  19.543  0.00  0.00    +0.000 A 
ATOM     11  N   UNL     1      -4.264  12.463  19.258  0.00  0.00    +0.000 NA
ATOM     12  H   UNL     1      -2.969  11.068  16.690  0.00  0.00    +0.000 HD
ATOM     13  H   UNL     1      -6.850  12.412  15.449  0.00  0.00    +0.000 HD
ATOM     14  H   UNL     1      -7.912  13.370  16.419  0.00  0.00    +0.000 HD
ENDROOT
BRANCH   1  17
ATOM     15  C   UNL     1       0.636  10.878  18.756  0.00  0.00    +0.000 A 
ATOM     16  C   UNL     1      -0.711  10.646  18.421  0.00  0.00    +0.000 A 
ATOM     17  C   UNL     1      -1.598  11.676  18.114  0.00  0.00    +0.000 A 
ATOM     18  C   UNL     1      -1.106  12.977  18.221  0.00  0.00    +0.000 A 
ATOM     19  C   UNL     1       0.220  13.247  18.629  0.00  0.00    +0.000 A 
ATOM     20  C   UNL     1       1.119  12.189  18.885  0.00  0.00    +0.000 A 
BRANCH  15  22
ATOM     21  C   UNL     1       1.889   9.128  17.818  0.00  0.00    +0.000 C 
ATOM     22  O   UNL     1       1.470   9.812  18.996  0.00  0.00    +0.000 OA
ENDBRANCH  15  22
BRANCH  19  23
ATOM     23  O   UNL     1       0.458  14.600  18.697  0.00  0.00    +0.000 OA
ATOM     24  C   UNL     1      -0.303  15.390  19.599  0.00  0.00    +0.000 C 
ENDBRANCH  19  23
BRANCH  20  25
ATOM     25  O   UNL     1       2.393  12.533  19.249  0.00  0.00    +0.000 OA
ATOM     26  C   UNL     1       2.647  13.211  20.468  0.00  0.00    +0.000 C 
ENDBRANCH  20  25
ENDBRANCH   1  17
BRANCH   9  27
ATOM     27  C   UNL     1      -4.976  13.688  22.060  0.00  0.00    +0.000 A 
ATOM     28  C   UNL     1      -5.084  14.728  22.992  0.00  0.00    +0.000 A 
ATOM     29  C   UNL     1      -4.351  14.695  24.178  0.00  0.00    +0.000 A 
ATOM     30  C   UNL     1      -3.485  13.634  24.443  0.00  0.00    +0.000 A 
ATOM     31  C   UNL     1      -3.337  12.589  23.531  0.00  0.00    +0.000 A 
ATOM     32  C   UNL     1      -4.105  12.618  22.352  0.00  0.00    +0.000 A 
BRANCH  31  33
ATOM     33  N   UNL     1      -2.392  11.538  23.692  0.00  0.00    +0.000 N 
ATOM     34  C   UNL     1      -1.293  11.293  22.891  0.00  0.00    +0.000 C 
ATOM     35  O   UNL     1      -0.900  11.987  21.963  0.00  0.00    +0.000 OA
ATOM     36  H   UNL     1      -2.614  10.844  24.393  0.00  0.00    +0.000 HD
BRANCH  34  37
ATOM     37  C   UNL     1      -0.526  10.031  23.144  0.00  0.00    +0.000 C 
ATOM     38  C   UNL     1      -0.428   8.817  22.268  0.00  0.00    +0.000 C 
ATOM     39  C   UNL     1       0.737   9.764  22.351  0.00  0.00    +0.000 C 
ENDBRANCH  34  37
ENDBRANCH  31  33
ENDBRANCH   9  27
TORSDOF 7
ENDMDL
MODEL 8
REMARK VINA RESULT:      -6.2      3.027      6.718
REMARK  Name = 
REMARK  10 active torsions:
REMARK  status: ('A' for Active; 'I' for Inactive)
REMARK    1  A    between atoms: C_1  and  O_2
REMARK    2  A    between atoms: O_2  and  C_3
REMARK    3  A    between atoms: C_5  and  N_6
REMARK    4  A    between atoms: C_14  and  C_15
REMARK    5  A    between atoms: C_19  and  N_20
REMARK    6  A    between atoms: C_21  and  C_23
REMARK    7  A    between atoms: C_30  and  O_31
REMARK    8  A    between atoms: O_31  and  C_32
REMARK    9  A    between atoms: C_33  and  O_34
REMARK   10  A    between atoms: O_34  and  C_35
REMARK                            x       y       z     vdW  Elec       q    Type
REMARK                         _______ _______ _______ _____ _____    ______ ____
ROOT
ATOM      1  N   UNL     1      -0.953  11.419  18.310  0.00  0.00    +0.000 N 
ATOM      2  C   UNL     1      -2.326  11.452  18.036  0.00  0.00    +0.000 A 
ATOM      3  N   UNL     1      -2.691  11.092  16.796  0.00  0.00    +0.000 NA
ATOM      4  C   UNL     1      -3.979  11.211  16.419  0.00  0.00    +0.000 A 
ATOM      5  N   UNL     1      -4.312  10.846  15.124  0.00  0.00    +0.000 N 
ATOM      6  C   UNL     1      -4.900  11.713  17.337  0.00  0.00    +0.000 A 
ATOM      7  S   UNL     1      -6.564  12.080  17.148  0.00  0.00    +0.000 S 
ATOM      8  C   UNL     1      -6.716  12.551  18.784  0.00  0.00    +0.000 A 
ATOM      9  C   UNL     1      -5.539  12.419  19.498  0.00  0.00    +0.000 A 
ATOM     10  C   UNL     1      -4.471  11.983  18.629  0.00  0.00    +0.000 A 
ATOM     11  N   UNL     1      -3.177  11.837  18.987  0.00  0.00    +0.000 NA
ATOM     12  H   UNL     1      -0.452  11.037  17.520  0.00  0.00    +0.000 HD
ATOM     13  H   UNL     1      -3.505  10.790  14.516  0.00  0.00    +0.000 HD
ATOM     14  H   UNL     1      -5.149  11.272  14.747  0.00  0.00    +0.000 HD
ENDROOT
BRANCH   1  17
ATOM     15  C   UNL     1       1.503  13.801  19.847  0.00  0.00    +0.000 A 
ATOM     16  C   UNL     1       0.854  12.974  18.912  0.00  0.00    +0.000 A 
ATOM     17  C   UNL     1      -0.197  12.126  19.258  0.00  0.00    +0.000 A 
ATOM     18  C   UNL     1      -0.541  12.078  20.610  0.00  0.00    +0.000 A 
ATOM     19  C   UNL     1       0.141  12.840  21.586  0.00  0.00    +0.000 A 
ATOM     20  C   UNL     1       1.167  13.732  21.208  0.00  0.00    +0.000 A 
BRANCH  15  22
ATOM     21  C   UNL     1       2.025  15.759  18.660  0.00  0.00    +0.000 C 
ATOM     22  O   UNL     1       2.496  14.653  19.427  0.00  0.00    +0.000 OA
ENDBRANCH  15  22
BRANCH  19  23
ATOM     23  O   UNL     1      -0.351  12.595  22.847  0.00  0.00    +0.000 OA
ATOM     24  C   UNL     1      -1.103  11.412  23.076  0.00  0.00    +0.000 C 
ENDBRANCH  19  23
BRANCH  20  25
ATOM     25  O   UNL     1       1.760  14.453  22.209  0.00  0.00    +0.000 OA
ATOM     26  C   UNL     1       1.471  15.831  22.387  0.00  0.00    +0.000 C 
ENDBRANCH  20  25
ENDBRANCH   1  17
BRANCH   9  27
ATOM     27  C   UNL     1      -5.475  12.702  20.943  0.00  0.00    +0.000 A 
ATOM     28  C   UNL     1      -6.570  12.440  21.778  0.00  0.00    +0.000 A 
ATOM     29  C   UNL     1      -6.495  12.699  23.145  0.00  0.00    +0.000 A 
ATOM     30  C   UNL     1      -5.336  13.245  23.699  0.00  0.00    +0.000 A 
ATOM     31  C   UNL     1      -4.232  13.537  22.897  0.00  0.00    +0.000 A 
ATOM     32  C   UNL     1      -4.308  13.241  21.522  0.00  0.00    +0.000 A 
BRANCH  31  33
ATOM     33  N   UNL     1      -3.066  14.193  23.379  0.00  0.00    +0.000 N 
ATOM     34  C   UNL     1      -2.999  15.472  23.897  0.00  0.00    +0.000 C 
ATOM     35  O   UNL     1      -3.942  16.223  24.105  0.00  0.00    +0.000 OA
ATOM     36  H   UNL     1      -2.190  13.712  23.224  0.00  0.00    +0.000 HD
BRANCH  34  37
ATOM     37  C   UNL     1      -1.637  16.023  24.191  0.00  0.00    +0.000 C 
ATOM     38  C   UNL     1      -1.269  17.114  25.155  0.00  0.00    +0.000 C 
ATOM     39  C   UNL     1      -0.972  15.682  25.510  0.00  0.00    +0.000 C 
ENDBRANCH  34  37
ENDBRANCH  31  33
ENDBRANCH   9  27
TORSDOF 7
ENDMDL
MODEL 9
REMARK VINA RESULT:      -6.2      2.852      3.490
REMARK  Name = 
REMARK  10 active torsions:
REMARK  status: ('A' for Active; 'I' for Inactive)
REMARK    1  A    between atoms: C_1  and  O_2
REMARK    2  A    between atoms: O_2  and  C_3
REMARK    3  A    between atoms: C_5  and  N_6
REMARK    4  A    between atoms: C_14  and  C_15
REMARK    5  A    between atoms: C_19  and  N_20
REMARK    6  A    between atoms: C_21  and  C_23
REMARK    7  A    between atoms: C_30  and  O_31
REMARK    8  A    between atoms: O_31  and  C_32
REMARK    9  A    between atoms: C_33  and  O_34
REMARK   10  A    between atoms: O_34  and  C_35
REMARK                            x       y       z     vdW  Elec       q    Type
REMARK                         _______ _______ _______ _____ _____    ______ ____
ROOT
ATOM      1  N   UNL     1      -0.579  15.160  22.918  0.00  0.00    +0.000 N 
ATOM      2  C   UNL     1       0.463  14.932  22.012  0.00  0.00    +0.000 A 
ATOM      3  N   UNL     1       1.583  15.646  22.205  0.00  0.00    +0.000 NA
ATOM      4  C   UNL     1       2.585  15.571  21.309  0.00  0.00    +0.000 A 
ATOM      5  N   UNL     1       3.717  16.339  21.536  0.00  0.00    +0.000 N 
ATOM      6  C   UNL     1       2.425  14.750  20.194  0.00  0.00    +0.000 A 
ATOM      7  S   UNL     1       3.446  14.511  18.838  0.00  0.00    +0.000 S 
ATOM      8  C   UNL     1       2.389  13.352  18.160  0.00  0.00    +0.000 A 
ATOM      9  C   UNL     1       1.276  13.109  18.944  0.00  0.00    +0.000 A 
ATOM     10  C   UNL     1       1.279  13.972  20.102  0.00  0.00    +0.000 A 
ATOM     11  N   UNL     1       0.296  14.052  21.025  0.00  0.00    +0.000 NA
ATOM     12  H   UNL     1      -0.274  15.792  23.645  0.00  0.00    +0.000 HD
ATOM     13  H   UNL     1       3.557  17.081  22.204  0.00  0.00    +0.000 HD
ATOM     14  H   UNL     1       4.270  16.563  20.718  0.00  0.00    +0.000 HD
ENDROOT
BRANCH   1  17
ATOM     15  C   UNL     1      -4.010  13.649  23.073  0.00  0.00    +0.000 A 
ATOM     16  C   UNL     1      -2.608  13.777  23.062  0.00  0.00    +0.000 A 
ATOM     17  C   UNL     1      -1.965  14.980  22.775  0.00  0.00    +0.000 A 
ATOM     18  C   UNL     1      -2.781  16.057  22.425  0.00  0.00    +0.000 A 
ATOM     19  C   UNL     1      -4.187  15.941  22.352  0.00  0.00    +0.000 A 
ATOM     20  C   UNL     1      -4.823  14.728  22.697  0.00  0.00    +0.000 A 
BRANCH  15  22
ATOM     21  C   UNL     1      -4.772  12.277  24.819  0.00  0.00    +0.000 C 
ATOM     22  O   UNL     1      -4.579  12.446  23.417  0.00  0.00    +0.000 OA
ENDBRANCH  15  22
BRANCH  19  23
ATOM     23  O   UNL     1      -4.768  17.121  21.949  0.00  0.00    +0.000 OA
ATOM     24  C   UNL     1      -4.775  17.449  20.567  0.00  0.00    +0.000 C 
ENDBRANCH  19  23
BRANCH  20  25
ATOM     25  O   UNL     1      -6.190  14.705  22.628  0.00  0.00    +0.000 OA
ATOM     26  C   UNL     1      -6.986  15.123  23.725  0.00  0.00    +0.000 C 
ENDBRANCH  20  25
ENDBRANCH   1  17
BRANCH   9  27
ATOM     27  C   UNL     1       0.277  12.090  18.574  0.00  0.00    +0.000 A 
ATOM     28  C   UNL     1       0.602  10.727  18.582  0.00  0.00    +0.000 A 
ATOM     29  C   UNL     1      -0.353   9.769  18.243  0.00  0.00    +0.000 A 
ATOM     30  C   UNL     1      -1.641  10.157  17.871  0.00  0.00    +0.000 A 
ATOM     31  C   UNL     1      -1.996  11.506  17.832  0.00  0.00    +0.000 A 
ATOM     32  C   UNL     1      -1.033  12.461  18.207  0.00  0.00    +0.000 A 
BRANCH  31  33
ATOM     33  N   UNL     1      -3.253  11.970  17.357  0.00  0.00    +0.000 N 
ATOM     34  C   UNL     1      -4.474  11.822  17.988  0.00  0.00    +0.000 C 
ATOM     35  O   UNL     1      -4.667  11.343  19.097  0.00  0.00    +0.000 OA
ATOM     36  H   UNL     1      -3.263  12.345  16.418  0.00  0.00    +0.000 HD
BRANCH  34  37
ATOM     37  C   UNL     1      -5.695  12.242  17.227  0.00  0.00    +0.000 C 
ATOM     38  C   UNL     1      -7.112  12.313  17.719  0.00  0.00    +0.000 C 
ATOM     39  C   UNL     1      -6.329  13.584  17.533  0.00  0.00    +0.000 C 
ENDBRANCH  34  37
ENDBRANCH  31  33
ENDBRANCH   9  27
TORSDOF 7
ENDMDL
