MODEL 1
REMARK VINA RESULT:      -9.3      0.000      0.000
REMARK  Name = 
REMARK  3 active torsions:
REMARK  status: ('A' for Active; 'I' for Inactive)
REMARK    1  A    between atoms: C_1  and  O_2
REMARK    2  A    between atoms: O_2  and  C_3
REMARK    3  A    between atoms: C_6  and  C_7
REMARK                            x       y       z     vdW  Elec       q    Type
REMARK                         _______ _______ _______ _____ _____    ______ ____
ROOT
ATOM      1  C   UNL     1       3.170   5.978  18.254  0.00  0.00    +0.000 A 
ATOM      2  C   UNL     1       4.329   5.971  17.458  0.00  0.00    +0.000 A 
ATOM      3  C   UNL     1       4.752   4.818  16.826  0.00  0.00    +0.000 A 
ATOM      4  C   UNL     1       4.097   3.610  16.937  0.00  0.00    +0.000 A 
ATOM      5  C   UNL     1       2.999   3.537  17.783  0.00  0.00    +0.000 A 
ATOM      6  C   UNL     1       2.324   2.307  17.893  0.00  0.00    +0.000 A 
ATOM      7  C   UNL     1       1.238   2.161  18.747  0.00  0.00    +0.000 A 
ATOM      8  C   UNL     1       0.855   3.226  19.545  0.00  0.00    +0.000 A 
ATOM      9  C   UNL     1       1.523   4.451  19.450  0.00  0.00    +0.000 A 
ATOM     10  C   UNL     1       2.561   4.687  18.511  0.00  0.00    +0.000 A 
ATOM     11  C   UNL     1       5.906   5.105  15.985  0.00  0.00    +0.000 C 
ATOM     12  O   UNL     1       6.477   4.327  15.247  0.00  0.00    +0.000 OA
ATOM     13  O   UNL     1       6.204   6.419  16.170  0.00  0.00    +0.000 OA
ATOM     14  C   UNL     1       5.283   7.046  17.084  0.00  0.00    +0.000 C 
ENDROOT
BRANCH   1  18
ATOM     15  C   UNL     1       0.996   9.590  19.403  0.00  0.00    +0.000 A 
ATOM     16  C   UNL     1       1.396   8.659  20.350  0.00  0.00    +0.000 A 
ATOM     17  C   UNL     1       2.094   7.511  19.962  0.00  0.00    +0.000 A 
ATOM     18  C   UNL     1       2.494   7.273  18.629  0.00  0.00    +0.000 A 
ATOM     19  C   UNL     1       2.097   8.252  17.701  0.00  0.00    +0.000 A 
ATOM     20  C   UNL     1       1.326   9.371  18.071  0.00  0.00    +0.000 A 
BRANCH  15  22
ATOM     21  C   UNL     1      -1.046  10.777  19.346  0.00  0.00    +0.000 C 
ATOM     22  O   UNL     1       0.260  10.630  19.891  0.00  0.00    +0.000 OA
ENDBRANCH  15  22
ENDBRANCH   1  18
TORSDOF 2
ENDMDL
MODEL 2
REMARK VINA RESULT:      -9.1      0.217      1.039
REMARK  Name = 
REMARK  3 active torsions:
REMARK  status: ('A' for Active; 'I' for Inactive)
REMARK    1  A    between atoms: C_1  and  O_2
REMARK    2  A    between atoms: O_2  and  C_3
REMARK    3  A    between atoms: C_6  and  C_7
REMARK                            x       y       z     vdW  Elec       q    Type
REMARK                         _______ _______ _______ _____ _____    ______ ____
ROOT
ATOM      1  C   UNL     1       3.121   5.918  18.269  0.00  0.00    +0.000 A 
ATOM      2  C   UNL     1       4.296   5.994  17.502  0.00  0.00    +0.000 A 
ATOM      3  C   UNL     1       4.800   4.881  16.858  0.00  0.00    +0.000 A 
ATOM      4  C   UNL     1       4.214   3.635  16.929  0.00  0.00    +0.000 A 
ATOM      5  C   UNL     1       3.103   3.481  17.747  0.00  0.00    +0.000 A 
ATOM      6  C   UNL     1       2.497   2.213  17.817  0.00  0.00    +0.000 A 
ATOM      7  C   UNL     1       1.402   1.987  18.641  0.00  0.00    +0.000 A 
ATOM      8  C   UNL     1       0.940   3.012  19.450  0.00  0.00    +0.000 A 
ATOM      9  C   UNL     1       1.538   4.275  19.395  0.00  0.00    +0.000 A 
ATOM     10  C   UNL     1       2.582   4.589  18.487  0.00  0.00    +0.000 A 
ATOM     11  C   UNL     1       5.954   5.251  16.050  0.00  0.00    +0.000 C 
ATOM     12  O   UNL     1       6.587   4.522  15.311  0.00  0.00    +0.000 OA
ATOM     13  O   UNL     1       6.172   6.576  16.268  0.00  0.00    +0.000 OA
ATOM     14  C   UNL     1       5.195   7.130  17.172  0.00  0.00    +0.000 C 
ENDROOT
BRANCH   1  18
ATOM     15  C   UNL     1       1.138   9.668  19.318  0.00  0.00    +0.000 A 
ATOM     16  C   UNL     1       1.429   9.352  18.000  0.00  0.00    +0.000 A 
ATOM     17  C   UNL     1       2.060   8.145  17.684  0.00  0.00    +0.000 A 
ATOM     18  C   UNL     1       2.363   7.165  18.653  0.00  0.00    +0.000 A 
ATOM     19  C   UNL     1       2.028   7.506  19.975  0.00  0.00    +0.000 A 
ATOM     20  C   UNL     1       1.463   8.751  20.311  0.00  0.00    +0.000 A 
BRANCH  15  22
ATOM     21  C   UNL     1      -0.775  11.042  19.127  0.00  0.00    +0.000 C 
ATOM     22  O   UNL     1       0.588  10.902  19.509  0.00  0.00    +0.000 OA
ENDBRANCH  15  22
ENDBRANCH   1  18
TORSDOF 2
ENDMDL
MODEL 3
REMARK VINA RESULT:      -8.7      1.648      5.773
REMARK  Name = 
REMARK  3 active torsions:
REMARK  status: ('A' for Active; 'I' for Inactive)
REMARK    1  A    between atoms: C_1  and  O_2
REMARK    2  A    between atoms: O_2  and  C_3
REMARK    3  A    between atoms: C_6  and  C_7
REMARK                            x       y       z     vdW  Elec       q    Type
REMARK                         _______ _______ _______ _____ _____    ______ ____
ROOT
ATOM      1  C   UNL     1       3.509   5.561  18.364  0.00  0.00    +0.000 A 
ATOM      2  C   UNL     1       2.883   6.812  18.494  0.00  0.00    +0.000 A 
ATOM      3  C   UNL     1       2.087   7.101  19.584  0.00  0.00    +0.000 A 
ATOM      4  C   UNL     1       1.835   6.200  20.598  0.00  0.00    +0.000 A 
ATOM      5  C   UNL     1       2.352   4.917  20.475  0.00  0.00    +0.000 A 
ATOM      6  C   UNL     1       2.103   3.998  21.512  0.00  0.00    +0.000 A 
ATOM      7  C   UNL     1       2.567   2.691  21.434  0.00  0.00    +0.000 A 
ATOM      8  C   UNL     1       3.231   2.273  20.291  0.00  0.00    +0.000 A 
ATOM      9  C   UNL     1       3.477   3.176  19.253  0.00  0.00    +0.000 A 
ATOM     10  C   UNL     1       3.128   4.550  19.333  0.00  0.00    +0.000 A 
ATOM     11  C   UNL     1       1.651   8.490  19.531  0.00  0.00    +0.000 C 
ATOM     12  O   UNL     1       0.996   9.078  20.369  0.00  0.00    +0.000 OA
ATOM     13  O   UNL     1       2.141   9.005  18.372  0.00  0.00    +0.000 OA
ATOM     14  C   UNL     1       2.914   8.031  17.645  0.00  0.00    +0.000 C 
ENDROOT
BRANCH   1  18
ATOM     15  C   UNL     1       6.808   5.236  15.518  0.00  0.00    +0.000 A 
ATOM     16  C   UNL     1       6.927   5.992  16.674  0.00  0.00    +0.000 A 
ATOM     17  C   UNL     1       5.861   6.080  17.574  0.00  0.00    +0.000 A 
ATOM     18  C   UNL     1       4.658   5.362  17.406  0.00  0.00    +0.000 A 
ATOM     19  C   UNL     1       4.583   4.584  16.238  0.00  0.00    +0.000 A 
ATOM     20  C   UNL     1       5.621   4.551  15.287  0.00  0.00    +0.000 A 
BRANCH  15  22
ATOM     21  C   UNL     1       7.608   5.118  13.297  0.00  0.00    +0.000 C 
ATOM     22  O   UNL     1       7.886   5.285  14.682  0.00  0.00    +0.000 OA
ENDBRANCH  15  22
ENDBRANCH   1  18
TORSDOF 2
ENDMDL
MODEL 4
REMARK VINA RESULT:      -8.7      1.609      5.823
REMARK  Name = 
REMARK  3 active torsions:
REMARK  status: ('A' for Active; 'I' for Inactive)
REMARK    1  A    between atoms: C_1  and  O_2
REMARK    2  A    between atoms: O_2  and  C_3
REMARK    3  A    between atoms: C_6  and  C_7
REMARK                            x       y       z     vdW  Elec       q    Type
REMARK                         _______ _______ _______ _____ _____    ______ ____
ROOT
ATOM      1  C   UNL     1       3.459   5.845  18.472  0.00  0.00    +0.000 A 
ATOM      2  C   UNL     1       2.743   7.036  18.682  0.00  0.00    +0.000 A 
ATOM      3  C   UNL     1       1.916   7.187  19.777  0.00  0.00    +0.000 A 
ATOM      4  C   UNL     1       1.720   6.200  20.720  0.00  0.00    +0.000 A 
ATOM      5  C   UNL     1       2.330   4.970  20.514  0.00  0.00    +0.000 A 
ATOM      6  C   UNL     1       2.138   3.963  21.478  0.00  0.00    +0.000 A 
ATOM      7  C   UNL     1       2.696   2.701  21.314  0.00  0.00    +0.000 A 
ATOM      8  C   UNL     1       3.400   2.416  20.156  0.00  0.00    +0.000 A 
ATOM      9  C   UNL     1       3.591   3.407  19.188  0.00  0.00    +0.000 A 
ATOM     10  C   UNL     1       3.143   4.743  19.360  0.00  0.00    +0.000 A 
ATOM     11  C   UNL     1       1.381   8.541  19.817  0.00  0.00    +0.000 C 
ATOM     12  O   UNL     1       0.676   9.019  20.684  0.00  0.00    +0.000 OA
ATOM     13  O   UNL     1       1.844   9.174  18.705  0.00  0.00    +0.000 OA
ATOM     14  C   UNL     1       2.694   8.312  17.922  0.00  0.00    +0.000 C 
ENDROOT
BRANCH   1  18
ATOM     15  C   UNL     1       6.851   5.451  15.747  0.00  0.00    +0.000 A 
ATOM     16  C   UNL     1       5.589   5.000  15.394  0.00  0.00    +0.000 A 
ATOM     17  C   UNL     1       4.515   5.140  16.278  0.00  0.00    +0.000 A 
ATOM     18  C   UNL     1       4.629   5.799  17.521  0.00  0.00    +0.000 A 
ATOM     19  C   UNL     1       5.916   6.268  17.834  0.00  0.00    +0.000 A 
ATOM     20  C   UNL     1       7.020   6.064  16.984  0.00  0.00    +0.000 A 
BRANCH  15  22
ATOM     21  C   UNL     1       7.392   4.882  13.519  0.00  0.00    +0.000 C 
ATOM     22  O   UNL     1       7.833   5.195  14.834  0.00  0.00    +0.000 OA
ENDBRANCH  15  22
ENDBRANCH   1  18
TORSDOF 2
ENDMDL
MODEL 5
REMARK VINA RESULT:      -8.6      1.928      3.750
REMARK  Name = 
REMARK  3 active torsions:
REMARK  status: ('A' for Active; 'I' for Inactive)
REMARK    1  A    between atoms: C_1  and  O_2
REMARK    2  A    between atoms: O_2  and  C_3
REMARK    3  A    between atoms: C_6  and  C_7
REMARK                            x       y       z     vdW  Elec       q    Type
REMARK                         _______ _______ _______ _____ _____    ______ ____
ROOT
ATOM      1  C   UNL     1       3.383   6.165  17.927  0.00  0.00    +0.000 A 
ATOM      2  C   UNL     1       2.780   4.897  17.870  0.00  0.00    +0.000 A 
ATOM      3  C   UNL     1       3.541   3.750  17.759  0.00  0.00    +0.000 A 
ATOM      4  C   UNL     1       4.918   3.760  17.680  0.00  0.00    +0.000 A 
ATOM      5  C   UNL     1       5.561   4.990  17.640  0.00  0.00    +0.000 A 
ATOM      6  C   UNL     1       6.967   5.004  17.567  0.00  0.00    +0.000 A 
ATOM      7  C   UNL     1       7.667   6.201  17.492  0.00  0.00    +0.000 A 
ATOM      8  C   UNL     1       6.966   7.394  17.427  0.00  0.00    +0.000 A 
ATOM      9  C   UNL     1       5.569   7.392  17.490  0.00  0.00    +0.000 A 
ATOM     10  C   UNL     1       4.812   6.207  17.685  0.00  0.00    +0.000 A 
ATOM     11  C   UNL     1       2.686   2.574  17.829  0.00  0.00    +0.000 C 
ATOM     12  O   UNL     1       3.045   1.413  17.828  0.00  0.00    +0.000 OA
ATOM     13  O   UNL     1       1.407   3.029  17.918  0.00  0.00    +0.000 OA
ATOM     14  C   UNL     1       1.359   4.469  17.937  0.00  0.00    +0.000 C 
ENDROOT
BRANCH   1  18
ATOM     15  C   UNL     1       0.961   9.489  19.403  0.00  0.00    +0.000 A 
ATOM     16  C   UNL     1       1.419   8.498  20.257  0.00  0.00    +0.000 A 
ATOM     17  C   UNL     1       2.196   7.445  19.766  0.00  0.00    +0.000 A 
ATOM     18  C   UNL     1       2.617   7.368  18.421  0.00  0.00    +0.000 A 
ATOM     19  C   UNL     1       2.158   8.404  17.590  0.00  0.00    +0.000 A 
ATOM     20  C   UNL     1       1.311   9.427  18.059  0.00  0.00    +0.000 A 
BRANCH  15  22
ATOM     21  C   UNL     1      -0.994  10.805  19.233  0.00  0.00    +0.000 C 
ATOM     22  O   UNL     1       0.152  10.424  19.983  0.00  0.00    +0.000 OA
ENDBRANCH  15  22
ENDBRANCH   1  18
TORSDOF 2
ENDMDL
MODEL 6
REMARK VINA RESULT:      -8.5      1.964      3.919
REMARK  Name = 
REMARK  3 active torsions:
REMARK  status: ('A' for Active; 'I' for Inactive)
REMARK    1  A    between atoms: C_1  and  O_2
REMARK    2  A    between atoms: O_2  and  C_3
REMARK    3  A    between atoms: C_6  and  C_7
REMARK                            x       y       z     vdW  Elec       q    Type
REMARK                         _______ _______ _______ _____ _____    ______ ____
ROOT
ATOM      1  C   UNL     1       3.354   5.932  18.084  0.00  0.00    +0.000 A 
ATOM      2  C   UNL     1       2.855   4.620  18.124  0.00  0.00    +0.000 A 
ATOM      3  C   UNL     1       3.703   3.532  18.056  0.00  0.00    +0.000 A 
ATOM      4  C   UNL     1       5.072   3.646  17.930  0.00  0.00    +0.000 A 
ATOM      5  C   UNL     1       5.612   4.918  17.793  0.00  0.00    +0.000 A 
ATOM      6  C   UNL     1       7.008   5.039  17.671  0.00  0.00    +0.000 A 
ATOM      7  C   UNL     1       7.606   6.282  17.500  0.00  0.00    +0.000 A 
ATOM      8  C   UNL     1       6.809   7.409  17.387  0.00  0.00    +0.000 A 
ATOM      9  C   UNL     1       5.419   7.300  17.499  0.00  0.00    +0.000 A 
ATOM     10  C   UNL     1       4.768   6.072  17.791  0.00  0.00    +0.000 A 
ATOM     11  C   UNL     1       2.949   2.298  18.227  0.00  0.00    +0.000 C 
ATOM     12  O   UNL     1       3.402   1.172  18.283  0.00  0.00    +0.000 OA
ATOM     13  O   UNL     1       1.641   2.655  18.332  0.00  0.00    +0.000 OA
ATOM     14  C   UNL     1       1.476   4.085  18.267  0.00  0.00    +0.000 C 
ENDROOT
BRANCH   1  18
ATOM     15  C   UNL     1       1.109   9.469  19.328  0.00  0.00    +0.000 A 
ATOM     16  C   UNL     1       1.440   9.258  17.999  0.00  0.00    +0.000 A 
ATOM     17  C   UNL     1       2.156   8.118  17.620  0.00  0.00    +0.000 A 
ATOM     18  C   UNL     1       2.508   7.099  18.531  0.00  0.00    +0.000 A 
ATOM     19  C   UNL     1       2.131   7.332  19.865  0.00  0.00    +0.000 A 
ATOM     20  C   UNL     1       1.479   8.513  20.268  0.00  0.00    +0.000 A 
BRANCH  15  22
ATOM     21  C   UNL     1      -0.784  10.831  18.951  0.00  0.00    +0.000 C 
ATOM     22  O   UNL     1       0.475  10.650  19.586  0.00  0.00    +0.000 OA
ENDBRANCH  15  22
ENDBRANCH   1  18
TORSDOF 2
ENDMDL
MODEL 7
REMARK VINA RESULT:      -8.2      2.730      6.462
REMARK  Name = 
REMARK  3 active torsions:
REMARK  status: ('A' for Active; 'I' for Inactive)
REMARK    1  A    between atoms: C_1  and  O_2
REMARK    2  A    between atoms: O_2  and  C_3
REMARK    3  A    between atoms: C_6  and  C_7
REMARK                            x       y       z     vdW  Elec       q    Type
REMARK                         _______ _______ _______ _____ _____    ______ ____
ROOT
ATOM      1  C   UNL     1       4.077   5.071  18.446  0.00  0.00    +0.000 A 
ATOM      2  C   UNL     1       3.837   4.119  19.451  0.00  0.00    +0.000 A 
ATOM      3  C   UNL     1       2.854   4.316  20.400  0.00  0.00    +0.000 A 
ATOM      4  C   UNL     1       2.061   5.444  20.445  0.00  0.00    +0.000 A 
ATOM      5  C   UNL     1       2.315   6.459  19.533  0.00  0.00    +0.000 A 
ATOM      6  C   UNL     1       1.503   7.607  19.572  0.00  0.00    +0.000 A 
ATOM      7  C   UNL     1       1.727   8.671  18.706  0.00  0.00    +0.000 A 
ATOM      8  C   UNL     1       2.803   8.622  17.835  0.00  0.00    +0.000 A 
ATOM      9  C   UNL     1       3.621   7.489  17.793  0.00  0.00    +0.000 A 
ATOM     10  C   UNL     1       3.366   6.330  18.572  0.00  0.00    +0.000 A 
ATOM     11  C   UNL     1       2.739   3.141  21.253  0.00  0.00    +0.000 C 
ATOM     12  O   UNL     1       1.929   2.965  22.141  0.00  0.00    +0.000 OA
ATOM     13  O   UNL     1       3.702   2.271  20.845  0.00  0.00    +0.000 OA
ATOM     14  C   UNL     1       4.452   2.796  19.732  0.00  0.00    +0.000 C 
ENDROOT
BRANCH   1  18
ATOM     15  C   UNL     1       6.380   4.292  14.816  0.00  0.00    +0.000 A 
ATOM     16  C   UNL     1       6.987   4.785  15.960  0.00  0.00    +0.000 A 
ATOM     17  C   UNL     1       6.233   5.024  17.113  0.00  0.00    +0.000 A 
ATOM     18  C   UNL     1       4.860   4.713  17.207  0.00  0.00    +0.000 A 
ATOM     19  C   UNL     1       4.284   4.188  16.036  0.00  0.00    +0.000 A 
ATOM     20  C   UNL     1       5.018   4.017  14.847  0.00  0.00    +0.000 A 
BRANCH  15  22
ATOM     21  C   UNL     1       6.584   3.731  12.529  0.00  0.00    +0.000 C 
ATOM     22  O   UNL     1       7.203   4.168  13.733  0.00  0.00    +0.000 OA
ENDBRANCH  15  22
ENDBRANCH   1  18
TORSDOF 2
ENDMDL
MODEL 8
REMARK VINA RESULT:      -8.1      2.652      4.043
REMARK  Name = 
REMARK  3 active torsions:
REMARK  status: ('A' for Active; 'I' for Inactive)
REMARK    1  A    between atoms: C_1  and  O_2
REMARK    2  A    between atoms: O_2  and  C_3
REMARK    3  A    between atoms: C_6  and  C_7
REMARK                            x       y       z     vdW  Elec       q    Type
REMARK                         _______ _______ _______ _____ _____    ______ ____
ROOT
ATOM      1  C   UNL     1       3.025   6.111  18.985  0.00  0.00    +0.000 A 
ATOM      2  C   UNL     1       2.610   5.061  19.820  0.00  0.00    +0.000 A 
ATOM      3  C   UNL     1       3.428   3.974  20.059  0.00  0.00    +0.000 A 
ATOM      4  C   UNL     1       4.679   3.830  19.498  0.00  0.00    +0.000 A 
ATOM      5  C   UNL     1       5.103   4.793  18.591  0.00  0.00    +0.000 A 
ATOM      6  C   UNL     1       6.383   4.653  18.022  0.00  0.00    +0.000 A 
ATOM      7  C   UNL     1       6.852   5.566  17.086  0.00  0.00    +0.000 A 
ATOM      8  C   UNL     1       6.023   6.593  16.664  0.00  0.00    +0.000 A 
ATOM      9  C   UNL     1       4.747   6.737  17.218  0.00  0.00    +0.000 A 
ATOM     10  C   UNL     1       4.265   5.903  18.260  0.00  0.00    +0.000 A 
ATOM     11  C   UNL     1       2.810   3.089  21.037  0.00  0.00    +0.000 C 
ATOM     12  O   UNL     1       3.295   2.082  21.513  0.00  0.00    +0.000 OA
ATOM     13  O   UNL     1       1.593   3.623  21.328  0.00  0.00    +0.000 OA
ATOM     14  C   UNL     1       1.368   4.850  20.608  0.00  0.00    +0.000 C 
ENDROOT
BRANCH   1  18
ATOM     15  C   UNL     1       0.786   9.861  19.136  0.00  0.00    +0.000 A 
ATOM     16  C   UNL     1       1.080   9.151  20.291  0.00  0.00    +0.000 A 
ATOM     17  C   UNL     1       1.801   7.955  20.221  0.00  0.00    +0.000 A 
ATOM     18  C   UNL     1       2.329   7.449  19.014  0.00  0.00    +0.000 A 
ATOM     19  C   UNL     1       2.036   8.209  17.868  0.00  0.00    +0.000 A 
ATOM     20  C   UNL     1       1.245   9.373  17.918  0.00  0.00    +0.000 A 
BRANCH  15  22
ATOM     21  C   UNL     1      -1.305  10.907  18.799  0.00  0.00    +0.000 C 
ATOM     22  O   UNL     1       0.016  10.972  19.321  0.00  0.00    +0.000 OA
ENDBRANCH  15  22
ENDBRANCH   1  18
TORSDOF 2
ENDMDL
MODEL 9
REMARK VINA RESULT:      -8.0      2.650      6.409
REMARK  Name = 
REMARK  3 active torsions:
REMARK  status: ('A' for Active; 'I' for Inactive)
REMARK    1  A    between atoms: C_1  and  O_2
REMARK    2  A    between atoms: O_2  and  C_3
REMARK    3  A    between atoms: C_6  and  C_7
REMARK                            x       y       z     vdW  Elec       q    Type
REMARK                         _______ _______ _______ _____ _____    ______ ____
ROOT
ATOM      1  C   UNL     1       4.040   5.353  18.402  0.00  0.00    +0.000 A 
ATOM      2  C   UNL     1       3.857   4.338  19.356  0.00  0.00    +0.000 A 
ATOM      3  C   UNL     1       2.874   4.435  20.321  0.00  0.00    +0.000 A 
ATOM      4  C   UNL     1       2.027   5.517  20.432  0.00  0.00    +0.000 A 
ATOM      5  C   UNL     1       2.222   6.591  19.574  0.00  0.00    +0.000 A 
ATOM      6  C   UNL     1       1.354   7.694  19.679  0.00  0.00    +0.000 A 
ATOM      7  C   UNL     1       1.517   8.812  18.870  0.00  0.00    +0.000 A 
ATOM      8  C   UNL     1       2.586   8.863  17.991  0.00  0.00    +0.000 A 
ATOM      9  C   UNL     1       3.459   7.776  17.883  0.00  0.00    +0.000 A 
ATOM     10  C   UNL     1       3.269   6.566  18.601  0.00  0.00    +0.000 A 
ATOM     11  C   UNL     1       2.826   3.212  21.110  0.00  0.00    +0.000 C 
ATOM     12  O   UNL     1       2.033   2.948  21.993  0.00  0.00    +0.000 OA
ATOM     13  O   UNL     1       3.827   2.414  20.650  0.00  0.00    +0.000 OA
ATOM     14  C   UNL     1       4.539   3.034  19.562  0.00  0.00    +0.000 C 
ENDROOT
BRANCH   1  18
ATOM     15  C   UNL     1       6.338   4.370  14.818  0.00  0.00    +0.000 A 
ATOM     16  C   UNL     1       5.033   3.932  14.978  0.00  0.00    +0.000 A 
ATOM     17  C   UNL     1       4.313   4.261  16.131  0.00  0.00    +0.000 A 
ATOM     18  C   UNL     1       4.828   5.101  17.141  0.00  0.00    +0.000 A 
ATOM     19  C   UNL     1       6.144   5.550  16.932  0.00  0.00    +0.000 A 
ATOM     20  C   UNL     1       6.904   5.161  15.812  0.00  0.00    +0.000 A 
BRANCH  15  22
ATOM     21  C   UNL     1       6.110   3.484  12.640  0.00  0.00    +0.000 C 
ATOM     22  O   UNL     1       6.962   3.926  13.689  0.00  0.00    +0.000 OA
ENDBRANCH  15  22
ENDBRANCH   1  18
TORSDOF 2
ENDMDL
