MODEL 1
REMARK VINA RESULT:      -7.7      0.000      0.000
REMARK  Name = 
REMARK  9 active torsions:
REMARK  status: ('A' for Active; 'I' for Inactive)
REMARK    1  A    between atoms: C_2  and  CA_14
REMARK    2  A    between atoms: N_3  and  CA_4
REMARK    3  A    between atoms: CA_4  and  C_5
REMARK    4  A    between atoms: CA_4  and  CB_7
REMARK    5  A    between atoms: C_5  and  O_6
REMARK    6  A    between atoms: CB_7  and  CG_8
REMARK    7  A    between atoms: CA_14  and  N_15
REMARK    8  A    between atoms: C_16  and  C_18
REMARK    9  A    between atoms: C_25  and  C_27
REMARK                            x       y       z     vdW  Elec       q    Type
REMARK                         _______ _______ _______ _____ _____    ______ ____
ROOT
ATOM      1  CA  UNL     1       4.006   4.616  17.432  0.00  0.00    +0.000 C 
ATOM      2  C   UNL     1       3.415   3.513  17.965  0.00  0.00    +0.000 C 
ATOM      3 BR   UNL     1       3.426   1.833  17.054  0.00  0.00    +0.000 Br
ENDROOT
BRANCH   2   4
ATOM      4  C   UNL     1       2.716   3.396  19.263  0.00  0.00    +0.000 A 
ATOM      5  C   UNL     1       1.353   3.708  19.373  0.00  0.00    +0.000 A 
ATOM      6  C   UNL     1       0.674   3.489  20.572  0.00  0.00    +0.000 A 
ATOM      7  C   UNL     1       1.347   2.950  21.667  0.00  0.00    +0.000 A 
ATOM      8  C   UNL     1       2.705   2.647  21.571  0.00  0.00    +0.000 A 
ATOM      9  C   UNL     1       3.389   2.872  20.375  0.00  0.00    +0.000 A 
ENDBRANCH   2   4
BRANCH   1  11
ATOM     10  O   UNL     1       4.656   6.250  19.068  0.00  0.00    +0.000 OA
ATOM     11  C   UNL     1       3.858   5.936  18.186  0.00  0.00    +0.000 C 
ATOM     12  N   UNL     1       2.807   6.759  17.884  0.00  0.00    +0.000 N 
ATOM     13  H   UNL     1       2.044   6.388  17.319  0.00  0.00    +0.000 HD
BRANCH  12  14
ATOM     14  CA  UNL     1       2.494   7.954  18.695  0.00  0.00    +0.000 C 
BRANCH  14  15
ATOM     15  C   UNL     1       1.541   7.591  19.853  0.00  0.00    +0.000 C 
BRANCH  15  16
ATOM     16  O   UNL     1       2.198   6.825  20.861  0.00  0.00    +0.000 OA
ATOM     17  H   UNL     1       1.608   6.831  21.635  0.00  0.00    +0.000 HD
ENDBRANCH  15  16
ENDBRANCH  14  15
BRANCH  14  18
ATOM     18  CB  UNL     1       1.954   9.090  17.800  0.00  0.00    +0.000 C 
BRANCH  18  19
ATOM     19  CG  UNL     1       0.801   9.843  18.431  0.00  0.00    +0.000 A 
ATOM     20  CD1 UNL     1      -0.486   9.759  17.881  0.00  0.00    +0.000 A 
ATOM     21  CE1 UNL     1      -1.538  10.501  18.423  0.00  0.00    +0.000 A 
ATOM     22  CZ  UNL     1      -1.313  11.337  19.515  0.00  0.00    +0.000 A 
ATOM     23  CE2 UNL     1      -0.042  11.418  20.079  0.00  0.00    +0.000 A 
ATOM     24  CD2 UNL     1       1.009  10.670  19.543  0.00  0.00    +0.000 A 
ENDBRANCH  18  19
ENDBRANCH  14  18
ENDBRANCH  12  14
ENDBRANCH   1  11
BRANCH   1  25
ATOM     25  N   UNL     1       4.652   4.469  16.198  0.00  0.00    +0.000 N 
ATOM     26  C   UNL     1       5.986   4.354  15.885  0.00  0.00    +0.000 C 
ATOM     27  O   UNL     1       6.893   4.274  16.705  0.00  0.00    +0.000 OA
ATOM     28  H   UNL     1       4.014   4.504  15.405  0.00  0.00    +0.000 HD
BRANCH  26  29
ATOM     29  C   UNL     1       6.366   4.307  14.441  0.00  0.00    +0.000 A 
ATOM     30  C   UNL     1       5.633   3.447  13.605  0.00  0.00    +0.000 A 
ATOM     31  C   UNL     1       5.941   3.329  12.249  0.00  0.00    +0.000 A 
ATOM     32  C   UNL     1       6.986   4.071  11.705  0.00  0.00    +0.000 A 
ATOM     33  C   UNL     1       7.718   4.935  12.520  0.00  0.00    +0.000 A 
ATOM     34  C   UNL     1       7.405   5.049  13.876  0.00  0.00    +0.000 A 
ATOM     35  F   UNL     1       8.135   5.891  14.622  0.00  0.00    +0.000 F 
ENDBRANCH  26  29
ENDBRANCH   1  25
TORSDOF 9
ENDMDL
MODEL 2
REMARK VINA RESULT:      -7.4      0.629      1.060
REMARK  Name = 
REMARK  9 active torsions:
REMARK  status: ('A' for Active; 'I' for Inactive)
REMARK    1  A    between atoms: C_2  and  CA_14
REMARK    2  A    between atoms: N_3  and  CA_4
REMARK    3  A    between atoms: CA_4  and  C_5
REMARK    4  A    between atoms: CA_4  and  CB_7
REMARK    5  A    between atoms: C_5  and  O_6
REMARK    6  A    between atoms: CB_7  and  CG_8
REMARK    7  A    between atoms: CA_14  and  N_15
REMARK    8  A    between atoms: C_16  and  C_18
REMARK    9  A    between atoms: C_25  and  C_27
REMARK                            x       y       z     vdW  Elec       q    Type
REMARK                         _______ _______ _______ _____ _____    ______ ____
ROOT
ATOM      1  CA  UNL     1       4.119   4.377  17.554  0.00  0.00    +0.000 C 
ATOM      2  C   UNL     1       3.500   3.268  18.041  0.00  0.00    +0.000 C 
ATOM      3 BR   UNL     1       3.562   1.599  17.113  0.00  0.00    +0.000 Br
ENDROOT
BRANCH   2   4
ATOM      4  C   UNL     1       2.731   3.137  19.298  0.00  0.00    +0.000 A 
ATOM      5  C   UNL     1       3.365   2.749  20.487  0.00  0.00    +0.000 A 
ATOM      6  C   UNL     1       2.658   2.735  21.691  0.00  0.00    +0.000 A 
ATOM      7  C   UNL     1       1.317   3.115  21.717  0.00  0.00    +0.000 A 
ATOM      8  C   UNL     1       0.675   3.491  20.537  0.00  0.00    +0.000 A 
ATOM      9  C   UNL     1       1.377   3.498  19.330  0.00  0.00    +0.000 A 
ENDBRANCH   2   4
BRANCH   1  11
ATOM     10  O   UNL     1       4.655   5.975  19.265  0.00  0.00    +0.000 OA
ATOM     11  C   UNL     1       3.929   5.689  18.313  0.00  0.00    +0.000 C 
ATOM     12  N   UNL     1       2.922   6.534  17.937  0.00  0.00    +0.000 N 
ATOM     13  H   UNL     1       2.203   6.185  17.304  0.00  0.00    +0.000 HD
BRANCH  12  14
ATOM     14  CA  UNL     1       2.561   7.722  18.737  0.00  0.00    +0.000 C 
BRANCH  14  15
ATOM     15  C   UNL     1       1.558   7.347  19.848  0.00  0.00    +0.000 C 
BRANCH  15  16
ATOM     16  O   UNL     1       2.187   6.631  20.911  0.00  0.00    +0.000 OA
ATOM     17  H   UNL     1       3.134   6.593  20.690  0.00  0.00    +0.000 HD
ENDBRANCH  15  16
ENDBRANCH  14  15
BRANCH  14  18
ATOM     18  CB  UNL     1       2.052   8.858  17.824  0.00  0.00    +0.000 C 
BRANCH  18  19
ATOM     19  CG  UNL     1       0.928   9.660  18.445  0.00  0.00    +0.000 A 
ATOM     20  CD1 UNL     1      -0.347   9.664  17.862  0.00  0.00    +0.000 A 
ATOM     21  CE1 UNL     1      -1.368  10.452  18.398  0.00  0.00    +0.000 A 
ATOM     22  CZ  UNL     1      -1.125  11.247  19.516  0.00  0.00    +0.000 A 
ATOM     23  CE2 UNL     1       0.134  11.241  20.112  0.00  0.00    +0.000 A 
ATOM     24  CD2 UNL     1       1.155  10.446  19.583  0.00  0.00    +0.000 A 
ENDBRANCH  18  19
ENDBRANCH  14  18
ENDBRANCH  12  14
ENDBRANCH   1  11
BRANCH   1  25
ATOM     25  N   UNL     1       4.832   4.244  16.356  0.00  0.00    +0.000 N 
ATOM     26  C   UNL     1       5.270   5.187  15.456  0.00  0.00    +0.000 C 
ATOM     27  O   UNL     1       5.168   6.399  15.608  0.00  0.00    +0.000 OA
ATOM     28  H   UNL     1       5.006   3.274  16.099  0.00  0.00    +0.000 HD
BRANCH  26  29
ATOM     29  C   UNL     1       5.932   4.709  14.205  0.00  0.00    +0.000 A 
ATOM     30  C   UNL     1       5.196   3.853  13.368  0.00  0.00    +0.000 A 
ATOM     31  C   UNL     1       5.752   3.345  12.193  0.00  0.00    +0.000 A 
ATOM     32  C   UNL     1       7.052   3.686  11.834  0.00  0.00    +0.000 A 
ATOM     33  C   UNL     1       7.794   4.541  12.650  0.00  0.00    +0.000 A 
ATOM     34  C   UNL     1       7.233   5.047  13.825  0.00  0.00    +0.000 A 
ATOM     35  F   UNL     1       7.980   5.864  14.579  0.00  0.00    +0.000 F 
ENDBRANCH  26  29
ENDBRANCH   1  25
TORSDOF 9
ENDMDL
MODEL 3
REMARK VINA RESULT:      -7.3      0.836      1.190
REMARK  Name = 
REMARK  9 active torsions:
REMARK  status: ('A' for Active; 'I' for Inactive)
REMARK    1  A    between atoms: C_2  and  CA_14
REMARK    2  A    between atoms: N_3  and  CA_4
REMARK    3  A    between atoms: CA_4  and  C_5
REMARK    4  A    between atoms: CA_4  and  CB_7
REMARK    5  A    between atoms: C_5  and  O_6
REMARK    6  A    between atoms: CB_7  and  CG_8
REMARK    7  A    between atoms: CA_14  and  N_15
REMARK    8  A    between atoms: C_16  and  C_18
REMARK    9  A    between atoms: C_25  and  C_27
REMARK                            x       y       z     vdW  Elec       q    Type
REMARK                         _______ _______ _______ _____ _____    ______ ____
ROOT
ATOM      1  CA  UNL     1       4.107   4.808  17.405  0.00  0.00    +0.000 C 
ATOM      2  C   UNL     1       3.505   3.690  17.894  0.00  0.00    +0.000 C 
ATOM      3 BR   UNL     1       3.566   2.029  16.952  0.00  0.00    +0.000 Br
ENDROOT
BRANCH   2   4
ATOM      4  C   UNL     1       2.756   3.543  19.161  0.00  0.00    +0.000 A 
ATOM      5  C   UNL     1       1.382   3.818  19.216  0.00  0.00    +0.000 A 
ATOM      6  C   UNL     1       0.659   3.570  20.383  0.00  0.00    +0.000 A 
ATOM      7  C   UNL     1       1.301   3.040  21.502  0.00  0.00    +0.000 A 
ATOM      8  C   UNL     1       2.670   2.774  21.461  0.00  0.00    +0.000 A 
ATOM      9  C   UNL     1       3.397   3.028  20.296  0.00  0.00    +0.000 A 
ENDBRANCH   2   4
BRANCH   1  11
ATOM     10  O   UNL     1       4.701   6.434  19.071  0.00  0.00    +0.000 OA
ATOM     11  C   UNL     1       3.918   6.113  18.177  0.00  0.00    +0.000 C 
ATOM     12  N   UNL     1       2.848   6.912  17.878  0.00  0.00    +0.000 N 
ATOM     13  H   UNL     1       2.100   6.530  17.302  0.00  0.00    +0.000 HD
BRANCH  12  14
ATOM     14  CA  UNL     1       2.498   8.086  18.704  0.00  0.00    +0.000 C 
BRANCH  14  15
ATOM     15  C   UNL     1       1.547   7.681  19.850  0.00  0.00    +0.000 C 
BRANCH  15  16
ATOM     16  O   UNL     1       2.204   6.872  20.825  0.00  0.00    +0.000 OA
ATOM     17  H   UNL     1       2.916   7.420  21.197  0.00  0.00    +0.000 HD
ENDBRANCH  15  16
ENDBRANCH  14  15
BRANCH  14  18
ATOM     18  CB  UNL     1       1.933   9.220  17.823  0.00  0.00    +0.000 C 
BRANCH  18  19
ATOM     19  CG  UNL     1       0.766   9.943  18.463  0.00  0.00    +0.000 A 
ATOM     20  CD1 UNL     1      -0.525   9.813  17.933  0.00  0.00    +0.000 A 
ATOM     21  CE1 UNL     1      -1.592  10.528  18.483  0.00  0.00    +0.000 A 
ATOM     22  CZ  UNL     1      -1.378  11.382  19.563  0.00  0.00    +0.000 A 
ATOM     23  CE2 UNL     1      -0.102  11.508  20.107  0.00  0.00    +0.000 A 
ATOM     24  CD2 UNL     1       0.964  10.788  19.563  0.00  0.00    +0.000 A 
ENDBRANCH  18  19
ENDBRANCH  14  18
ENDBRANCH  12  14
ENDBRANCH   1  11
BRANCH   1  25
ATOM     25  N   UNL     1       4.803   4.690  16.196  0.00  0.00    +0.000 N 
ATOM     26  C   UNL     1       6.141   4.515  15.937  0.00  0.00    +0.000 C 
ATOM     27  O   UNL     1       7.002   4.340  16.792  0.00  0.00    +0.000 OA
ATOM     28  H   UNL     1       4.206   4.803  15.378  0.00  0.00    +0.000 HD
BRANCH  26  29
ATOM     29  C   UNL     1       6.587   4.522  14.511  0.00  0.00    +0.000 A 
ATOM     30  C   UNL     1       7.608   5.420  14.155  0.00  0.00    +0.000 A 
ATOM     31  C   UNL     1       8.064   5.504  12.838  0.00  0.00    +0.000 A 
ATOM     32  C   UNL     1       7.509   4.689  11.856  0.00  0.00    +0.000 A 
ATOM     33  C   UNL     1       6.500   3.787  12.195  0.00  0.00    +0.000 A 
ATOM     34  C   UNL     1       6.048   3.707  13.514  0.00  0.00    +0.000 A 
ATOM     35  F   UNL     1       5.077   2.826  13.794  0.00  0.00    +0.000 F 
ENDBRANCH  26  29
ENDBRANCH   1  25
TORSDOF 9
ENDMDL
MODEL 4
REMARK VINA RESULT:      -7.3      4.107      7.372
REMARK  Name = 
REMARK  9 active torsions:
REMARK  status: ('A' for Active; 'I' for Inactive)
REMARK    1  A    between atoms: C_2  and  CA_14
REMARK    2  A    between atoms: N_3  and  CA_4
REMARK    3  A    between atoms: CA_4  and  C_5
REMARK    4  A    between atoms: CA_4  and  CB_7
REMARK    5  A    between atoms: C_5  and  O_6
REMARK    6  A    between atoms: CB_7  and  CG_8
REMARK    7  A    between atoms: CA_14  and  N_15
REMARK    8  A    between atoms: C_16  and  C_18
REMARK    9  A    between atoms: C_25  and  C_27
REMARK                            x       y       z     vdW  Elec       q    Type
REMARK                         _______ _______ _______ _____ _____    ______ ____
ROOT
ATOM      1  CA  UNL     1       0.479   9.788  19.918  0.00  0.00    +0.000 C 
ATOM      2  C   UNL     1       0.457  10.183  21.220  0.00  0.00    +0.000 C 
ATOM      3 BR   UNL     1       1.571   9.356  22.534  0.00  0.00    +0.000 Br
ENDROOT
BRANCH   2   4
ATOM      4  C   UNL     1      -0.355  11.259  21.828  0.00  0.00    +0.000 A 
ATOM      5  C   UNL     1      -1.429  10.952  22.676  0.00  0.00    +0.000 A 
ATOM      6  C   UNL     1      -2.120  11.969  23.336  0.00  0.00    +0.000 A 
ATOM      7  C   UNL     1      -1.740  13.299  23.159  0.00  0.00    +0.000 A 
ATOM      8  C   UNL     1      -0.680  13.615  22.308  0.00  0.00    +0.000 A 
ATOM      9  C   UNL     1       0.008  12.599  21.641  0.00  0.00    +0.000 A 
ENDBRANCH   2   4
BRANCH   1  11
ATOM     10  O   UNL     1      -0.245  11.492  18.387  0.00  0.00    +0.000 OA
ATOM     11  C   UNL     1      -0.520  10.439  18.961  0.00  0.00    +0.000 C 
ATOM     12  N   UNL     1      -1.737   9.846  18.768  0.00  0.00    +0.000 N 
ATOM     13  H   UNL     1      -2.028   9.109  19.410  0.00  0.00    +0.000 HD
BRANCH  12  14
ATOM     14  CA  UNL     1      -2.816  10.511  18.010  0.00  0.00    +0.000 C 
BRANCH  14  15
ATOM     15  C   UNL     1      -2.516  10.483  16.497  0.00  0.00    +0.000 C 
BRANCH  15  16
ATOM     16  O   UNL     1      -2.188  11.778  15.996  0.00  0.00    +0.000 OA
ATOM     17  H   UNL     1      -2.155  11.695  15.028  0.00  0.00    +0.000 HD
ENDBRANCH  15  16
ENDBRANCH  14  15
BRANCH  14  18
ATOM     18  CB  UNL     1      -3.060  11.936  18.551  0.00  0.00    +0.000 C 
BRANCH  18  19
ATOM     19  CG  UNL     1      -4.336  12.054  19.358  0.00  0.00    +0.000 A 
ATOM     20  CD1 UNL     1      -5.538  11.529  18.864  0.00  0.00    +0.000 A 
ATOM     21  CE1 UNL     1      -6.728  11.691  19.577  0.00  0.00    +0.000 A 
ATOM     22  CZ  UNL     1      -6.729  12.382  20.787  0.00  0.00    +0.000 A 
ATOM     23  CE2 UNL     1      -5.539  12.896  21.295  0.00  0.00    +0.000 A 
ATOM     24  CD2 UNL     1      -4.346  12.727  20.587  0.00  0.00    +0.000 A 
ENDBRANCH  18  19
ENDBRANCH  14  18
ENDBRANCH  12  14
ENDBRANCH   1  11
BRANCH   1  25
ATOM     25  N   UNL     1       1.372   8.769  19.567  0.00  0.00    +0.000 N 
ATOM     26  C   UNL     1       2.029   8.510  18.388  0.00  0.00    +0.000 C 
ATOM     27  O   UNL     1       2.000   9.231  17.397  0.00  0.00    +0.000 OA
ATOM     28  H   UNL     1       1.510   8.085  20.309  0.00  0.00    +0.000 HD
BRANCH  26  29
ATOM     29  C   UNL     1       2.855   7.267  18.303  0.00  0.00    +0.000 A 
ATOM     30  C   UNL     1       3.876   7.232  17.338  0.00  0.00    +0.000 A 
ATOM     31  C   UNL     1       4.676   6.099  17.180  0.00  0.00    +0.000 A 
ATOM     32  C   UNL     1       4.470   4.984  17.987  0.00  0.00    +0.000 A 
ATOM     33  C   UNL     1       3.465   5.006  18.955  0.00  0.00    +0.000 A 
ATOM     34  C   UNL     1       2.668   6.142  19.108  0.00  0.00    +0.000 A 
ATOM     35  F   UNL     1       1.715   6.120  20.051  0.00  0.00    +0.000 F 
ENDBRANCH  26  29
ENDBRANCH   1  25
TORSDOF 9
ENDMDL
MODEL 5
REMARK VINA RESULT:      -7.3      1.025      1.579
REMARK  Name = 
REMARK  9 active torsions:
REMARK  status: ('A' for Active; 'I' for Inactive)
REMARK    1  A    between atoms: C_2  and  CA_14
REMARK    2  A    between atoms: N_3  and  CA_4
REMARK    3  A    between atoms: CA_4  and  C_5
REMARK    4  A    between atoms: CA_4  and  CB_7
REMARK    5  A    between atoms: C_5  and  O_6
REMARK    6  A    between atoms: CB_7  and  CG_8
REMARK    7  A    between atoms: CA_14  and  N_15
REMARK    8  A    between atoms: C_16  and  C_18
REMARK    9  A    between atoms: C_25  and  C_27
REMARK                            x       y       z     vdW  Elec       q    Type
REMARK                         _______ _______ _______ _____ _____    ______ ____
ROOT
ATOM      1  CA  UNL     1       4.184   4.471  17.589  0.00  0.00    +0.000 C 
ATOM      2  C   UNL     1       3.580   3.341  18.045  0.00  0.00    +0.000 C 
ATOM      3 BR   UNL     1       3.703   1.688  17.094  0.00  0.00    +0.000 Br
ENDROOT
BRANCH   2   4
ATOM      4  C   UNL     1       2.784   3.173  19.280  0.00  0.00    +0.000 A 
ATOM      5  C   UNL     1       3.383   2.702  20.458  0.00  0.00    +0.000 A 
ATOM      6  C   UNL     1       2.655   2.652  21.648  0.00  0.00    +0.000 A 
ATOM      7  C   UNL     1       1.328   3.078  21.672  0.00  0.00    +0.000 A 
ATOM      8  C   UNL     1       0.720   3.537  20.502  0.00  0.00    +0.000 A 
ATOM      9  C   UNL     1       1.444   3.581  19.309  0.00  0.00    +0.000 A 
ENDBRANCH   2   4
BRANCH   1  11
ATOM     10  O   UNL     1       4.588   6.019  19.381  0.00  0.00    +0.000 OA
ATOM     11  C   UNL     1       3.945   5.767  18.362  0.00  0.00    +0.000 C 
ATOM     12  N   UNL     1       2.986   6.637  17.921  0.00  0.00    +0.000 N 
ATOM     13  H   UNL     1       2.321   6.315  17.219  0.00  0.00    +0.000 HD
BRANCH  12  14
ATOM     14  CA  UNL     1       2.572   7.810  18.717  0.00  0.00    +0.000 C 
BRANCH  14  15
ATOM     15  C   UNL     1       1.531   7.406  19.782  0.00  0.00    +0.000 C 
BRANCH  15  16
ATOM     16  O   UNL     1       2.142   6.795  20.918  0.00  0.00    +0.000 OA
ATOM     17  H   UNL     1       3.092   6.734  20.715  0.00  0.00    +0.000 HD
ENDBRANCH  15  16
ENDBRANCH  14  15
BRANCH  14  18
ATOM     18  CB  UNL     1       2.081   8.946  17.794  0.00  0.00    +0.000 C 
BRANCH  18  19
ATOM     19  CG  UNL     1       0.933   9.736  18.386  0.00  0.00    +0.000 A 
ATOM     20  CD1 UNL     1      -0.347   9.658  17.820  0.00  0.00    +0.000 A 
ATOM     21  CE1 UNL     1      -1.394  10.434  18.325  0.00  0.00    +0.000 A 
ATOM     22  CZ  UNL     1      -1.170  11.297  19.395  0.00  0.00    +0.000 A 
ATOM     23  CE2 UNL     1       0.094  11.373  19.975  0.00  0.00    +0.000 A 
ATOM     24  CD2 UNL     1       1.140  10.592  19.477  0.00  0.00    +0.000 A 
ENDBRANCH  18  19
ENDBRANCH  14  18
ENDBRANCH  12  14
ENDBRANCH   1  11
BRANCH   1  25
ATOM     25  N   UNL     1       4.928   4.374  16.407  0.00  0.00    +0.000 N 
ATOM     26  C   UNL     1       5.444   5.344  15.580  0.00  0.00    +0.000 C 
ATOM     27  O   UNL     1       5.400   6.548  15.804  0.00  0.00    +0.000 OA
ATOM     28  H   UNL     1       5.061   3.413  16.095  0.00  0.00    +0.000 HD
BRANCH  26  29
ATOM     29  C   UNL     1       6.121   4.908  14.322  0.00  0.00    +0.000 A 
ATOM     30  C   UNL     1       7.381   5.461  14.039  0.00  0.00    +0.000 A 
ATOM     31  C   UNL     1       8.069   5.122  12.872  0.00  0.00    +0.000 A 
ATOM     32  C   UNL     1       7.508   4.221  11.971  0.00  0.00    +0.000 A 
ATOM     33  C   UNL     1       6.261   3.657  12.242  0.00  0.00    +0.000 A 
ATOM     34  C   UNL     1       5.578   4.000  13.410  0.00  0.00    +0.000 A 
ATOM     35  F   UNL     1       4.383   3.435  13.630  0.00  0.00    +0.000 F 
ENDBRANCH  26  29
ENDBRANCH   1  25
TORSDOF 9
ENDMDL
MODEL 6
REMARK VINA RESULT:      -7.2      4.123      7.485
REMARK  Name = 
REMARK  9 active torsions:
REMARK  status: ('A' for Active; 'I' for Inactive)
REMARK    1  A    between atoms: C_2  and  CA_14
REMARK    2  A    between atoms: N_3  and  CA_4
REMARK    3  A    between atoms: CA_4  and  C_5
REMARK    4  A    between atoms: CA_4  and  CB_7
REMARK    5  A    between atoms: C_5  and  O_6
REMARK    6  A    between atoms: CB_7  and  CG_8
REMARK    7  A    between atoms: CA_14  and  N_15
REMARK    8  A    between atoms: C_16  and  C_18
REMARK    9  A    between atoms: C_25  and  C_27
REMARK                            x       y       z     vdW  Elec       q    Type
REMARK                         _______ _______ _______ _____ _____    ______ ____
ROOT
ATOM      1  CA  UNL     1       0.453   9.771  19.930  0.00  0.00    +0.000 C 
ATOM      2  C   UNL     1       0.416  10.200  21.221  0.00  0.00    +0.000 C 
ATOM      3 BR   UNL     1       1.531   9.424  22.565  0.00  0.00    +0.000 Br
ENDROOT
BRANCH   2   4
ATOM      4  C   UNL     1      -0.416  11.280  21.794  0.00  0.00    +0.000 A 
ATOM      5  C   UNL     1      -0.226  12.613  21.403  0.00  0.00    +0.000 A 
ATOM      6  C   UNL     1      -1.086  13.612  21.862  0.00  0.00    +0.000 A 
ATOM      7  C   UNL     1      -2.145  13.286  22.707  0.00  0.00    +0.000 A 
ATOM      8  C   UNL     1      -2.335  11.964  23.112  0.00  0.00    +0.000 A 
ATOM      9  C   UNL     1      -1.471  10.965  22.660  0.00  0.00    +0.000 A 
ENDBRANCH   2   4
BRANCH   1  11
ATOM     10  O   UNL     1      -0.283  11.423  18.350  0.00  0.00    +0.000 OA
ATOM     11  C   UNL     1      -0.547  10.381  18.949  0.00  0.00    +0.000 C 
ATOM     12  N   UNL     1      -1.754   9.765  18.763  0.00  0.00    +0.000 N 
ATOM     13  H   UNL     1      -2.039   9.042  19.421  0.00  0.00    +0.000 HD
BRANCH  12  14
ATOM     14  CA  UNL     1      -2.837  10.394  17.979  0.00  0.00    +0.000 C 
BRANCH  14  15
ATOM     15  C   UNL     1      -2.467  10.445  16.482  0.00  0.00    +0.000 C 
BRANCH  15  16
ATOM     16  O   UNL     1      -2.229  11.780  16.038  0.00  0.00    +0.000 OA
ATOM     17  H   UNL     1      -2.021  12.298  16.834  0.00  0.00    +0.000 HD
ENDBRANCH  15  16
ENDBRANCH  14  15
BRANCH  14  18
ATOM     18  CB  UNL     1      -3.192  11.780  18.560  0.00  0.00    +0.000 C 
BRANCH  18  19
ATOM     19  CG  UNL     1      -4.638  11.887  18.996  0.00  0.00    +0.000 A 
ATOM     20  CD1 UNL     1      -4.969  12.509  20.207  0.00  0.00    +0.000 A 
ATOM     21  CE1 UNL     1      -6.296  12.554  20.641  0.00  0.00    +0.000 A 
ATOM     22  CZ  UNL     1      -7.303  11.974  19.872  0.00  0.00    +0.000 A 
ATOM     23  CE2 UNL     1      -6.988  11.365  18.660  0.00  0.00    +0.000 A 
ATOM     24  CD2 UNL     1      -5.663  11.326  18.220  0.00  0.00    +0.000 A 
ENDBRANCH  18  19
ENDBRANCH  14  18
ENDBRANCH  12  14
ENDBRANCH   1  11
BRANCH   1  25
ATOM     25  N   UNL     1       1.364   8.755  19.614  0.00  0.00    +0.000 N 
ATOM     26  C   UNL     1       2.039   8.478  18.449  0.00  0.00    +0.000 C 
ATOM     27  O   UNL     1       2.013   9.177  17.442  0.00  0.00    +0.000 OA
ATOM     28  H   UNL     1       1.501   8.090  20.373  0.00  0.00    +0.000 HD
BRANCH  26  29
ATOM     29  C   UNL     1       2.881   7.245  18.402  0.00  0.00    +0.000 A 
ATOM     30  C   UNL     1       3.880   7.179  17.416  0.00  0.00    +0.000 A 
ATOM     31  C   UNL     1       4.693   6.051  17.292  0.00  0.00    +0.000 A 
ATOM     32  C   UNL     1       4.522   4.971  18.154  0.00  0.00    +0.000 A 
ATOM     33  C   UNL     1       3.539   5.024  19.143  0.00  0.00    +0.000 A 
ATOM     34  C   UNL     1       2.729   6.155  19.262  0.00  0.00    +0.000 A 
ATOM     35  F   UNL     1       1.797   6.163  20.226  0.00  0.00    +0.000 F 
ENDBRANCH  26  29
ENDBRANCH   1  25
TORSDOF 9
ENDMDL
MODEL 7
REMARK VINA RESULT:      -7.2      1.310      1.669
REMARK  Name = 
REMARK  9 active torsions:
REMARK  status: ('A' for Active; 'I' for Inactive)
REMARK    1  A    between atoms: C_2  and  CA_14
REMARK    2  A    between atoms: N_3  and  CA_4
REMARK    3  A    between atoms: CA_4  and  C_5
REMARK    4  A    between atoms: CA_4  and  CB_7
REMARK    5  A    between atoms: C_5  and  O_6
REMARK    6  A    between atoms: CB_7  and  CG_8
REMARK    7  A    between atoms: CA_14  and  N_15
REMARK    8  A    between atoms: C_16  and  C_18
REMARK    9  A    between atoms: C_25  and  C_27
REMARK                            x       y       z     vdW  Elec       q    Type
REMARK                         _______ _______ _______ _____ _____    ______ ____
ROOT
ATOM      1  CA  UNL     1       3.868   4.619  17.379  0.00  0.00    +0.000 C 
ATOM      2  C   UNL     1       3.398   3.498  17.990  0.00  0.00    +0.000 C 
ATOM      3 BR   UNL     1       3.604   1.769  17.204  0.00  0.00    +0.000 Br
ENDROOT
BRANCH   2   4
ATOM      4  C   UNL     1       2.704   3.398  19.292  0.00  0.00    +0.000 A 
ATOM      5  C   UNL     1       1.333   3.676  19.395  0.00  0.00    +0.000 A 
ATOM      6  C   UNL     1       0.660   3.471  20.601  0.00  0.00    +0.000 A 
ATOM      7  C   UNL     1       1.349   2.982  21.710  0.00  0.00    +0.000 A 
ATOM      8  C   UNL     1       2.716   2.714  21.620  0.00  0.00    +0.000 A 
ATOM      9  C   UNL     1       3.392   2.925  20.417  0.00  0.00    +0.000 A 
ENDBRANCH   2   4
BRANCH   1  11
ATOM     10  O   UNL     1       4.342   6.453  18.856  0.00  0.00    +0.000 OA
ATOM     11  C   UNL     1       3.566   5.965  18.034  0.00  0.00    +0.000 C 
ATOM     12  N   UNL     1       2.405   6.615  17.714  0.00  0.00    +0.000 N 
ATOM     13  H   UNL     1       1.682   6.102  17.212  0.00  0.00    +0.000 HD
BRANCH  12  14
ATOM     14  CA  UNL     1       1.960   7.820  18.442  0.00  0.00    +0.000 C 
BRANCH  14  15
ATOM     15  C   UNL     1       2.760   9.058  17.987  0.00  0.00    +0.000 C 
BRANCH  15  16
ATOM     16  O   UNL     1       1.939   9.994  17.288  0.00  0.00    +0.000 OA
ATOM     17  H   UNL     1       2.187   9.924  16.350  0.00  0.00    +0.000 HD
ENDBRANCH  15  16
ENDBRANCH  14  15
BRANCH  14  18
ATOM     18  CB  UNL     1       2.024   7.586  19.967  0.00  0.00    +0.000 C 
BRANCH  18  19
ATOM     19  CG  UNL     1       1.130   8.526  20.749  0.00  0.00    +0.000 A 
ATOM     20  CD1 UNL     1       0.250   9.387  20.080  0.00  0.00    +0.000 A 
ATOM     21  CE1 UNL     1      -0.531  10.299  20.796  0.00  0.00    +0.000 A 
ATOM     22  CZ  UNL     1      -0.436  10.361  22.184  0.00  0.00    +0.000 A 
ATOM     23  CE2 UNL     1       0.425   9.500  22.861  0.00  0.00    +0.000 A 
ATOM     24  CD2 UNL     1       1.200   8.582  22.148  0.00  0.00    +0.000 A 
ENDBRANCH  18  19
ENDBRANCH  14  18
ENDBRANCH  12  14
ENDBRANCH   1  11
BRANCH   1  25
ATOM     25  N   UNL     1       4.538   4.456  16.160  0.00  0.00    +0.000 N 
ATOM     26  C   UNL     1       5.880   4.381  15.870  0.00  0.00    +0.000 C 
ATOM     27  O   UNL     1       6.776   4.362  16.706  0.00  0.00    +0.000 OA
ATOM     28  H   UNL     1       3.911   4.441  15.358  0.00  0.00    +0.000 HD
BRANCH  26  29
ATOM     29  C   UNL     1       6.284   4.301  14.434  0.00  0.00    +0.000 A 
ATOM     30  C   UNL     1       5.525   3.471  13.592  0.00  0.00    +0.000 A 
ATOM     31  C   UNL     1       5.852   3.324  12.243  0.00  0.00    +0.000 A 
ATOM     32  C   UNL     1       6.942   4.008  11.713  0.00  0.00    +0.000 A 
ATOM     33  C   UNL     1       7.702   4.842  12.534  0.00  0.00    +0.000 A 
ATOM     34  C   UNL     1       7.370   4.985  13.883  0.00  0.00    +0.000 A 
ATOM     35  F   UNL     1       8.126   5.796  14.635  0.00  0.00    +0.000 F 
ENDBRANCH  26  29
ENDBRANCH   1  25
TORSDOF 9
ENDMDL
MODEL 8
REMARK VINA RESULT:      -7.2      4.823      8.460
REMARK  Name = 
REMARK  9 active torsions:
REMARK  status: ('A' for Active; 'I' for Inactive)
REMARK    1  A    between atoms: C_2  and  CA_14
REMARK    2  A    between atoms: N_3  and  CA_4
REMARK    3  A    between atoms: CA_4  and  C_5
REMARK    4  A    between atoms: CA_4  and  CB_7
REMARK    5  A    between atoms: C_5  and  O_6
REMARK    6  A    between atoms: CB_7  and  CG_8
REMARK    7  A    between atoms: CA_14  and  N_15
REMARK    8  A    between atoms: C_16  and  C_18
REMARK    9  A    between atoms: C_25  and  C_27
REMARK                            x       y       z     vdW  Elec       q    Type
REMARK                         _______ _______ _______ _____ _____    ______ ____
ROOT
ATOM      1  CA  UNL     1       0.311  10.898  20.831  0.00  0.00    +0.000 C 
ATOM      2  C   UNL     1      -0.378  10.994  22.000  0.00  0.00    +0.000 C 
ATOM      3 BR   UNL     1      -0.481   9.530  23.224  0.00  0.00    +0.000 Br
ENDROOT
BRANCH   2   4
ATOM      4  C   UNL     1      -1.112  12.165  22.527  0.00  0.00    +0.000 A 
ATOM      5  C   UNL     1      -2.439  12.040  22.963  0.00  0.00    +0.000 A 
ATOM      6  C   UNL     1      -3.089  13.120  23.562  0.00  0.00    +0.000 A 
ATOM      7  C   UNL     1      -2.418  14.329  23.736  0.00  0.00    +0.000 A 
ATOM      8  C   UNL     1      -1.101  14.467  23.294  0.00  0.00    +0.000 A 
ATOM      9  C   UNL     1      -0.451  13.390  22.688  0.00  0.00    +0.000 A 
ENDBRANCH   2   4
BRANCH   1  11
ATOM     10  O   UNL     1      -0.724  12.255  19.141  0.00  0.00    +0.000 OA
ATOM     11  C   UNL     1       0.252  12.085  19.871  0.00  0.00    +0.000 C 
ATOM     12  N   UNL     1       1.313  12.946  19.815  0.00  0.00    +0.000 N 
ATOM     13  H   UNL     1       2.190  12.670  20.254  0.00  0.00    +0.000 HD
BRANCH  12  14
ATOM     14  CA  UNL     1       1.407  14.000  18.784  0.00  0.00    +0.000 C 
BRANCH  14  15
ATOM     15  C   UNL     1       2.596  13.732  17.837  0.00  0.00    +0.000 C 
BRANCH  15  16
ATOM     16  O   UNL     1       2.633  12.373  17.404  0.00  0.00    +0.000 OA
ATOM     17  H   UNL     1       2.446  12.387  16.450  0.00  0.00    +0.000 HD
ENDBRANCH  15  16
ENDBRANCH  14  15
BRANCH  14  18
ATOM     18  CB  UNL     1       1.461  15.397  19.440  0.00  0.00    +0.000 C 
BRANCH  18  19
ATOM     19  CG  UNL     1       0.907  16.491  18.551  0.00  0.00    +0.000 A 
ATOM     20  CD1 UNL     1       1.764  17.250  17.743  0.00  0.00    +0.000 A 
ATOM     21  CE1 UNL     1       1.264  18.300  16.970  0.00  0.00    +0.000 A 
ATOM     22  CZ  UNL     1      -0.096  18.605  17.001  0.00  0.00    +0.000 A 
ATOM     23  CE2 UNL     1      -0.959  17.849  17.790  0.00  0.00    +0.000 A 
ATOM     24  CD2 UNL     1      -0.462  16.793  18.557  0.00  0.00    +0.000 A 
ENDBRANCH  18  19
ENDBRANCH  14  18
ENDBRANCH  12  14
ENDBRANCH   1  11
BRANCH   1  25
ATOM     25  N   UNL     1       0.971   9.690  20.568  0.00  0.00    +0.000 N 
ATOM     26  C   UNL     1       1.361   9.114  19.383  0.00  0.00    +0.000 C 
ATOM     27  O   UNL     1       1.259   9.642  18.282  0.00  0.00    +0.000 OA
ATOM     28  H   UNL     1       1.139   9.136  21.406  0.00  0.00    +0.000 HD
BRANCH  26  29
ATOM     29  C   UNL     1       1.970   7.750  19.433  0.00  0.00    +0.000 A 
ATOM     30  C   UNL     1       1.621   6.924  20.514  0.00  0.00    +0.000 A 
ATOM     31  C   UNL     1       2.165   5.645  20.645  0.00  0.00    +0.000 A 
ATOM     32  C   UNL     1       3.064   5.170  19.694  0.00  0.00    +0.000 A 
ATOM     33  C   UNL     1       3.414   5.975  18.610  0.00  0.00    +0.000 A 
ATOM     34  C   UNL     1       2.867   7.254  18.485  0.00  0.00    +0.000 A 
ATOM     35  F   UNL     1       3.232   7.994  17.428  0.00  0.00    +0.000 F 
ENDBRANCH  26  29
ENDBRANCH   1  25
TORSDOF 9
ENDMDL
MODEL 9
REMARK VINA RESULT:      -7.2      3.885      7.324
REMARK  Name = 
REMARK  9 active torsions:
REMARK  status: ('A' for Active; 'I' for Inactive)
REMARK    1  A    between atoms: C_2  and  CA_14
REMARK    2  A    between atoms: N_3  and  CA_4
REMARK    3  A    between atoms: CA_4  and  C_5
REMARK    4  A    between atoms: CA_4  and  CB_7
REMARK    5  A    between atoms: C_5  and  O_6
REMARK    6  A    between atoms: CB_7  and  CG_8
REMARK    7  A    between atoms: CA_14  and  N_15
REMARK    8  A    between atoms: C_16  and  C_18
REMARK    9  A    between atoms: C_25  and  C_27
REMARK                            x       y       z     vdW  Elec       q    Type
REMARK                         _______ _______ _______ _____ _____    ______ ____
ROOT
ATOM      1  CA  UNL     1       0.496   9.706  19.941  0.00  0.00    +0.000 C 
ATOM      2  C   UNL     1       0.484  10.167  21.221  0.00  0.00    +0.000 C 
ATOM      3 BR   UNL     1       1.557   9.362  22.583  0.00  0.00    +0.000 Br
ENDROOT
BRANCH   2   4
ATOM      4  C   UNL     1      -0.286  11.304  21.769  0.00  0.00    +0.000 A 
ATOM      5  C   UNL     1      -1.359  11.085  22.645  0.00  0.00    +0.000 A 
ATOM      6  C   UNL     1      -2.010  12.163  23.247  0.00  0.00    +0.000 A 
ATOM      7  C   UNL     1      -1.589  13.466  22.984  0.00  0.00    +0.000 A 
ATOM      8  C   UNL     1      -0.530  13.695  22.106  0.00  0.00    +0.000 A 
ATOM      9  C   UNL     1       0.118  12.618  21.497  0.00  0.00    +0.000 A 
ENDBRANCH   2   4
BRANCH   1  11
ATOM     10  O   UNL     1      -0.139  11.340  18.298  0.00  0.00    +0.000 OA
ATOM     11  C   UNL     1      -0.470  10.347  18.946  0.00  0.00    +0.000 C 
ATOM     12  N   UNL     1      -1.723   9.817  18.802  0.00  0.00    +0.000 N 
ATOM     13  H   UNL     1      -2.052   9.146  19.495  0.00  0.00    +0.000 HD
BRANCH  12  14
ATOM     14  CA  UNL     1      -2.767  10.492  18.004  0.00  0.00    +0.000 C 
BRANCH  14  15
ATOM     15  C   UNL     1      -2.421  10.444  16.501  0.00  0.00    +0.000 C 
BRANCH  15  16
ATOM     16  O   UNL     1      -2.201  11.748  15.965  0.00  0.00    +0.000 OA
ATOM     17  H   UNL     1      -1.238  11.884  15.967  0.00  0.00    +0.000 HD
ENDBRANCH  15  16
ENDBRANCH  14  15
BRANCH  14  18
ATOM     18  CB  UNL     1      -3.004  11.926  18.523  0.00  0.00    +0.000 C 
BRANCH  18  19
ATOM     19  CG  UNL     1      -4.284  12.064  19.321  0.00  0.00    +0.000 A 
ATOM     20  CD1 UNL     1      -4.283  12.732  20.553  0.00  0.00    +0.000 A 
ATOM     21  CE1 UNL     1      -5.449  12.806  21.320  0.00  0.00    +0.000 A 
ATOM     22  CZ  UNL     1      -6.624  12.210  20.865  0.00  0.00    +0.000 A 
ATOM     23  CE2 UNL     1      -6.640  11.556  19.636  0.00  0.00    +0.000 A 
ATOM     24  CD2 UNL     1      -5.478  11.488  18.864  0.00  0.00    +0.000 A 
ENDBRANCH  18  19
ENDBRANCH  14  18
ENDBRANCH  12  14
ENDBRANCH   1  11
BRANCH   1  25
ATOM     25  N   UNL     1       1.349   8.635  19.648  0.00  0.00    +0.000 N 
ATOM     26  C   UNL     1       2.066   8.335  18.514  0.00  0.00    +0.000 C 
ATOM     27  O   UNL     1       2.145   9.055  17.526  0.00  0.00    +0.000 OA
ATOM     28  H   UNL     1       1.396   7.945  20.396  0.00  0.00    +0.000 HD
BRANCH  26  29
ATOM     29  C   UNL     1       2.820   7.046  18.481  0.00  0.00    +0.000 A 
ATOM     30  C   UNL     1       2.550   6.110  19.494  0.00  0.00    +0.000 A 
ATOM     31  C   UNL     1       3.229   4.892  19.546  0.00  0.00    +0.000 A 
ATOM     32  C   UNL     1       4.187   4.587  18.584  0.00  0.00    +0.000 A 
ATOM     33  C   UNL     1       4.462   5.502  17.567  0.00  0.00    +0.000 A 
ATOM     34  C   UNL     1       3.780   6.720  17.520  0.00  0.00    +0.000 A 
ATOM     35  F   UNL     1       4.075   7.569  16.526  0.00  0.00    +0.000 F 
ENDBRANCH  26  29
ENDBRANCH   1  25
TORSDOF 9
ENDMDL
