MODEL 1
REMARK VINA RESULT:      -6.9      0.000      0.000
REMARK  Name = 
REMARK  3 active torsions:
REMARK  status: ('A' for Active; 'I' for Inactive)
REMARK    1  A    between atoms: C_1  and  C_2
REMARK    2  A    between atoms: C_2  and  C_4
REMARK    3  A    between atoms: C_12  and  O_13
REMARK                            x       y       z     vdW  Elec       q    Type
REMARK                         _______ _______ _______ _____ _____    ______ ____
ROOT
ATOM      1  C   UNL     1       4.186   5.834  17.791  0.00  0.00    +0.000 A 
ATOM      2  C   UNL     1       3.569   6.888  18.522  0.00  0.00    +0.000 A 
ATOM      3  C   UNL     1       2.533   6.661  19.434  0.00  0.00    +0.000 A 
ATOM      4  C   UNL     1       2.126   5.347  19.580  0.00  0.00    +0.000 A 
ATOM      5  C   UNL     1       2.724   4.318  18.873  0.00  0.00    +0.000 A 
ATOM      6  C   UNL     1       2.133   3.107  19.187  0.00  0.00    +0.000 A 
ATOM      7  C   UNL     1       2.557   1.921  18.610  0.00  0.00    +0.000 A 
ATOM      8  C   UNL     1       3.644   2.013  17.733  0.00  0.00    +0.000 A 
ATOM      9  C   UNL     1       4.252   3.252  17.451  0.00  0.00    +0.000 A 
ATOM     10  C   UNL     1       3.770   4.479  17.996  0.00  0.00    +0.000 A 
ATOM     11  C   UNL     1       1.042   3.293  20.188  0.00  0.00    +0.000 C 
ATOM     12  C   UNL     1       1.038   4.826  20.455  0.00  0.00    +0.000 C 
ENDROOT
BRANCH   1  14
ATOM     13  C   UNL     1       6.430   6.963  17.220  0.00  0.00    +0.000 C 
ATOM     14  C   UNL     1       5.197   6.226  16.757  0.00  0.00    +0.000 C 
ATOM     15  O   UNL     1       4.986   6.067  15.559  0.00  0.00    +0.000 OA
ENDBRANCH   1  14
BRANCH   9  16
ATOM     16  O   UNL     1       5.395   3.239  16.699  0.00  0.00    +0.000 OA
ATOM     17  H   UNL     1       6.043   2.658  17.121  0.00  0.00    +0.000 HD
ENDBRANCH   9  16
TORSDOF 2
ENDMDL
MODEL 2
REMARK VINA RESULT:      -6.8      1.408      3.932
REMARK  Name = 
REMARK  3 active torsions:
REMARK  status: ('A' for Active; 'I' for Inactive)
REMARK    1  A    between atoms: C_1  and  C_2
REMARK    2  A    between atoms: C_2  and  C_4
REMARK    3  A    between atoms: C_12  and  O_13
REMARK                            x       y       z     vdW  Elec       q    Type
REMARK                         _______ _______ _______ _____ _____    ______ ____
ROOT
ATOM      1  C   UNL     1       3.553   3.799  19.251  0.00  0.00    +0.000 A 
ATOM      2  C   UNL     1       2.580   4.205  20.207  0.00  0.00    +0.000 A 
ATOM      3  C   UNL     1       2.036   5.494  20.222  0.00  0.00    +0.000 A 
ATOM      4  C   UNL     1       2.509   6.367  19.259  0.00  0.00    +0.000 A 
ATOM      5  C   UNL     1       3.454   5.976  18.326  0.00  0.00    +0.000 A 
ATOM      6  C   UNL     1       3.767   7.029  17.484  0.00  0.00    +0.000 A 
ATOM      7  C   UNL     1       4.689   6.890  16.460  0.00  0.00    +0.000 A 
ATOM      8  C   UNL     1       5.248   5.617  16.297  0.00  0.00    +0.000 A 
ATOM      9  C   UNL     1       4.891   4.550  17.146  0.00  0.00    +0.000 A 
ATOM     10  C   UNL     1       3.991   4.714  18.240  0.00  0.00    +0.000 A 
ATOM     11  C   UNL     1       2.986   8.248  17.847  0.00  0.00    +0.000 C 
ATOM     12  C   UNL     1       2.127   7.793  19.062  0.00  0.00    +0.000 C 
ENDROOT
BRANCH   1  14
ATOM     13  C   UNL     1       3.538   1.299  18.629  0.00  0.00    +0.000 C 
ATOM     14  C   UNL     1       4.143   2.433  19.421  0.00  0.00    +0.000 C 
ATOM     15  O   UNL     1       5.008   2.206  20.261  0.00  0.00    +0.000 OA
ENDBRANCH   1  14
BRANCH   9  16
ATOM     16  O   UNL     1       5.369   3.307  16.833  0.00  0.00    +0.000 OA
ATOM     17  H   UNL     1       6.329   3.358  16.719  0.00  0.00    +0.000 HD
ENDBRANCH   9  16
TORSDOF 2
ENDMDL
MODEL 3
REMARK VINA RESULT:      -6.8      2.320      5.115
REMARK  Name = 
REMARK  3 active torsions:
REMARK  status: ('A' for Active; 'I' for Inactive)
REMARK    1  A    between atoms: C_1  and  C_2
REMARK    2  A    between atoms: C_2  and  C_4
REMARK    3  A    between atoms: C_12  and  O_13
REMARK                            x       y       z     vdW  Elec       q    Type
REMARK                         _______ _______ _______ _____ _____    ______ ____
ROOT
ATOM      1  C   UNL     1       2.631   3.676  19.360  0.00  0.00    +0.000 A 
ATOM      2  C   UNL     1       3.188   2.511  18.762  0.00  0.00    +0.000 A 
ATOM      3  C   UNL     1       4.052   2.571  17.664  0.00  0.00    +0.000 A 
ATOM      4  C   UNL     1       4.328   3.836  17.174  0.00  0.00    +0.000 A 
ATOM      5  C   UNL     1       3.790   4.972  17.752  0.00  0.00    +0.000 A 
ATOM      6  C   UNL     1       4.208   6.105  17.076  0.00  0.00    +0.000 A 
ATOM      7  C   UNL     1       3.807   7.372  17.464  0.00  0.00    +0.000 A 
ATOM      8  C   UNL     1       2.997   7.444  18.604  0.00  0.00    +0.000 A 
ATOM      9  C   UNL     1       2.609   6.280  19.297  0.00  0.00    +0.000 A 
ATOM     10  C   UNL     1       2.969   4.973  18.855  0.00  0.00    +0.000 A 
ATOM     11  C   UNL     1       5.106   5.742  15.941  0.00  0.00    +0.000 C 
ATOM     12  C   UNL     1       5.187   4.189  16.009  0.00  0.00    +0.000 C 
ENDROOT
BRANCH   1  14
ATOM     13  C   UNL     1       2.058   2.688  21.669  0.00  0.00    +0.000 C 
ATOM     14  C   UNL     1       1.626   3.466  20.449  0.00  0.00    +0.000 C 
ATOM     15  O   UNL     1       0.453   3.803  20.317  0.00  0.00    +0.000 OA
ENDBRANCH   1  14
BRANCH   9  16
ATOM     16  O   UNL     1       1.939   6.443  20.479  0.00  0.00    +0.000 OA
ATOM     17  H   UNL     1       2.167   5.715  21.073  0.00  0.00    +0.000 HD
ENDBRANCH   9  16
TORSDOF 2
ENDMDL
MODEL 4
REMARK VINA RESULT:      -6.7      1.129      3.056
REMARK  Name = 
REMARK  3 active torsions:
REMARK  status: ('A' for Active; 'I' for Inactive)
REMARK    1  A    between atoms: C_1  and  C_2
REMARK    2  A    between atoms: C_2  and  C_4
REMARK    3  A    between atoms: C_12  and  O_13
REMARK                            x       y       z     vdW  Elec       q    Type
REMARK                         _______ _______ _______ _____ _____    ______ ____
ROOT
ATOM      1  C   UNL     1       4.252   4.275  17.250  0.00  0.00    +0.000 A 
ATOM      2  C   UNL     1       4.093   2.865  17.144  0.00  0.00    +0.000 A 
ATOM      3  C   UNL     1       3.200   2.148  17.948  0.00  0.00    +0.000 A 
ATOM      4  C   UNL     1       2.483   2.887  18.871  0.00  0.00    +0.000 A 
ATOM      5  C   UNL     1       2.632   4.259  18.977  0.00  0.00    +0.000 A 
ATOM      6  C   UNL     1       1.815   4.759  19.976  0.00  0.00    +0.000 A 
ATOM      7  C   UNL     1       1.781   6.111  20.276  0.00  0.00    +0.000 A 
ATOM      8  C   UNL     1       2.580   6.943  19.483  0.00  0.00    +0.000 A 
ATOM      9  C   UNL     1       3.380   6.416  18.450  0.00  0.00    +0.000 A 
ATOM     10  C   UNL     1       3.463   5.017  18.187  0.00  0.00    +0.000 A 
ATOM     11  C   UNL     1       1.032   3.663  20.618  0.00  0.00    +0.000 C 
ATOM     12  C   UNL     1       1.491   2.383  19.862  0.00  0.00    +0.000 C 
ENDROOT
BRANCH   1  14
ATOM     13  C   UNL     1       6.761   4.707  16.854  0.00  0.00    +0.000 C 
ATOM     14  C   UNL     1       5.328   4.901  16.418  0.00  0.00    +0.000 C 
ATOM     15  O   UNL     1       5.064   5.650  15.483  0.00  0.00    +0.000 OA
ENDBRANCH   1  14
BRANCH   9  16
ATOM     16  O   UNL     1       4.019   7.306  17.630  0.00  0.00    +0.000 OA
ATOM     17  H   UNL     1       4.224   6.871  16.791  0.00  0.00    +0.000 HD
ENDBRANCH   9  16
TORSDOF 2
ENDMDL
MODEL 5
REMARK VINA RESULT:      -6.7      1.933      4.151
REMARK  Name = 
REMARK  3 active torsions:
REMARK  status: ('A' for Active; 'I' for Inactive)
REMARK    1  A    between atoms: C_1  and  C_2
REMARK    2  A    between atoms: C_2  and  C_4
REMARK    3  A    between atoms: C_12  and  O_13
REMARK                            x       y       z     vdW  Elec       q    Type
REMARK                         _______ _______ _______ _____ _____    ______ ____
ROOT
ATOM      1  C   UNL     1       2.697   4.176  20.207  0.00  0.00    +0.000 A 
ATOM      2  C   UNL     1       1.999   5.300  20.728  0.00  0.00    +0.000 A 
ATOM      3  C   UNL     1       2.007   6.548  20.096  0.00  0.00    +0.000 A 
ATOM      4  C   UNL     1       2.751   6.637  18.933  0.00  0.00    +0.000 A 
ATOM      5  C   UNL     1       3.431   5.546  18.420  0.00  0.00    +0.000 A 
ATOM      6  C   UNL     1       4.103   5.894  17.262  0.00  0.00    +0.000 A 
ATOM      7  C   UNL     1       4.859   4.972  16.556  0.00  0.00    +0.000 A 
ATOM      8  C   UNL     1       4.864   3.664  17.053  0.00  0.00    +0.000 A 
ATOM      9  C   UNL     1       4.147   3.323  18.217  0.00  0.00    +0.000 A 
ATOM     10  C   UNL     1       3.424   4.289  18.978  0.00  0.00    +0.000 A 
ATOM     11  C   UNL     1       3.879   7.331  16.932  0.00  0.00    +0.000 C 
ATOM     12  C   UNL     1       2.955   7.839  18.076  0.00  0.00    +0.000 C 
ENDROOT
BRANCH   1  14
ATOM     13  C   UNL     1       1.405   2.493  21.668  0.00  0.00    +0.000 C 
ATOM     14  C   UNL     1       2.708   2.935  21.045  0.00  0.00    +0.000 C 
ATOM     15  O   UNL     1       3.752   2.355  21.323  0.00  0.00    +0.000 OA
ENDBRANCH   1  14
BRANCH   9  16
ATOM     16  O   UNL     1       4.085   1.999  18.556  0.00  0.00    +0.000 OA
ATOM     17  H   UNL     1       3.993   1.923  19.516  0.00  0.00    +0.000 HD
ENDBRANCH   9  16
TORSDOF 2
ENDMDL
MODEL 6
REMARK VINA RESULT:      -6.7      1.451      1.590
REMARK  Name = 
REMARK  3 active torsions:
REMARK  status: ('A' for Active; 'I' for Inactive)
REMARK    1  A    between atoms: C_1  and  C_2
REMARK    2  A    between atoms: C_2  and  C_4
REMARK    3  A    between atoms: C_12  and  O_13
REMARK                            x       y       z     vdW  Elec       q    Type
REMARK                         _______ _______ _______ _____ _____    ______ ____
ROOT
ATOM      1  C   UNL     1       4.537   6.351  17.682  0.00  0.00    +0.000 A 
ATOM      2  C   UNL     1       3.621   7.436  17.778  0.00  0.00    +0.000 A 
ATOM      3  C   UNL     1       2.523   7.417  18.644  0.00  0.00    +0.000 A 
ATOM      4  C   UNL     1       2.363   6.269  19.400  0.00  0.00    +0.000 A 
ATOM      5  C   UNL     1       3.251   5.212  19.313  0.00  0.00    +0.000 A 
ATOM      6  C   UNL     1       2.867   4.185  20.158  0.00  0.00    +0.000 A 
ATOM      7  C   UNL     1       3.598   3.012  20.254  0.00  0.00    +0.000 A 
ATOM      8  C   UNL     1       4.766   2.945  19.486  0.00  0.00    +0.000 A 
ATOM      9  C   UNL     1       5.156   4.015  18.656  0.00  0.00    +0.000 A 
ATOM     10  C   UNL     1       4.367   5.194  18.509  0.00  0.00    +0.000 A 
ATOM     11  C   UNL     1       1.622   4.545  20.896  0.00  0.00    +0.000 C 
ATOM     12  C   UNL     1       1.278   5.971  20.377  0.00  0.00    +0.000 C 
ENDROOT
BRANCH   1  14
ATOM     13  C   UNL     1       5.326   5.795  15.293  0.00  0.00    +0.000 C 
ATOM     14  C   UNL     1       5.596   6.447  16.628  0.00  0.00    +0.000 C 
ATOM     15  O   UNL     1       6.699   6.929  16.867  0.00  0.00    +0.000 OA
ENDBRANCH   1  14
BRANCH   9  16
ATOM     16  O   UNL     1       6.380   3.931  18.051  0.00  0.00    +0.000 OA
ATOM     17  H   UNL     1       6.941   4.650  18.374  0.00  0.00    +0.000 HD
ENDBRANCH   9  16
TORSDOF 2
ENDMDL
MODEL 7
REMARK VINA RESULT:      -6.7      2.372      5.185
REMARK  Name = 
REMARK  3 active torsions:
REMARK  status: ('A' for Active; 'I' for Inactive)
REMARK    1  A    between atoms: C_1  and  C_2
REMARK    2  A    between atoms: C_2  and  C_4
REMARK    3  A    between atoms: C_12  and  O_13
REMARK                            x       y       z     vdW  Elec       q    Type
REMARK                         _______ _______ _______ _____ _____    ______ ____
ROOT
ATOM      1  C   UNL     1       3.003   3.983  19.380  0.00  0.00    +0.000 A 
ATOM      2  C   UNL     1       3.794   3.022  18.691  0.00  0.00    +0.000 A 
ATOM      3  C   UNL     1       4.585   3.355  17.585  0.00  0.00    +0.000 A 
ATOM      4  C   UNL     1       4.545   4.679  17.184  0.00  0.00    +0.000 A 
ATOM      5  C   UNL     1       3.779   5.617  17.853  0.00  0.00    +0.000 A 
ATOM      6  C   UNL     1       3.902   6.859  17.253  0.00  0.00    +0.000 A 
ATOM      7  C   UNL     1       3.232   7.969  17.739  0.00  0.00    +0.000 A 
ATOM      8  C   UNL     1       2.465   7.774  18.894  0.00  0.00    +0.000 A 
ATOM      9  C   UNL     1       2.379   6.509  19.507  0.00  0.00    +0.000 A 
ATOM     10  C   UNL     1       3.017   5.354  18.966  0.00  0.00    +0.000 A 
ATOM     11  C   UNL     1       4.822   6.792  16.081  0.00  0.00    +0.000 C 
ATOM     12  C   UNL     1       5.261   5.300  16.034  0.00  0.00    +0.000 C 
ENDROOT
BRANCH   1  14
ATOM     13  C   UNL     1       0.734   2.987  20.082  0.00  0.00    +0.000 C 
ATOM     14  C   UNL     1       2.110   3.472  20.468  0.00  0.00    +0.000 C 
ATOM     15  O   UNL     1       2.426   3.552  21.651  0.00  0.00    +0.000 OA
ENDBRANCH   1  14
BRANCH   9  16
ATOM     16  O   UNL     1       1.729   6.432  20.709  0.00  0.00    +0.000 OA
ATOM     17  H   UNL     1       2.350   6.651  21.417  0.00  0.00    +0.000 HD
ENDBRANCH   9  16
TORSDOF 2
ENDMDL
MODEL 8
REMARK VINA RESULT:      -6.6      1.566      2.397
REMARK  Name = 
REMARK  3 active torsions:
REMARK  status: ('A' for Active; 'I' for Inactive)
REMARK    1  A    between atoms: C_1  and  C_2
REMARK    2  A    between atoms: C_2  and  C_4
REMARK    3  A    between atoms: C_12  and  O_13
REMARK                            x       y       z     vdW  Elec       q    Type
REMARK                         _______ _______ _______ _____ _____    ______ ____
ROOT
ATOM      1  C   UNL     1       4.800   5.214  17.611  0.00  0.00    +0.000 A 
ATOM      2  C   UNL     1       4.625   6.540  17.126  0.00  0.00    +0.000 A 
ATOM      3  C   UNL     1       3.715   7.434  17.700  0.00  0.00    +0.000 A 
ATOM      4  C   UNL     1       2.975   6.952  18.765  0.00  0.00    +0.000 A 
ATOM      5  C   UNL     1       3.143   5.664  19.241  0.00  0.00    +0.000 A 
ATOM      6  C   UNL     1       2.283   5.422  20.299  0.00  0.00    +0.000 A 
ATOM      7  C   UNL     1       2.260   4.201  20.952  0.00  0.00    +0.000 A 
ATOM      8  C   UNL     1       3.185   3.246  20.514  0.00  0.00    +0.000 A 
ATOM      9  C   UNL     1       4.073   3.523  19.455  0.00  0.00    +0.000 A 
ATOM     10  C   UNL     1       4.049   4.758  18.742  0.00  0.00    +0.000 A 
ATOM     11  C   UNL     1       1.453   6.627  20.591  0.00  0.00    +0.000 C 
ATOM     12  C   UNL     1       1.926   7.672  19.541  0.00  0.00    +0.000 C 
ENDROOT
BRANCH   1  14
ATOM     13  C   UNL     1       7.194   4.621  16.868  0.00  0.00    +0.000 C 
ATOM     14  C   UNL     1       5.715   4.321  16.832  0.00  0.00    +0.000 C 
ATOM     15  O   UNL     1       5.281   3.446  16.088  0.00  0.00    +0.000 OA
ENDBRANCH   1  14
BRANCH   9  16
ATOM     16  O   UNL     1       5.040   2.594  19.182  0.00  0.00    +0.000 OA
ATOM     17  H   UNL     1       5.805   3.040  18.794  0.00  0.00    +0.000 HD
ENDBRANCH   9  16
TORSDOF 2
ENDMDL
MODEL 9
REMARK VINA RESULT:      -6.6      1.941      4.157
REMARK  Name = 
REMARK  3 active torsions:
REMARK  status: ('A' for Active; 'I' for Inactive)
REMARK    1  A    between atoms: C_1  and  C_2
REMARK    2  A    between atoms: C_2  and  C_4
REMARK    3  A    between atoms: C_12  and  O_13
REMARK                            x       y       z     vdW  Elec       q    Type
REMARK                         _______ _______ _______ _____ _____    ______ ____
ROOT
ATOM      1  C   UNL     1       2.027   4.413  19.604  0.00  0.00    +0.000 A 
ATOM      2  C   UNL     1       1.796   5.749  20.033  0.00  0.00    +0.000 A 
ATOM      3  C   UNL     1       2.410   6.850  19.425  0.00  0.00    +0.000 A 
ATOM      4  C   UNL     1       3.275   6.566  18.383  0.00  0.00    +0.000 A 
ATOM      5  C   UNL     1       3.503   5.269  17.961  0.00  0.00    +0.000 A 
ATOM      6  C   UNL     1       4.411   5.251  16.917  0.00  0.00    +0.000 A 
ATOM      7  C   UNL     1       4.804   4.067  16.315  0.00  0.00    +0.000 A 
ATOM      8  C   UNL     1       4.195   2.899  16.791  0.00  0.00    +0.000 A 
ATOM      9  C   UNL     1       3.249   2.942  17.834  0.00  0.00    +0.000 A 
ATOM     10  C   UNL     1       2.897   4.156  18.495  0.00  0.00    +0.000 A 
ATOM     11  C   UNL     1       4.853   6.635  16.577  0.00  0.00    +0.000 C 
ATOM     12  C   UNL     1       4.076   7.533  17.581  0.00  0.00    +0.000 C 
ENDROOT
BRANCH   1  14
ATOM     13  C   UNL     1       2.029   2.991  21.752  0.00  0.00    +0.000 C 
ATOM     14  C   UNL     1       1.405   3.321  20.417  0.00  0.00    +0.000 C 
ATOM     15  O   UNL     1       0.494   2.628  19.974  0.00  0.00    +0.000 OA
ENDBRANCH   1  14
BRANCH   9  16
ATOM     16  O   UNL     1       2.596   1.780  18.143  0.00  0.00    +0.000 OA
ATOM     17  H   UNL     1       2.914   1.458  18.998  0.00  0.00    +0.000 HD
ENDBRANCH   9  16
TORSDOF 2
ENDMDL
