MODEL 1
REMARK VINA RESULT:      -8.3      0.000      0.000
REMARK  Name = 
REMARK  12 active torsions:
REMARK  status: ('A' for Active; 'I' for Inactive)
REMARK    1  A    between atoms: C_1  and  O_2
REMARK    2  A    between atoms: O_2  and  C_3
REMARK    3  A    between atoms: C_7  and  C_8
REMARK    4  A    between atoms: C_8  and  N_9
REMARK    5  A    between atoms: N_9  and  C_10
REMARK    6  A    between atoms: C_10  and  C_11
REMARK    7  A    between atoms: C_11  and  N_12
REMARK    8  A    between atoms: N_12  and  C_13
REMARK    9  A    between atoms: N_12  and  C_14
REMARK   10  A    between atoms: C_15  and  C_17
REMARK   11  A    between atoms: N_19  and  C_20
REMARK   12  A    between atoms: C_23  and  C_24
REMARK                            x       y       z     vdW  Elec       q    Type
REMARK                         _______ _______ _______ _____ _____    ______ ____
ROOT
ATOM      1  N   UNL     1       2.399   6.608  18.846  0.00  0.00    +0.000 N 
ATOM      2  C   UNL     1       2.186   7.922  18.360  0.00  0.00    +0.000 C 
ATOM      3  O   UNL     1       2.690   8.169  17.262  0.00  0.00    +0.000 OA
ENDROOT
BRANCH   2   4
ATOM      4  C   UNL     1       1.398   9.064  18.996  0.00  0.00    +0.000 A 
ATOM      5  C   UNL     1       1.084  10.090  18.085  0.00  0.00    +0.000 A 
ATOM      6  N   UNL     1       1.036  11.233  18.817  0.00  0.00    +0.000 N 
ATOM      7  C   UNL     1       1.954  12.344  18.667  0.00  0.00    +0.000 C 
ATOM      8  C   UNL     1       0.421  10.934  19.994  0.00  0.00    +0.000 A 
ATOM      9  C   UNL     1      -0.300  11.796  20.836  0.00  0.00    +0.000 A 
ATOM     10  C   UNL     1      -0.707  11.360  22.088  0.00  0.00    +0.000 A 
ATOM     11  C   UNL     1      -0.213  10.112  22.493  0.00  0.00    +0.000 A 
ATOM     12  C   UNL     1       0.557   9.246  21.621  0.00  0.00    +0.000 A 
ATOM     13  C   UNL     1       0.805   9.600  20.263  0.00  0.00    +0.000 A 
BRANCH  10  14
ATOM     14  C   UNL     1      -1.604  12.208  22.900  0.00  0.00    +0.000 A 
ATOM     15  C   UNL     1      -2.902  12.013  23.425  0.00  0.00    +0.000 A 
ATOM     16  N   UNL     1      -3.380  13.075  24.094  0.00  0.00    +0.000 NA
ATOM     17  N   UNL     1      -2.392  13.976  23.998  0.00  0.00    +0.000 N 
ATOM     18  C   UNL     1      -1.310  13.507  23.303  0.00  0.00    +0.000 A 
ATOM     19  H   UNL     1      -2.520  14.885  24.421  0.00  0.00    +0.000 HD
ENDBRANCH  10  14
ENDBRANCH   2   4
BRANCH   1  20
ATOM     20  C   UNL     1       3.389   5.736  18.139  0.00  0.00    +0.000 C 
BRANCH  20  25
ATOM     21  C   UNL     1       7.001   7.080  17.686  0.00  0.00    +0.000 A 
ATOM     22  C   UNL     1       7.729   6.148  18.416  0.00  0.00    +0.000 A 
ATOM     23  C   UNL     1       7.075   5.116  19.085  0.00  0.00    +0.000 A 
ATOM     24  C   UNL     1       5.677   5.001  19.044  0.00  0.00    +0.000 A 
ATOM     25  C   UNL     1       4.899   5.946  18.347  0.00  0.00    +0.000 A 
ATOM     26  C   UNL     1       5.591   6.986  17.671  0.00  0.00    +0.000 A 
BRANCH  21  28
ATOM     27  C   UNL     1       8.289   9.103  17.818  0.00  0.00    +0.000 C 
ATOM     28  O   UNL     1       7.783   8.012  17.060  0.00  0.00    +0.000 OA
ENDBRANCH  21  28
ENDBRANCH  20  25
ENDBRANCH   1  20
BRANCH   1  29
ATOM     29  C   UNL     1       2.050   6.228  20.213  0.00  0.00    +0.000 C 
BRANCH  29  30
ATOM     30  C   UNL     1       2.291   4.753  20.607  0.00  0.00    +0.000 C 
BRANCH  30  31
ATOM     31  N   UNL     1       1.171   3.787  20.653  0.00  0.00    +0.000 NA
ATOM     32  C   UNL     1       0.838   3.177  19.367  0.00  0.00    +0.000 C 
ATOM     33  C   UNL     1       1.534   2.718  21.598  0.00  0.00    +0.000 C 
ENDBRANCH  30  31
ENDBRANCH  29  30
ENDBRANCH   1  29
TORSDOF 8
ENDMDL
MODEL 2
REMARK VINA RESULT:      -8.2      1.051      1.243
REMARK  Name = 
REMARK  12 active torsions:
REMARK  status: ('A' for Active; 'I' for Inactive)
REMARK    1  A    between atoms: C_1  and  O_2
REMARK    2  A    between atoms: O_2  and  C_3
REMARK    3  A    between atoms: C_7  and  C_8
REMARK    4  A    between atoms: C_8  and  N_9
REMARK    5  A    between atoms: N_9  and  C_10
REMARK    6  A    between atoms: C_10  and  C_11
REMARK    7  A    between atoms: C_11  and  N_12
REMARK    8  A    between atoms: N_12  and  C_13
REMARK    9  A    between atoms: N_12  and  C_14
REMARK   10  A    between atoms: C_15  and  C_17
REMARK   11  A    between atoms: N_19  and  C_20
REMARK   12  A    between atoms: C_23  and  C_24
REMARK                            x       y       z     vdW  Elec       q    Type
REMARK                         _______ _______ _______ _____ _____    ______ ____
ROOT
ATOM      1  N   UNL     1       2.346   6.113  18.747  0.00  0.00    +0.000 N 
ATOM      2  C   UNL     1       2.298   7.447  18.272  0.00  0.00    +0.000 C 
ATOM      3  O   UNL     1       2.909   7.656  17.221  0.00  0.00    +0.000 OA
ENDROOT
BRANCH   2   4
ATOM      4  C   UNL     1       1.576   8.653  18.866  0.00  0.00    +0.000 A 
ATOM      5  C   UNL     1       1.284   9.645  17.911  0.00  0.00    +0.000 A 
ATOM      6  N   UNL     1       1.304  10.823  18.585  0.00  0.00    +0.000 N 
ATOM      7  C   UNL     1       2.265  11.885  18.359  0.00  0.00    +0.000 C 
ATOM      8  C   UNL     1       0.704  10.610  19.788  0.00  0.00    +0.000 A 
ATOM      9  C   UNL     1       0.042  11.544  20.602  0.00  0.00    +0.000 A 
ATOM     10  C   UNL     1      -0.354  11.190  21.882  0.00  0.00    +0.000 A 
ATOM     11  C   UNL     1       0.096   9.942  22.340  0.00  0.00    +0.000 A 
ATOM     12  C   UNL     1       0.807   9.001  21.496  0.00  0.00    +0.000 A 
ATOM     13  C   UNL     1       1.037   9.276  20.117  0.00  0.00    +0.000 A 
BRANCH  10  14
ATOM     14  C   UNL     1      -1.194  12.115  22.670  0.00  0.00    +0.000 A 
ATOM     15  C   UNL     1      -2.484  12.002  23.237  0.00  0.00    +0.000 A 
ATOM     16  N   UNL     1      -2.902  13.117  23.859  0.00  0.00    +0.000 NA
ATOM     17  N   UNL     1      -1.881  13.969  23.691  0.00  0.00    +0.000 N 
ATOM     18  C   UNL     1      -0.838  13.420  22.996  0.00  0.00    +0.000 A 
ATOM     19  H   UNL     1      -1.960  14.904  24.068  0.00  0.00    +0.000 HD
ENDBRANCH  10  14
ENDBRANCH   2   4
BRANCH   1  20
ATOM     20  C   UNL     1       3.300   5.156  18.102  0.00  0.00    +0.000 C 
BRANCH  20  25
ATOM     21  C   UNL     1       6.879   5.704  16.705  0.00  0.00    +0.000 A 
ATOM     22  C   UNL     1       7.626   5.720  17.876  0.00  0.00    +0.000 A 
ATOM     23  C   UNL     1       6.995   5.597  19.112  0.00  0.00    +0.000 A 
ATOM     24  C   UNL     1       5.601   5.465  19.201  0.00  0.00    +0.000 A 
ATOM     25  C   UNL     1       4.803   5.482  18.040  0.00  0.00    +0.000 A 
ATOM     26  C   UNL     1       5.472   5.605  16.793  0.00  0.00    +0.000 A 
BRANCH  21  28
ATOM     27  C   UNL     1       7.239   5.083  14.412  0.00  0.00    +0.000 C 
ATOM     28  O   UNL     1       7.641   5.801  15.572  0.00  0.00    +0.000 OA
ENDBRANCH  21  28
ENDBRANCH  20  25
ENDBRANCH   1  20
BRANCH   1  29
ATOM     29  C   UNL     1       1.855   5.752  20.075  0.00  0.00    +0.000 C 
BRANCH  29  30
ATOM     30  C   UNL     1       2.251   4.357  20.608  0.00  0.00    +0.000 C 
BRANCH  30  31
ATOM     31  N   UNL     1       1.261   3.260  20.674  0.00  0.00    +0.000 NA
ATOM     32  C   UNL     1       1.260   2.367  19.516  0.00  0.00    +0.000 C 
ATOM     33  C   UNL     1       1.547   2.463  21.879  0.00  0.00    +0.000 C 
ENDBRANCH  30  31
ENDBRANCH  29  30
ENDBRANCH   1  29
TORSDOF 8
ENDMDL
MODEL 3
REMARK VINA RESULT:      -8.0      3.557      4.854
REMARK  Name = 
REMARK  12 active torsions:
REMARK  status: ('A' for Active; 'I' for Inactive)
REMARK    1  A    between atoms: C_1  and  O_2
REMARK    2  A    between atoms: O_2  and  C_3
REMARK    3  A    between atoms: C_7  and  C_8
REMARK    4  A    between atoms: C_8  and  N_9
REMARK    5  A    between atoms: N_9  and  C_10
REMARK    6  A    between atoms: C_10  and  C_11
REMARK    7  A    between atoms: C_11  and  N_12
REMARK    8  A    between atoms: N_12  and  C_13
REMARK    9  A    between atoms: N_12  and  C_14
REMARK   10  A    between atoms: C_15  and  C_17
REMARK   11  A    between atoms: N_19  and  C_20
REMARK   12  A    between atoms: C_23  and  C_24
REMARK                            x       y       z     vdW  Elec       q    Type
REMARK                         _______ _______ _______ _____ _____    ______ ____
ROOT
ATOM      1  N   UNL     1       4.593   4.678  16.779  0.00  0.00    +0.000 N 
ATOM      2  C   UNL     1       4.768   5.862  17.537  0.00  0.00    +0.000 C 
ATOM      3  O   UNL     1       5.887   6.376  17.465  0.00  0.00    +0.000 OA
ENDROOT
BRANCH   2   4
ATOM      4  C   UNL     1       3.758   6.603  18.409  0.00  0.00    +0.000 A 
ATOM      5  C   UNL     1       3.689   6.098  19.721  0.00  0.00    +0.000 A 
ATOM      6  N   UNL     1       2.413   6.315  20.133  0.00  0.00    +0.000 N 
ATOM      7  C   UNL     1       1.456   5.268  20.433  0.00  0.00    +0.000 C 
ATOM      8  C   UNL     1       2.047   7.546  19.683  0.00  0.00    +0.000 A 
ATOM      9  C   UNL     1       1.088   8.416  20.229  0.00  0.00    +0.000 A 
ATOM     10  C   UNL     1       0.715   9.557  19.536  0.00  0.00    +0.000 A 
ATOM     11  C   UNL     1       1.217   9.675  18.232  0.00  0.00    +0.000 A 
ATOM     12  C   UNL     1       2.184   8.751  17.671  0.00  0.00    +0.000 A 
ATOM     13  C   UNL     1       2.727   7.690  18.453  0.00  0.00    +0.000 A 
BRANCH  10  14
ATOM     14  C   UNL     1      -0.166  10.550  20.184  0.00  0.00    +0.000 A 
ATOM     15  C   UNL     1      -1.089  11.496  19.681  0.00  0.00    +0.000 A 
ATOM     16  N   UNL     1      -1.668  12.246  20.633  0.00  0.00    +0.000 NA
ATOM     17  N   UNL     1      -1.115  11.795  21.767  0.00  0.00    +0.000 N 
ATOM     18  C   UNL     1      -0.219  10.781  21.555  0.00  0.00    +0.000 A 
ATOM     19  H   UNL     1      -1.386  12.219  22.643  0.00  0.00    +0.000 HD
ENDBRANCH  10  14
ENDBRANCH   2   4
BRANCH   1  20
ATOM     20  C   UNL     1       5.799   4.028  16.176  0.00  0.00    +0.000 C 
BRANCH  20  25
ATOM     21  C   UNL     1       5.735   3.411  12.345  0.00  0.00    +0.000 A 
ATOM     22  C   UNL     1       6.836   4.152  11.935  0.00  0.00    +0.000 A 
ATOM     23  C   UNL     1       7.578   4.879  12.863  0.00  0.00    +0.000 A 
ATOM     24  C   UNL     1       7.226   4.887  14.221  0.00  0.00    +0.000 A 
ATOM     25  C   UNL     1       6.094   4.180  14.674  0.00  0.00    +0.000 A 
ATOM     26  C   UNL     1       5.358   3.445  13.707  0.00  0.00    +0.000 A 
BRANCH  21  28
ATOM     27  C   UNL     1       3.822   3.115  10.923  0.00  0.00    +0.000 C 
ATOM     28  O   UNL     1       5.129   2.727  11.327  0.00  0.00    +0.000 OA
ENDBRANCH  21  28
ENDBRANCH  20  25
ENDBRANCH   1  20
BRANCH   1  29
ATOM     29  C   UNL     1       3.403   3.842  16.925  0.00  0.00    +0.000 C 
BRANCH  29  30
ATOM     30  C   UNL     1       3.547   2.573  17.796  0.00  0.00    +0.000 C 
BRANCH  30  31
ATOM     31  N   UNL     1       3.203   2.597  19.235  0.00  0.00    +0.000 NA
ATOM     32  C   UNL     1       2.055   1.770  19.603  0.00  0.00    +0.000 C 
ATOM     33  C   UNL     1       4.378   2.128  19.989  0.00  0.00    +0.000 C 
ENDBRANCH  30  31
ENDBRANCH  29  30
ENDBRANCH   1  29
TORSDOF 8
ENDMDL
MODEL 4
REMARK VINA RESULT:      -8.0      3.678      5.842
REMARK  Name = 
REMARK  12 active torsions:
REMARK  status: ('A' for Active; 'I' for Inactive)
REMARK    1  A    between atoms: C_1  and  O_2
REMARK    2  A    between atoms: O_2  and  C_3
REMARK    3  A    between atoms: C_7  and  C_8
REMARK    4  A    between atoms: C_8  and  N_9
REMARK    5  A    between atoms: N_9  and  C_10
REMARK    6  A    between atoms: C_10  and  C_11
REMARK    7  A    between atoms: C_11  and  N_12
REMARK    8  A    between atoms: N_12  and  C_13
REMARK    9  A    between atoms: N_12  and  C_14
REMARK   10  A    between atoms: C_15  and  C_17
REMARK   11  A    between atoms: N_19  and  C_20
REMARK   12  A    between atoms: C_23  and  C_24
REMARK                            x       y       z     vdW  Elec       q    Type
REMARK                         _______ _______ _______ _____ _____    ______ ____
ROOT
ATOM      1  N   UNL     1       5.693   5.174  16.903  0.00  0.00    +0.000 N 
ATOM      2  C   UNL     1       4.719   4.790  17.859  0.00  0.00    +0.000 C 
ATOM      3  O   UNL     1       4.638   3.578  18.075  0.00  0.00    +0.000 OA
ENDROOT
BRANCH   2   4
ATOM      4  C   UNL     1       3.774   5.669  18.674  0.00  0.00    +0.000 A 
ATOM      5  C   UNL     1       3.555   5.180  19.976  0.00  0.00    +0.000 A 
ATOM      6  N   UNL     1       2.300   5.578  20.312  0.00  0.00    +0.000 N 
ATOM      7  C   UNL     1       1.188   4.679  20.546  0.00  0.00    +0.000 C 
ATOM      8  C   UNL     1       2.142   6.849  19.851  0.00  0.00    +0.000 A 
ATOM      9  C   UNL     1       1.286   7.847  20.345  0.00  0.00    +0.000 A 
ATOM     10  C   UNL     1       1.123   9.030  19.640  0.00  0.00    +0.000 A 
ATOM     11  C   UNL     1       1.715   9.073  18.369  0.00  0.00    +0.000 A 
ATOM     12  C   UNL     1       2.572   8.019  17.860  0.00  0.00    +0.000 A 
ATOM     13  C   UNL     1       2.909   6.892  18.665  0.00  0.00    +0.000 A 
BRANCH  10  14
ATOM     14  C   UNL     1       0.356  10.139  20.242  0.00  0.00    +0.000 A 
ATOM     15  C   UNL     1      -0.201  10.343  21.525  0.00  0.00    +0.000 A 
ATOM     16  N   UNL     1      -0.867  11.503  21.649  0.00  0.00    +0.000 NA
ATOM     17  N   UNL     1      -0.753  12.059  20.435  0.00  0.00    +0.000 N 
ATOM     18  C   UNL     1      -0.029  11.291  19.563  0.00  0.00    +0.000 A 
ATOM     19  H   UNL     1      -1.192  12.954  20.267  0.00  0.00    +0.000 HD
ENDBRANCH  10  14
ENDBRANCH   2   4
BRANCH   1  20
ATOM     20  C   UNL     1       6.347   4.109  16.080  0.00  0.00    +0.000 C 
BRANCH  20  25
ATOM     21  C   UNL     1       5.589   3.431  12.335  0.00  0.00    +0.000 A 
ATOM     22  C   UNL     1       6.630   4.116  11.721  0.00  0.00    +0.000 A 
ATOM     23  C   UNL     1       7.551   4.826  12.488  0.00  0.00    +0.000 A 
ATOM     24  C   UNL     1       7.443   4.872  13.887  0.00  0.00    +0.000 A 
ATOM     25  C   UNL     1       6.380   4.223  14.546  0.00  0.00    +0.000 A 
ATOM     26  C   UNL     1       5.458   3.504  13.740  0.00  0.00    +0.000 A 
BRANCH  21  28
ATOM     27  C   UNL     1       3.755   3.468  10.784  0.00  0.00    +0.000 C 
ATOM     28  O   UNL     1       4.788   2.757  11.454  0.00  0.00    +0.000 OA
ENDBRANCH  21  28
ENDBRANCH  20  25
ENDBRANCH   1  20
BRANCH   1  29
ATOM     29  C   UNL     1       5.765   6.539  16.386  0.00  0.00    +0.000 C 
BRANCH  29  30
ATOM     30  C   UNL     1       6.333   7.614  17.339  0.00  0.00    +0.000 C 
BRANCH  30  31
ATOM     31  N   UNL     1       7.787   7.706  17.601  0.00  0.00    +0.000 NA
ATOM     32  C   UNL     1       8.256   9.036  17.984  0.00  0.00    +0.000 C 
ATOM     33  C   UNL     1       8.111   6.764  18.686  0.00  0.00    +0.000 C 
ENDBRANCH  30  31
ENDBRANCH  29  30
ENDBRANCH   1  29
TORSDOF 8
ENDMDL
MODEL 5
REMARK VINA RESULT:      -7.4      2.302      2.675
REMARK  Name = 
REMARK  12 active torsions:
REMARK  status: ('A' for Active; 'I' for Inactive)
REMARK    1  A    between atoms: C_1  and  O_2
REMARK    2  A    between atoms: O_2  and  C_3
REMARK    3  A    between atoms: C_7  and  C_8
REMARK    4  A    between atoms: C_8  and  N_9
REMARK    5  A    between atoms: N_9  and  C_10
REMARK    6  A    between atoms: C_10  and  C_11
REMARK    7  A    between atoms: C_11  and  N_12
REMARK    8  A    between atoms: N_12  and  C_13
REMARK    9  A    between atoms: N_12  and  C_14
REMARK   10  A    between atoms: C_15  and  C_17
REMARK   11  A    between atoms: N_19  and  C_20
REMARK   12  A    between atoms: C_23  and  C_24
REMARK                            x       y       z     vdW  Elec       q    Type
REMARK                         _______ _______ _______ _____ _____    ______ ____
ROOT
ATOM      1  N   UNL     1       3.197   5.389  18.758  0.00  0.00    +0.000 N 
ATOM      2  C   UNL     1       3.315   6.787  18.555  0.00  0.00    +0.000 C 
ATOM      3  O   UNL     1       4.362   7.157  18.018  0.00  0.00    +0.000 OA
ENDROOT
BRANCH   2   4
ATOM      4  C   UNL     1       2.317   7.893  18.885  0.00  0.00    +0.000 A 
ATOM      5  C   UNL     1       1.896   8.611  17.750  0.00  0.00    +0.000 A 
ATOM      6  N   UNL     1       1.621   9.867  18.188  0.00  0.00    +0.000 N 
ATOM      7  C   UNL     1       2.355  11.054  17.796  0.00  0.00    +0.000 C 
ATOM      8  C   UNL     1       0.993   9.747  19.390  0.00  0.00    +0.000 A 
ATOM      9  C   UNL     1       0.094  10.644  19.988  0.00  0.00    +0.000 A 
ATOM     10  C   UNL     1      -0.312  10.446  21.299  0.00  0.00    +0.000 A 
ATOM     11  C   UNL     1       0.352   9.429  22.000  0.00  0.00    +0.000 A 
ATOM     12  C   UNL     1       1.303   8.529  21.374  0.00  0.00    +0.000 A 
ATOM     13  C   UNL     1       1.571   8.598  19.976  0.00  0.00    +0.000 A 
BRANCH  10  14
ATOM     14  C   UNL     1      -1.381  11.292  21.869  0.00  0.00    +0.000 A 
ATOM     15  C   UNL     1      -2.261  12.245  21.306  0.00  0.00    +0.000 A 
ATOM     16  N   UNL     1      -3.075  12.826  22.203  0.00  0.00    +0.000 NA
ATOM     17  N   UNL     1      -2.719  12.257  23.362  0.00  0.00    +0.000 N 
ATOM     18  C   UNL     1      -1.720  11.332  23.217  0.00  0.00    +0.000 A 
ATOM     19  H   UNL     1      -3.190  12.543  24.210  0.00  0.00    +0.000 HD
ENDBRANCH  10  14
ENDBRANCH   2   4
BRANCH   1  20
ATOM     20  C   UNL     1       4.404   4.530  18.546  0.00  0.00    +0.000 C 
BRANCH  20  25
ATOM     21  C   UNL     1       5.519   4.284  14.837  0.00  0.00    +0.000 A 
ATOM     22  C   UNL     1       6.870   4.590  14.941  0.00  0.00    +0.000 A 
ATOM     23  C   UNL     1       7.423   4.913  16.178  0.00  0.00    +0.000 A 
ATOM     24  C   UNL     1       6.631   4.945  17.336  0.00  0.00    +0.000 A 
ATOM     25  C   UNL     1       5.249   4.679  17.269  0.00  0.00    +0.000 A 
ATOM     26  C   UNL     1       4.713   4.349  15.996  0.00  0.00    +0.000 A 
BRANCH  21  28
ATOM     27  C   UNL     1       6.118   3.520  12.639  0.00  0.00    +0.000 C 
ATOM     28  O   UNL     1       5.131   3.956  13.566  0.00  0.00    +0.000 OA
ENDBRANCH  21  28
ENDBRANCH  20  25
ENDBRANCH   1  20
BRANCH   1  29
ATOM     29  C   UNL     1       2.121   4.819  19.565  0.00  0.00    +0.000 C 
BRANCH  29  30
ATOM     30  C   UNL     1       2.391   3.441  20.211  0.00  0.00    +0.000 C 
BRANCH  30  31
ATOM     31  N   UNL     1       1.849   2.202  19.611  0.00  0.00    +0.000 NA
ATOM     32  C   UNL     1       0.650   2.391  18.797  0.00  0.00    +0.000 C 
ATOM     33  C   UNL     1       2.900   1.610  18.766  0.00  0.00    +0.000 C 
ENDBRANCH  30  31
ENDBRANCH  29  30
ENDBRANCH   1  29
TORSDOF 8
ENDMDL
MODEL 6
REMARK VINA RESULT:      -7.3      2.249      2.691
REMARK  Name = 
REMARK  12 active torsions:
REMARK  status: ('A' for Active; 'I' for Inactive)
REMARK    1  A    between atoms: C_1  and  O_2
REMARK    2  A    between atoms: O_2  and  C_3
REMARK    3  A    between atoms: C_7  and  C_8
REMARK    4  A    between atoms: C_8  and  N_9
REMARK    5  A    between atoms: N_9  and  C_10
REMARK    6  A    between atoms: C_10  and  C_11
REMARK    7  A    between atoms: C_11  and  N_12
REMARK    8  A    between atoms: N_12  and  C_13
REMARK    9  A    between atoms: N_12  and  C_14
REMARK   10  A    between atoms: C_15  and  C_17
REMARK   11  A    between atoms: N_19  and  C_20
REMARK   12  A    between atoms: C_23  and  C_24
REMARK                            x       y       z     vdW  Elec       q    Type
REMARK                         _______ _______ _______ _____ _____    ______ ____
ROOT
ATOM      1  N   UNL     1       2.815   5.246  17.852  0.00  0.00    +0.000 N 
ATOM      2  C   UNL     1       3.159   6.530  18.342  0.00  0.00    +0.000 C 
ATOM      3  O   UNL     1       4.369   6.749  18.450  0.00  0.00    +0.000 OA
ENDROOT
BRANCH   2   4
ATOM      4  C   UNL     1       2.243   7.687  18.731  0.00  0.00    +0.000 A 
ATOM      5  C   UNL     1       1.879   8.493  17.635  0.00  0.00    +0.000 A 
ATOM      6  N   UNL     1       1.695   9.740  18.140  0.00  0.00    +0.000 N 
ATOM      7  C   UNL     1       2.515  10.890  17.810  0.00  0.00    +0.000 C 
ATOM      8  C   UNL     1       1.057   9.603  19.333  0.00  0.00    +0.000 A 
ATOM      9  C   UNL     1       0.223  10.531  19.979  0.00  0.00    +0.000 A 
ATOM     10  C   UNL     1      -0.200  10.295  21.278  0.00  0.00    +0.000 A 
ATOM     11  C   UNL     1       0.386   9.196  21.924  0.00  0.00    +0.000 A 
ATOM     12  C   UNL     1       1.271   8.264  21.251  0.00  0.00    +0.000 A 
ATOM     13  C   UNL     1       1.547   8.386  19.858  0.00  0.00    +0.000 A 
BRANCH  10  14
ATOM     14  C   UNL     1      -1.206  11.185  21.893  0.00  0.00    +0.000 A 
ATOM     15  C   UNL     1      -1.993  12.246  21.388  0.00  0.00    +0.000 A 
ATOM     16  N   UNL     1      -2.773  12.829  22.313  0.00  0.00    +0.000 NA
ATOM     17  N   UNL     1      -2.489  12.151  23.433  0.00  0.00    +0.000 N 
ATOM     18  C   UNL     1      -1.568  11.158  23.236  0.00  0.00    +0.000 A 
ATOM     19  H   UNL     1      -2.952  12.415  24.292  0.00  0.00    +0.000 HD
ENDBRANCH  10  14
ENDBRANCH   2   4
BRANCH   1  20
ATOM     20  C   UNL     1       3.888   4.208  17.746  0.00  0.00    +0.000 C 
BRANCH  20  25
ATOM     21  C   UNL     1       6.289   4.502  14.711  0.00  0.00    +0.000 A 
ATOM     22  C   UNL     1       7.517   4.618  15.349  0.00  0.00    +0.000 A 
ATOM     23  C   UNL     1       7.585   4.644  16.740  0.00  0.00    +0.000 A 
ATOM     24  C   UNL     1       6.422   4.562  17.521  0.00  0.00    +0.000 A 
ATOM     25  C   UNL     1       5.153   4.481  16.913  0.00  0.00    +0.000 A 
ATOM     26  C   UNL     1       5.114   4.454  15.494  0.00  0.00    +0.000 A 
BRANCH  21  28
ATOM     27  C   UNL     1       5.801   3.364  12.652  0.00  0.00    +0.000 C 
ATOM     28  O   UNL     1       6.387   4.458  13.347  0.00  0.00    +0.000 OA
ENDBRANCH  21  28
ENDBRANCH  20  25
ENDBRANCH   1  20
BRANCH   1  29
ATOM     29  C   UNL     1       1.436   4.762  17.868  0.00  0.00    +0.000 C 
BRANCH  29  30
ATOM     30  C   UNL     1       1.203   3.344  18.436  0.00  0.00    +0.000 C 
BRANCH  30  31
ATOM     31  N   UNL     1       1.088   3.119  19.894  0.00  0.00    +0.000 NA
ATOM     32  C   UNL     1       2.212   2.402  20.492  0.00  0.00    +0.000 C 
ATOM     33  C   UNL     1       0.970   4.434  20.546  0.00  0.00    +0.000 C 
ENDBRANCH  30  31
ENDBRANCH  29  30
ENDBRANCH   1  29
TORSDOF 8
ENDMDL
MODEL 7
REMARK VINA RESULT:      -7.2      3.610      8.877
REMARK  Name = 
REMARK  12 active torsions:
REMARK  status: ('A' for Active; 'I' for Inactive)
REMARK    1  A    between atoms: C_1  and  O_2
REMARK    2  A    between atoms: O_2  and  C_3
REMARK    3  A    between atoms: C_7  and  C_8
REMARK    4  A    between atoms: C_8  and  N_9
REMARK    5  A    between atoms: N_9  and  C_10
REMARK    6  A    between atoms: C_10  and  C_11
REMARK    7  A    between atoms: C_11  and  N_12
REMARK    8  A    between atoms: N_12  and  C_13
REMARK    9  A    between atoms: N_12  and  C_14
REMARK   10  A    between atoms: C_15  and  C_17
REMARK   11  A    between atoms: N_19  and  C_20
REMARK   12  A    between atoms: C_23  and  C_24
REMARK                            x       y       z     vdW  Elec       q    Type
REMARK                         _______ _______ _______ _____ _____    ______ ____
ROOT
ATOM      1  N   UNL     1      -0.856  13.092  19.316  0.00  0.00    +0.000 N 
ATOM      2  C   UNL     1      -0.110  12.333  20.252  0.00  0.00    +0.000 C 
ATOM      3  O   UNL     1       0.170  12.916  21.302  0.00  0.00    +0.000 OA
ENDROOT
BRANCH   2   4
ATOM      4  C   UNL     1       0.372  10.889  20.152  0.00  0.00    +0.000 A 
ATOM      5  C   UNL     1      -0.068  10.086  21.221  0.00  0.00    +0.000 A 
ATOM      6  N   UNL     1       0.894   9.143  21.395  0.00  0.00    +0.000 N 
ATOM      7  C   UNL     1       1.728   9.027  22.575  0.00  0.00    +0.000 C 
ATOM      8  C   UNL     1       1.302   8.749  20.158  0.00  0.00    +0.000 A 
ATOM      9  C   UNL     1       1.862   7.516  19.784  0.00  0.00    +0.000 A 
ATOM     10  C   UNL     1       2.386   7.351  18.511  0.00  0.00    +0.000 A 
ATOM     11  C   UNL     1       2.465   8.511  17.726  0.00  0.00    +0.000 A 
ATOM     12  C   UNL     1       1.909   9.785  18.139  0.00  0.00    +0.000 A 
ATOM     13  C   UNL     1       1.187   9.911  19.362  0.00  0.00    +0.000 A 
BRANCH  10  14
ATOM     14  C   UNL     1       2.821   6.011  18.068  0.00  0.00    +0.000 A 
ATOM     15  C   UNL     1       4.044   5.511  17.565  0.00  0.00    +0.000 A 
ATOM     16  N   UNL     1       4.004   4.208  17.242  0.00  0.00    +0.000 NA
ATOM     17  N   UNL     1       2.744   3.853  17.528  0.00  0.00    +0.000 N 
ATOM     18  C   UNL     1       2.001   4.888  18.028  0.00  0.00    +0.000 A 
ATOM     19  H   UNL     1       2.456   2.900  17.356  0.00  0.00    +0.000 HD
ENDBRANCH  10  14
ENDBRANCH   2   4
BRANCH   1  20
ATOM     20  C   UNL     1      -1.023  14.560  19.555  0.00  0.00    +0.000 C 
BRANCH  20  25
ATOM     21  C   UNL     1       2.154  16.439  18.354  0.00  0.00    +0.000 A 
ATOM     22  C   UNL     1       1.598  17.596  17.825  0.00  0.00    +0.000 A 
ATOM     23  C   UNL     1       0.216  17.768  17.811  0.00  0.00    +0.000 A 
ATOM     24  C   UNL     1      -0.640  16.778  18.320  0.00  0.00    +0.000 A 
ATOM     25  C   UNL     1      -0.119  15.573  18.830  0.00  0.00    +0.000 A 
ATOM     26  C   UNL     1       1.294  15.425  18.835  0.00  0.00    +0.000 A 
BRANCH  21  28
ATOM     27  C   UNL     1       4.187  15.362  17.663  0.00  0.00    +0.000 C 
ATOM     28  O   UNL     1       3.522  16.429  18.327  0.00  0.00    +0.000 OA
ENDBRANCH  21  28
ENDBRANCH  20  25
ENDBRANCH   1  20
BRANCH   1  29
ATOM     29  C   UNL     1      -1.082  12.620  17.951  0.00  0.00    +0.000 C 
BRANCH  29  30
ATOM     30  C   UNL     1      -2.140  11.509  17.766  0.00  0.00    +0.000 C 
BRANCH  30  31
ATOM     31  N   UNL     1      -2.997  11.470  16.561  0.00  0.00    +0.000 NA
ATOM     32  C   UNL     1      -2.733  10.351  15.658  0.00  0.00    +0.000 C 
ATOM     33  C   UNL     1      -4.399  11.392  17.005  0.00  0.00    +0.000 C 
ENDBRANCH  30  31
ENDBRANCH  29  30
ENDBRANCH   1  29
TORSDOF 8
ENDMDL
MODEL 8
REMARK VINA RESULT:      -7.2      1.787      2.323
REMARK  Name = 
REMARK  12 active torsions:
REMARK  status: ('A' for Active; 'I' for Inactive)
REMARK    1  A    between atoms: C_1  and  O_2
REMARK    2  A    between atoms: O_2  and  C_3
REMARK    3  A    between atoms: C_7  and  C_8
REMARK    4  A    between atoms: C_8  and  N_9
REMARK    5  A    between atoms: N_9  and  C_10
REMARK    6  A    between atoms: C_10  and  C_11
REMARK    7  A    between atoms: C_11  and  N_12
REMARK    8  A    between atoms: N_12  and  C_13
REMARK    9  A    between atoms: N_12  and  C_14
REMARK   10  A    between atoms: C_15  and  C_17
REMARK   11  A    between atoms: N_19  and  C_20
REMARK   12  A    between atoms: C_23  and  C_24
REMARK                            x       y       z     vdW  Elec       q    Type
REMARK                         _______ _______ _______ _____ _____    ______ ____
ROOT
ATOM      1  N   UNL     1       2.484   6.732  18.489  0.00  0.00    +0.000 N 
ATOM      2  C   UNL     1       2.134   8.068  18.169  0.00  0.00    +0.000 C 
ATOM      3  O   UNL     1       2.610   8.502  17.117  0.00  0.00    +0.000 OA
ENDROOT
BRANCH   2   4
ATOM      4  C   UNL     1       1.231   9.033  18.933  0.00  0.00    +0.000 A 
ATOM      5  C   UNL     1       1.637   9.226  20.267  0.00  0.00    +0.000 A 
ATOM      6  N   UNL     1       0.500   9.486  20.964  0.00  0.00    +0.000 N 
ATOM      7  C   UNL     1      -0.046   8.627  21.996  0.00  0.00    +0.000 C 
ATOM      8  C   UNL     1      -0.271  10.299  20.191  0.00  0.00    +0.000 A 
ATOM      9  C   UNL     1      -1.244  11.221  20.610  0.00  0.00    +0.000 A 
ATOM     10  C   UNL     1      -2.062  11.837  19.675  0.00  0.00    +0.000 A 
ATOM     11  C   UNL     1      -1.963  11.355  18.362  0.00  0.00    +0.000 A 
ATOM     12  C   UNL     1      -0.973  10.378  17.951  0.00  0.00    +0.000 A 
ATOM     13  C   UNL     1       0.006   9.893  18.866  0.00  0.00    +0.000 A 
BRANCH  10  14
ATOM     14  C   UNL     1      -2.966  12.925  20.100  0.00  0.00    +0.000 A 
ATOM     15  C   UNL     1      -4.373  13.064  20.104  0.00  0.00    +0.000 A 
ATOM     16  N   UNL     1      -4.798  14.258  20.551  0.00  0.00    +0.000 NA
ATOM     17  N   UNL     1      -3.661  14.908  20.833  0.00  0.00    +0.000 N 
ATOM     18  C   UNL     1      -2.543  14.157  20.589  0.00  0.00    +0.000 A 
ATOM     19  H   UNL     1      -3.715  15.855  21.183  0.00  0.00    +0.000 HD
ENDBRANCH  10  14
ENDBRANCH   2   4
BRANCH   1  20
ATOM     20  C   UNL     1       3.559   6.063  17.690  0.00  0.00    +0.000 C 
BRANCH  20  25
ATOM     21  C   UNL     1       7.217   7.358  17.702  0.00  0.00    +0.000 A 
ATOM     22  C   UNL     1       7.844   6.390  18.476  0.00  0.00    +0.000 A 
ATOM     23  C   UNL     1       7.104   5.347  19.029  0.00  0.00    +0.000 A 
ATOM     24  C   UNL     1       5.718   5.258  18.824  0.00  0.00    +0.000 A 
ATOM     25  C   UNL     1       5.038   6.240  18.077  0.00  0.00    +0.000 A 
ATOM     26  C   UNL     1       5.817   7.290  17.523  0.00  0.00    +0.000 A 
BRANCH  21  28
ATOM     27  C   UNL     1       8.427   9.409  18.018  0.00  0.00    +0.000 C 
ATOM     28  O   UNL     1       8.079   8.297  17.203  0.00  0.00    +0.000 OA
ENDBRANCH  21  28
ENDBRANCH  20  25
ENDBRANCH   1  20
BRANCH   1  29
ATOM     29  C   UNL     1       2.177   6.148  19.793  0.00  0.00    +0.000 C 
BRANCH  29  30
ATOM     30  C   UNL     1       1.745   4.664  19.806  0.00  0.00    +0.000 C 
BRANCH  30  31
ATOM     31  N   UNL     1       2.473   3.669  20.623  0.00  0.00    +0.000 NA
ATOM     32  C   UNL     1       1.637   2.919  21.559  0.00  0.00    +0.000 C 
ATOM     33  C   UNL     1       3.120   2.716  19.706  0.00  0.00    +0.000 C 
ENDBRANCH  30  31
ENDBRANCH  29  30
ENDBRANCH   1  29
TORSDOF 8
ENDMDL
MODEL 9
REMARK VINA RESULT:      -7.1      3.386      5.487
REMARK  Name = 
REMARK  12 active torsions:
REMARK  status: ('A' for Active; 'I' for Inactive)
REMARK    1  A    between atoms: C_1  and  O_2
REMARK    2  A    between atoms: O_2  and  C_3
REMARK    3  A    between atoms: C_7  and  C_8
REMARK    4  A    between atoms: C_8  and  N_9
REMARK    5  A    between atoms: N_9  and  C_10
REMARK    6  A    between atoms: C_10  and  C_11
REMARK    7  A    between atoms: C_11  and  N_12
REMARK    8  A    between atoms: N_12  and  C_13
REMARK    9  A    between atoms: N_12  and  C_14
REMARK   10  A    between atoms: C_15  and  C_17
REMARK   11  A    between atoms: N_19  and  C_20
REMARK   12  A    between atoms: C_23  and  C_24
REMARK                            x       y       z     vdW  Elec       q    Type
REMARK                         _______ _______ _______ _____ _____    ______ ____
ROOT
ATOM      1  N   UNL     1       5.197   4.672  16.745  0.00  0.00    +0.000 N 
ATOM      2  C   UNL     1       4.317   4.384  17.818  0.00  0.00    +0.000 C 
ATOM      3  O   UNL     1       4.187   3.188  18.090  0.00  0.00    +0.000 OA
ENDROOT
BRANCH   2   4
ATOM      4  C   UNL     1       3.528   5.350  18.698  0.00  0.00    +0.000 A 
ATOM      5  C   UNL     1       3.367   4.885  20.017  0.00  0.00    +0.000 A 
ATOM      6  N   UNL     1       2.186   5.401  20.448  0.00  0.00    +0.000 N 
ATOM      7  C   UNL     1       1.015   4.612  20.776  0.00  0.00    +0.000 C 
ATOM      8  C   UNL     1       2.113   6.680  19.991  0.00  0.00    +0.000 A 
ATOM      9  C   UNL     1       1.397   7.756  20.542  0.00  0.00    +0.000 A 
ATOM     10  C   UNL     1       1.292   8.948  19.842  0.00  0.00    +0.000 A 
ATOM     11  C   UNL     1       1.783   8.934  18.528  0.00  0.00    +0.000 A 
ATOM     12  C   UNL     1       2.493   7.803  17.962  0.00  0.00    +0.000 A 
ATOM     13  C   UNL     1       2.784   6.649  18.747  0.00  0.00    +0.000 A 
BRANCH  10  14
ATOM     14  C   UNL     1       0.683  10.126  20.494  0.00  0.00    +0.000 A 
ATOM     15  C   UNL     1       0.629  11.497  20.153  0.00  0.00    +0.000 A 
ATOM     16  N   UNL     1      -0.008  12.256  21.059  0.00  0.00    +0.000 NA
ATOM     17  N   UNL     1      -0.366  11.377  22.006  0.00  0.00    +0.000 N 
ATOM     18  C   UNL     1       0.016  10.095  21.714  0.00  0.00    +0.000 A 
ATOM     19  H   UNL     1      -0.861  11.714  22.820  0.00  0.00    +0.000 HD
ENDBRANCH  10  14
ENDBRANCH   2   4
BRANCH   1  20
ATOM     20  C   UNL     1       5.687   3.540  15.897  0.00  0.00    +0.000 C 
BRANCH  20  25
ATOM     21  C   UNL     1       7.714   5.189  13.029  0.00  0.00    +0.000 A 
ATOM     22  C   UNL     1       7.130   4.603  11.914  0.00  0.00    +0.000 A 
ATOM     23  C   UNL     1       6.120   3.655  12.068  0.00  0.00    +0.000 A 
ATOM     24  C   UNL     1       5.681   3.269  13.344  0.00  0.00    +0.000 A 
ATOM     25  C   UNL     1       6.274   3.811  14.501  0.00  0.00    +0.000 A 
ATOM     26  C   UNL     1       7.298   4.777  14.315  0.00  0.00    +0.000 A 
BRANCH  21  28
ATOM     27  C   UNL     1       8.559   6.825  11.486  0.00  0.00    +0.000 C 
ATOM     28  O   UNL     1       8.666   6.122  12.717  0.00  0.00    +0.000 OA
ENDBRANCH  21  28
ENDBRANCH  20  25
ENDBRANCH   1  20
BRANCH   1  29
ATOM     29  C   UNL     1       5.294   6.011  16.169  0.00  0.00    +0.000 C 
BRANCH  29  30
ATOM     30  C   UNL     1       5.935   7.104  17.054  0.00  0.00    +0.000 C 
BRANCH  30  31
ATOM     31  N   UNL     1       7.395   7.128  17.294  0.00  0.00    +0.000 NA
ATOM     32  C   UNL     1       7.943   8.449  17.595  0.00  0.00    +0.000 C 
ATOM     33  C   UNL     1       7.681   6.233  18.428  0.00  0.00    +0.000 C 
ENDBRANCH  30  31
ENDBRANCH  29  30
ENDBRANCH   1  29
TORSDOF 8
ENDMDL
