MODEL 1
REMARK VINA RESULT:      -7.2      0.000      0.000
REMARK  Name = 
REMARK  3 active torsions:
REMARK  status: ('A' for Active; 'I' for Inactive)
REMARK    1  A    between atoms: N_2  and  C_4
REMARK    2  A    between atoms: C_7  and  C_8
REMARK    3  A    between atoms: C_11  and  C_12
REMARK                            x       y       z     vdW  Elec       q    Type
REMARK                         _______ _______ _______ _____ _____    ______ ____
ROOT
ATOM      1  C   UNL     1       5.647   4.322  17.237  0.00  0.00    +0.000 A 
ATOM      2  N   UNL     1       6.390   4.441  18.320  0.00  0.00    +0.000 NA
ATOM      3  N   UNL     1       5.542   4.294  19.397  0.00  0.00    +0.000 NA
ATOM      4  C   UNL     1       4.330   4.089  18.909  0.00  0.00    +0.000 A 
ATOM      5  O   UNL     1       4.330   4.102  17.535  0.00  0.00    +0.000 OA
ENDROOT
BRANCH   1   9
ATOM      6  C   UNL     1       6.633   4.188  13.712  0.00  0.00    +0.000 A 
ATOM      7  C   UNL     1       7.455   5.167  14.242  0.00  0.00    +0.000 A 
ATOM      8  N   UNL     1       7.149   5.302  15.572  0.00  0.00    +0.000 N 
ATOM      9  C   UNL     1       6.160   4.408  15.911  0.00  0.00    +0.000 A 
ATOM     10  C   UNL     1       5.822   3.701  14.775  0.00  0.00    +0.000 A 
ATOM     11  H   UNL     1       7.576   5.954  16.219  0.00  0.00    +0.000 HD
BRANCH   6  13
ATOM     12  O   UNL     1       5.826   2.854  12.036  0.00  0.00    +0.000 OA
ATOM     13  N   UNL     1       6.613   3.760  12.335  0.00  0.00    +0.000 N 
ATOM     14  O   UNL     1       7.392   4.334  11.564  0.00  0.00    +0.000 OA
ENDBRANCH   6  13
ENDBRANCH   1   9
BRANCH   4  15
ATOM     15  C   UNL     1       3.165   3.871  19.716  0.00  0.00    +0.000 A 
ATOM     16  C   UNL     1       1.985   4.590  19.691  0.00  0.00    +0.000 A 
ATOM     17  C   UNL     1       1.030   4.105  20.631  0.00  0.00    +0.000 A 
ATOM     18  C   UNL     1       1.514   3.034  21.348  0.00  0.00    +0.000 A 
ATOM     19  S   UNL     1       3.105   2.618  20.883  0.00  0.00    +0.000 S 
ENDBRANCH   4  15
TORSDOF 3
ENDMDL
MODEL 2
REMARK VINA RESULT:      -7.1      0.806      1.014
REMARK  Name = 
REMARK  3 active torsions:
REMARK  status: ('A' for Active; 'I' for Inactive)
REMARK    1  A    between atoms: N_2  and  C_4
REMARK    2  A    between atoms: C_7  and  C_8
REMARK    3  A    between atoms: C_11  and  C_12
REMARK                            x       y       z     vdW  Elec       q    Type
REMARK                         _______ _______ _______ _____ _____    ______ ____
ROOT
ATOM      1  C   UNL     1       5.870   4.352  17.239  0.00  0.00    +0.000 A 
ATOM      2  N   UNL     1       6.657   4.596  18.269  0.00  0.00    +0.000 NA
ATOM      3  N   UNL     1       5.891   4.420  19.401  0.00  0.00    +0.000 NA
ATOM      4  C   UNL     1       4.680   4.074  18.998  0.00  0.00    +0.000 A 
ATOM      5  O   UNL     1       4.600   4.019  17.627  0.00  0.00    +0.000 OA
ENDROOT
BRANCH   1   9
ATOM      6  C   UNL     1       6.623   4.177  13.659  0.00  0.00    +0.000 A 
ATOM      7  C   UNL     1       7.478   5.163  14.123  0.00  0.00    +0.000 A 
ATOM      8  N   UNL     1       7.259   5.312  15.469  0.00  0.00    +0.000 N 
ATOM      9  C   UNL     1       6.295   4.423  15.882  0.00  0.00    +0.000 A 
ATOM     10  C   UNL     1       5.884   3.703  14.778  0.00  0.00    +0.000 A 
ATOM     11  H   UNL     1       7.727   5.972  16.079  0.00  0.00    +0.000 HD
BRANCH   6  13
ATOM     12  O   UNL     1       5.624   2.914  12.033  0.00  0.00    +0.000 OA
ATOM     13  N   UNL     1       6.514   3.734  12.291  0.00  0.00    +0.000 N 
ATOM     14  O   UNL     1       7.324   4.209  11.487  0.00  0.00    +0.000 OA
ENDBRANCH   6  13
ENDBRANCH   1   9
BRANCH   4  15
ATOM     15  C   UNL     1       3.590   3.783  19.883  0.00  0.00    +0.000 A 
ATOM     16  C   UNL     1       3.359   2.602  20.563  0.00  0.00    +0.000 A 
ATOM     17  C   UNL     1       2.177   2.653  21.359  0.00  0.00    +0.000 A 
ATOM     18  C   UNL     1       1.540   3.869  21.255  0.00  0.00    +0.000 A 
ATOM     19  S   UNL     1       2.369   4.939  20.211  0.00  0.00    +0.000 S 
ENDBRANCH   4  15
TORSDOF 3
ENDMDL
MODEL 3
REMARK VINA RESULT:      -6.9      1.146      1.539
REMARK  Name = 
REMARK  3 active torsions:
REMARK  status: ('A' for Active; 'I' for Inactive)
REMARK    1  A    between atoms: N_2  and  C_4
REMARK    2  A    between atoms: C_7  and  C_8
REMARK    3  A    between atoms: C_11  and  C_12
REMARK                            x       y       z     vdW  Elec       q    Type
REMARK                         _______ _______ _______ _____ _____    ______ ____
ROOT
ATOM      1  C   UNL     1       5.596   4.273  17.207  0.00  0.00    +0.000 A 
ATOM      2  N   UNL     1       6.362   4.418  18.269  0.00  0.00    +0.000 NA
ATOM      3  N   UNL     1       5.544   4.266  19.369  0.00  0.00    +0.000 NA
ATOM      4  C   UNL     1       4.326   4.032  18.914  0.00  0.00    +0.000 A 
ATOM      5  O   UNL     1       4.291   4.029  17.540  0.00  0.00    +0.000 OA
ENDROOT
BRANCH   1   9
ATOM      6  C   UNL     1       7.137   4.836  13.932  0.00  0.00    +0.000 A 
ATOM      7  C   UNL     1       6.208   3.840  13.686  0.00  0.00    +0.000 A 
ATOM      8  N   UNL     1       5.580   3.547  14.870  0.00  0.00    +0.000 N 
ATOM      9  C   UNL     1       6.073   4.355  15.868  0.00  0.00    +0.000 A 
ATOM     10  C   UNL     1       7.041   5.168  15.312  0.00  0.00    +0.000 A 
ATOM     11  H   UNL     1       4.861   2.846  15.006  0.00  0.00    +0.000 HD
BRANCH   6  13
ATOM     12  O   UNL     1       9.006   6.040  13.388  0.00  0.00    +0.000 OA
ATOM     13  N   UNL     1       8.031   5.412  12.958  0.00  0.00    +0.000 N 
ATOM     14  O   UNL     1       7.746   5.233  11.768  0.00  0.00    +0.000 OA
ENDBRANCH   6  13
ENDBRANCH   1   9
BRANCH   4  15
ATOM     15  C   UNL     1       3.185   3.800  19.752  0.00  0.00    +0.000 A 
ATOM     16  C   UNL     1       2.002   4.513  19.769  0.00  0.00    +0.000 A 
ATOM     17  C   UNL     1       1.077   4.013  20.731  0.00  0.00    +0.000 A 
ATOM     18  C   UNL     1       1.587   2.936  21.422  0.00  0.00    +0.000 A 
ATOM     19  S   UNL     1       3.166   2.533  20.906  0.00  0.00    +0.000 S 
ENDBRANCH   4  15
TORSDOF 3
ENDMDL
MODEL 4
REMARK VINA RESULT:      -6.8      3.002      7.264
REMARK  Name = 
REMARK  3 active torsions:
REMARK  status: ('A' for Active; 'I' for Inactive)
REMARK    1  A    between atoms: N_2  and  C_4
REMARK    2  A    between atoms: C_7  and  C_8
REMARK    3  A    between atoms: C_11  and  C_12
REMARK                            x       y       z     vdW  Elec       q    Type
REMARK                         _______ _______ _______ _____ _____    ______ ____
ROOT
ATOM      1  C   UNL     1       5.720   4.054  17.891  0.00  0.00    +0.000 A 
ATOM      2  N   UNL     1       6.893   4.597  18.149  0.00  0.00    +0.000 NA
ATOM      3  N   UNL     1       7.488   4.846  16.931  0.00  0.00    +0.000 NA
ATOM      4  C   UNL     1       6.642   4.445  15.998  0.00  0.00    +0.000 A 
ATOM      5  O   UNL     1       5.495   3.924  16.547  0.00  0.00    +0.000 OA
ENDROOT
BRANCH   1   9
ATOM      6  C   UNL     1       3.075   3.435  20.348  0.00  0.00    +0.000 A 
ATOM      7  C   UNL     1       3.935   2.364  20.520  0.00  0.00    +0.000 A 
ATOM      8  N   UNL     1       4.965   2.501  19.624  0.00  0.00    +0.000 N 
ATOM      9  C   UNL     1       4.793   3.654  18.895  0.00  0.00    +0.000 A 
ATOM     10  C   UNL     1       3.627   4.256  19.326  0.00  0.00    +0.000 A 
ATOM     11  H   UNL     1       5.740   1.859  19.505  0.00  0.00    +0.000 HD
BRANCH   6  13
ATOM     12  O   UNL     1       1.706   3.041  22.140  0.00  0.00    +0.000 OA
ATOM     13  N   UNL     1       1.849   3.655  21.075  0.00  0.00    +0.000 N 
ATOM     14  O   UNL     1       1.037   4.439  20.570  0.00  0.00    +0.000 OA
ENDBRANCH   6  13
ENDBRANCH   1   9
BRANCH   4  15
ATOM     15  C   UNL     1       6.888   4.552  14.590  0.00  0.00    +0.000 A 
ATOM     16  C   UNL     1       7.799   5.379  13.961  0.00  0.00    +0.000 A 
ATOM     17  C   UNL     1       7.781   5.233  12.543  0.00  0.00    +0.000 A 
ATOM     18  C   UNL     1       6.851   4.302  12.134  0.00  0.00    +0.000 A 
ATOM     19  S   UNL     1       6.015   3.610  13.455  0.00  0.00    +0.000 S 
ENDBRANCH   4  15
TORSDOF 3
ENDMDL
MODEL 5
REMARK VINA RESULT:      -6.7      3.096      7.288
REMARK  Name = 
REMARK  3 active torsions:
REMARK  status: ('A' for Active; 'I' for Inactive)
REMARK    1  A    between atoms: N_2  and  C_4
REMARK    2  A    between atoms: C_7  and  C_8
REMARK    3  A    between atoms: C_11  and  C_12
REMARK                            x       y       z     vdW  Elec       q    Type
REMARK                         _______ _______ _______ _____ _____    ______ ____
ROOT
ATOM      1  C   UNL     1       5.329   4.072  17.625  0.00  0.00    +0.000 A 
ATOM      2  N   UNL     1       6.295   4.964  17.729  0.00  0.00    +0.000 NA
ATOM      3  N   UNL     1       6.823   5.122  16.466  0.00  0.00    +0.000 NA
ATOM      4  C   UNL     1       6.147   4.321  15.662  0.00  0.00    +0.000 A 
ATOM      5  O   UNL     1       5.182   3.618  16.343  0.00  0.00    +0.000 OA
ENDROOT
BRANCH   1   9
ATOM      6  C   UNL     1       2.946   3.304  20.298  0.00  0.00    +0.000 A 
ATOM      7  C   UNL     1       3.973   2.400  20.509  0.00  0.00    +0.000 A 
ATOM      8  N   UNL     1       4.920   2.602  19.537  0.00  0.00    +0.000 N 
ATOM      9  C   UNL     1       4.530   3.637  18.721  0.00  0.00    +0.000 A 
ATOM     10  C   UNL     1       3.308   4.094  19.172  0.00  0.00    +0.000 A 
ATOM     11  H   UNL     1       5.780   2.078  19.425  0.00  0.00    +0.000 HD
BRANCH   6  13
ATOM     12  O   UNL     1       1.726   2.826  22.175  0.00  0.00    +0.000 OA
ATOM     13  N   UNL     1       1.739   3.404  21.081  0.00  0.00    +0.000 N 
ATOM     14  O   UNL     1       0.812   4.060  20.591  0.00  0.00    +0.000 OA
ENDBRANCH   6  13
ENDBRANCH   1   9
BRANCH   4  15
ATOM     15  C   UNL     1       6.385   4.208  14.252  0.00  0.00    +0.000 A 
ATOM     16  C   UNL     1       5.692   3.428  13.348  0.00  0.00    +0.000 A 
ATOM     17  C   UNL     1       6.196   3.551  12.020  0.00  0.00    +0.000 A 
ATOM     18  C   UNL     1       7.264   4.418  11.955  0.00  0.00    +0.000 A 
ATOM     19  S   UNL     1       7.646   5.079  13.485  0.00  0.00    +0.000 S 
ENDBRANCH   4  15
TORSDOF 3
ENDMDL
MODEL 6
REMARK VINA RESULT:      -6.7      0.909      1.169
REMARK  Name = 
REMARK  3 active torsions:
REMARK  status: ('A' for Active; 'I' for Inactive)
REMARK    1  A    between atoms: N_2  and  C_4
REMARK    2  A    between atoms: C_7  and  C_8
REMARK    3  A    between atoms: C_11  and  C_12
REMARK                            x       y       z     vdW  Elec       q    Type
REMARK                         _______ _______ _______ _____ _____    ______ ____
ROOT
ATOM      1  C   UNL     1       5.009   5.007  16.892  0.00  0.00    +0.000 A 
ATOM      2  N   UNL     1       4.952   6.149  17.548  0.00  0.00    +0.000 NA
ATOM      3  N   UNL     1       4.157   5.930  18.653  0.00  0.00    +0.000 NA
ATOM      4  C   UNL     1       3.778   4.665  18.611  0.00  0.00    +0.000 A 
ATOM      5  O   UNL     1       4.284   4.022  17.506  0.00  0.00    +0.000 OA
ENDROOT
BRANCH   1   9
ATOM      6  C   UNL     1       6.502   4.266  13.631  0.00  0.00    +0.000 A 
ATOM      7  C   UNL     1       7.468   5.029  14.264  0.00  0.00    +0.000 A 
ATOM      8  N   UNL     1       6.990   5.371  15.504  0.00  0.00    +0.000 N 
ATOM      9  C   UNL     1       5.743   4.821  15.686  0.00  0.00    +0.000 A 
ATOM     10  C   UNL     1       5.416   4.126  14.539  0.00  0.00    +0.000 A 
ATOM     11  H   UNL     1       7.470   5.941  16.191  0.00  0.00    +0.000 HD
BRANCH   6  13
ATOM     12  O   UNL     1       7.416   4.254  11.532  0.00  0.00    +0.000 OA
ATOM     13  N   UNL     1       6.596   3.729  12.296  0.00  0.00    +0.000 N 
ATOM     14  O   UNL     1       5.843   2.787  12.022  0.00  0.00    +0.000 OA
ENDBRANCH   6  13
ENDBRANCH   1   9
BRANCH   4  15
ATOM     15  C   UNL     1       2.950   4.040  19.601  0.00  0.00    +0.000 A 
ATOM     16  C   UNL     1       1.678   4.416  19.984  0.00  0.00    +0.000 A 
ATOM     17  C   UNL     1       1.142   3.573  21.003  0.00  0.00    +0.000 A 
ATOM     18  C   UNL     1       2.028   2.584  21.368  0.00  0.00    +0.000 A 
ATOM     19  S   UNL     1       3.487   2.671  20.483  0.00  0.00    +0.000 S 
ENDBRANCH   4  15
TORSDOF 3
ENDMDL
MODEL 7
REMARK VINA RESULT:      -6.5      3.081      7.272
REMARK  Name = 
REMARK  3 active torsions:
REMARK  status: ('A' for Active; 'I' for Inactive)
REMARK    1  A    between atoms: N_2  and  C_4
REMARK    2  A    between atoms: C_7  and  C_8
REMARK    3  A    between atoms: C_11  and  C_12
REMARK                            x       y       z     vdW  Elec       q    Type
REMARK                         _______ _______ _______ _____ _____    ______ ____
ROOT
ATOM      1  C   UNL     1       5.398   4.386  17.574  0.00  0.00    +0.000 A 
ATOM      2  N   UNL     1       6.680   4.617  17.772  0.00  0.00    +0.000 NA
ATOM      3  N   UNL     1       7.284   4.580  16.533  0.00  0.00    +0.000 NA
ATOM      4  C   UNL     1       6.333   4.334  15.649  0.00  0.00    +0.000 A 
ATOM      5  O   UNL     1       5.106   4.193  16.251  0.00  0.00    +0.000 OA
ENDROOT
BRANCH   1   9
ATOM      6  C   UNL     1       2.984   3.792  20.264  0.00  0.00    +0.000 A 
ATOM      7  C   UNL     1       2.934   5.162  20.080  0.00  0.00    +0.000 A 
ATOM      8  N   UNL     1       3.824   5.488  19.089  0.00  0.00    +0.000 N 
ATOM      9  C   UNL     1       4.428   4.347  18.616  0.00  0.00    +0.000 A 
ATOM     10  C   UNL     1       3.923   3.277  19.327  0.00  0.00    +0.000 A 
ATOM     11  H   UNL     1       4.018   6.422  18.746  0.00  0.00    +0.000 HD
BRANCH   6  13
ATOM     12  O   UNL     1       2.861   2.384  22.066  0.00  0.00    +0.000 OA
ATOM     13  N   UNL     1       2.224   3.044  21.235  0.00  0.00    +0.000 N 
ATOM     14  O   UNL     1       0.992   3.122  21.155  0.00  0.00    +0.000 OA
ENDBRANCH   6  13
ENDBRANCH   1   9
BRANCH   4  15
ATOM     15  C   UNL     1       6.556   4.236  14.235  0.00  0.00    +0.000 A 
ATOM     16  C   UNL     1       5.910   3.401  13.344  0.00  0.00    +0.000 A 
ATOM     17  C   UNL     1       6.381   3.560  12.007  0.00  0.00    +0.000 A 
ATOM     18  C   UNL     1       7.377   4.508  11.923  0.00  0.00    +0.000 A 
ATOM     19  S   UNL     1       7.731   5.201  13.445  0.00  0.00    +0.000 S 
ENDBRANCH   4  15
TORSDOF 3
ENDMDL
MODEL 8
REMARK VINA RESULT:      -6.5      1.763      1.992
REMARK  Name = 
REMARK  3 active torsions:
REMARK  status: ('A' for Active; 'I' for Inactive)
REMARK    1  A    between atoms: N_2  and  C_4
REMARK    2  A    between atoms: C_7  and  C_8
REMARK    3  A    between atoms: C_11  and  C_12
REMARK                            x       y       z     vdW  Elec       q    Type
REMARK                         _______ _______ _______ _____ _____    ______ ____
ROOT
ATOM      1  C   UNL     1       5.280   5.531  15.880  0.00  0.00    +0.000 A 
ATOM      2  N   UNL     1       5.472   6.786  16.237  0.00  0.00    +0.000 NA
ATOM      3  N   UNL     1       4.755   6.979  17.398  0.00  0.00    +0.000 NA
ATOM      4  C   UNL     1       4.171   5.830  17.687  0.00  0.00    +0.000 A 
ATOM      5  O   UNL     1       4.462   4.866  16.752  0.00  0.00    +0.000 OA
ENDROOT
BRANCH   1   9
ATOM      6  C   UNL     1       6.374   3.709  12.896  0.00  0.00    +0.000 A 
ATOM      7  C   UNL     1       7.384   4.633  13.101  0.00  0.00    +0.000 A 
ATOM      8  N   UNL     1       7.056   5.381  14.203  0.00  0.00    +0.000 N 
ATOM      9  C   UNL     1       5.862   4.938  14.724  0.00  0.00    +0.000 A 
ATOM     10  C   UNL     1       5.417   3.898  13.933  0.00  0.00    +0.000 A 
ATOM     11  H   UNL     1       7.598   6.146  14.587  0.00  0.00    +0.000 HD
BRANCH   6  13
ATOM     12  O   UNL     1       7.392   2.389  11.328  0.00  0.00    +0.000 OA
ATOM     13  N   UNL     1       6.316   2.749  11.822  0.00  0.00    +0.000 N 
ATOM     14  O   UNL     1       5.191   2.365  11.480  0.00  0.00    +0.000 OA
ENDBRANCH   6  13
ENDBRANCH   1   9
BRANCH   4  15
ATOM     15  C   UNL     1       3.344   5.614  18.839  0.00  0.00    +0.000 A 
ATOM     16  C   UNL     1       2.506   6.528  19.448  0.00  0.00    +0.000 A 
ATOM     17  C   UNL     1       1.831   5.981  20.578  0.00  0.00    +0.000 A 
ATOM     18  C   UNL     1       2.181   4.667  20.799  0.00  0.00    +0.000 A 
ATOM     19  S   UNL     1       3.309   4.103  19.646  0.00  0.00    +0.000 S 
ENDBRANCH   4  15
TORSDOF 3
ENDMDL
MODEL 9
REMARK VINA RESULT:      -6.5      3.386      3.921
REMARK  Name = 
REMARK  3 active torsions:
REMARK  status: ('A' for Active; 'I' for Inactive)
REMARK    1  A    between atoms: N_2  and  C_4
REMARK    2  A    between atoms: C_7  and  C_8
REMARK    3  A    between atoms: C_11  and  C_12
REMARK                            x       y       z     vdW  Elec       q    Type
REMARK                         _______ _______ _______ _____ _____    ______ ____
ROOT
ATOM      1  C   UNL     1       4.196   5.957  18.068  0.00  0.00    +0.000 A 
ATOM      2  N   UNL     1       3.742   5.263  19.093  0.00  0.00    +0.000 NA
ATOM      3  N   UNL     1       2.782   6.043  19.703  0.00  0.00    +0.000 NA
ATOM      4  C   UNL     1       2.702   7.167  19.012  0.00  0.00    +0.000 A 
ATOM      5  O   UNL     1       3.584   7.177  17.958  0.00  0.00    +0.000 OA
ENDROOT
BRANCH   1   9
ATOM      6  C   UNL     1       6.515   4.966  15.412  0.00  0.00    +0.000 A 
ATOM      7  C   UNL     1       7.104   4.467  16.561  0.00  0.00    +0.000 A 
ATOM      8  N   UNL     1       6.306   4.803  17.625  0.00  0.00    +0.000 N 
ATOM      9  C   UNL     1       5.203   5.489  17.177  0.00  0.00    +0.000 A 
ATOM     10  C   UNL     1       5.304   5.602  15.805  0.00  0.00    +0.000 A 
ATOM     11  H   UNL     1       6.489   4.586  18.598  0.00  0.00    +0.000 HD
BRANCH   6  13
ATOM     12  O   UNL     1       7.989   5.605  13.781  0.00  0.00    +0.000 OA
ATOM     13  N   UNL     1       7.049   4.856  14.077  0.00  0.00    +0.000 N 
ATOM     14  O   UNL     1       6.518   4.023  13.333  0.00  0.00    +0.000 OA
ENDBRANCH   6  13
ENDBRANCH   1   9
BRANCH   4  15
ATOM     15  C   UNL     1       1.799   8.238  19.320  0.00  0.00    +0.000 A 
ATOM     16  C   UNL     1       1.196   8.498  20.535  0.00  0.00    +0.000 A 
ATOM     17  C   UNL     1       0.350   9.645  20.490  0.00  0.00    +0.000 A 
ATOM     18  C   UNL     1       0.330  10.220  19.239  0.00  0.00    +0.000 A 
ATOM     19  S   UNL     1       1.330   9.383  18.134  0.00  0.00    +0.000 S 
ENDBRANCH   4  15
TORSDOF 3
ENDMDL
