MODEL 1
REMARK VINA RESULT:      -7.6      0.000      0.000
REMARK  Name = 
REMARK  4 active torsions:
REMARK  status: ('A' for Active; 'I' for Inactive)
REMARK    1  A    between atoms: C_2  and  C_3
REMARK    2  A    between atoms: C_3  and  C_4
REMARK    3  A    between atoms: C_4  and  S_5
REMARK    4  A    between atoms: S_5  and  C_6
REMARK                            x       y       z     vdW  Elec       q    Type
REMARK                         _______ _______ _______ _____ _____    ______ ____
ROOT
ATOM      1  O   UNL     1       7.715   6.522  16.103  0.00  0.00    +0.000 OA
ATOM      2  C   UNL     1       7.349   6.580  17.277  0.00  0.00    +0.000 C 
ATOM      3  N   UNL     1       6.205   5.927  17.718  0.00  0.00    +0.000 N 
ATOM      4  C   UNL     1       5.771   5.835  19.133  0.00  0.00    +0.000 C 
ATOM      5  C   UNL     1       4.231   5.789  19.274  0.00  0.00    +0.000 C 
ATOM      6  N   UNL     1       3.736   4.725  18.398  0.00  0.00    +0.000 N 
ATOM      7  C   UNL     1       2.669   3.946  18.788  0.00  0.00    +0.000 A 
ATOM      8  C   UNL     1       2.475   2.669  18.244  0.00  0.00    +0.000 A 
ATOM      9  N   UNL     1       1.494   1.805  18.625  0.00  0.00    +0.000 NA
ATOM     10  C   UNL     1       0.694   2.270  19.597  0.00  0.00    +0.000 A 
ATOM     11  C   UNL     1       0.859   3.528  20.154  0.00  0.00    +0.000 A 
ATOM     12  N   UNL     1       1.848   4.375  19.772  0.00  0.00    +0.000 NA
ATOM     13  C   UNL     1       4.034   4.933  16.979  0.00  0.00    +0.000 C 
ATOM     14  C   UNL     1       5.562   4.968  16.807  0.00  0.00    +0.000 C 
ENDROOT
BRANCH   2  15
ATOM     15  C   UNL     1       8.134   7.368  18.304  0.00  0.00    +0.000 C 
BRANCH  15  16
ATOM     16  C   UNL     1       8.175   8.852  17.943  0.00  0.00    +0.000 C 
BRANCH  16  17
ATOM     17  S   UNL     1       9.049   9.757  19.271  0.00  0.00    +0.000 S 
BRANCH  17  18
ATOM     18  C   UNL     1       9.757  11.154  18.407  0.00  0.00    +0.000 A 
ATOM     19  C   UNL     1       8.884  12.190  18.044  0.00  0.00    +0.000 A 
ATOM     20  C   UNL     1       9.365  13.349  17.427  0.00  0.00    +0.000 A 
ATOM     21  C   UNL     1      10.724  13.473  17.179  0.00  0.00    +0.000 A 
ATOM     22  F   UNL     1      11.192  14.589  16.602  0.00  0.00    +0.000 F 
ATOM     23  C   UNL     1      11.608  12.459  17.530  0.00  0.00    +0.000 A 
ATOM     24  C   UNL     1      11.127  11.301  18.148  0.00  0.00    +0.000 A 
ENDBRANCH  17  18
ENDBRANCH  16  17
ENDBRANCH  15  16
ENDBRANCH   2  15
TORSDOF 4
ENDMDL
MODEL 2
REMARK VINA RESULT:      -7.4      5.319      7.468
REMARK  Name = 
REMARK  4 active torsions:
REMARK  status: ('A' for Active; 'I' for Inactive)
REMARK    1  A    between atoms: C_2  and  C_3
REMARK    2  A    between atoms: C_3  and  C_4
REMARK    3  A    between atoms: C_4  and  S_5
REMARK    4  A    between atoms: S_5  and  C_6
REMARK                            x       y       z     vdW  Elec       q    Type
REMARK                         _______ _______ _______ _____ _____    ______ ____
ROOT
ATOM      1  O   UNL     1       2.592   5.291  19.935  0.00  0.00    +0.000 OA
ATOM      2  C   UNL     1       2.618   6.090  18.998  0.00  0.00    +0.000 C 
ATOM      3  N   UNL     1       2.176   7.398  19.142  0.00  0.00    +0.000 N 
ATOM      4  C   UNL     1       2.298   8.455  18.110  0.00  0.00    +0.000 C 
ATOM      5  C   UNL     1       1.132   9.472  18.169  0.00  0.00    +0.000 C 
ATOM      6  N   UNL     1       1.032   9.954  19.547  0.00  0.00    +0.000 N 
ATOM      7  C   UNL     1       0.702  11.267  19.801  0.00  0.00    +0.000 A 
ATOM      8  C   UNL     1       1.052  11.875  21.014  0.00  0.00    +0.000 A 
ATOM      9  N   UNL     1       0.832  13.184  21.318  0.00  0.00    +0.000 NA
ATOM     10  C   UNL     1       0.239  13.886  20.340  0.00  0.00    +0.000 A 
ATOM     11  C   UNL     1      -0.121  13.313  19.130  0.00  0.00    +0.000 A 
ATOM     12  N   UNL     1       0.114  12.010  18.837  0.00  0.00    +0.000 NA
ATOM     13  C   UNL     1       0.740   8.904  20.527  0.00  0.00    +0.000 C 
ATOM     14  C   UNL     1       1.892   7.886  20.501  0.00  0.00    +0.000 C 
ENDROOT
BRANCH   2  15
ATOM     15  C   UNL     1       3.140   5.683  17.636  0.00  0.00    +0.000 C 
BRANCH  15  16
ATOM     16  C   UNL     1       3.413   4.181  17.580  0.00  0.00    +0.000 C 
BRANCH  16  17
ATOM     17  S   UNL     1       4.965   3.898  16.655  0.00  0.00    +0.000 S 
BRANCH  17  18
ATOM     18  C   UNL     1       6.062   5.146  17.316  0.00  0.00    +0.000 A 
ATOM     19  C   UNL     1       6.685   4.864  18.541  0.00  0.00    +0.000 A 
ATOM     20  C   UNL     1       7.609   5.755  19.096  0.00  0.00    +0.000 A 
ATOM     21  C   UNL     1       7.914   6.927  18.420  0.00  0.00    +0.000 A 
ATOM     22  F   UNL     1       8.811   7.777  18.941  0.00  0.00    +0.000 F 
ATOM     23  C   UNL     1       7.309   7.227  17.206  0.00  0.00    +0.000 A 
ATOM     24  C   UNL     1       6.385   6.336  16.650  0.00  0.00    +0.000 A 
ENDBRANCH  17  18
ENDBRANCH  16  17
ENDBRANCH  15  16
ENDBRANCH   2  15
TORSDOF 4
ENDMDL
MODEL 3
REMARK VINA RESULT:      -7.4      6.675      9.687
REMARK  Name = 
REMARK  4 active torsions:
REMARK  status: ('A' for Active; 'I' for Inactive)
REMARK    1  A    between atoms: C_2  and  C_3
REMARK    2  A    between atoms: C_3  and  C_4
REMARK    3  A    between atoms: C_4  and  S_5
REMARK    4  A    between atoms: S_5  and  C_6
REMARK                            x       y       z     vdW  Elec       q    Type
REMARK                         _______ _______ _______ _____ _____    ______ ____
ROOT
ATOM      1  O   UNL     1       2.842   8.362  17.028  0.00  0.00    +0.000 OA
ATOM      2  C   UNL     1       2.546   8.020  18.174  0.00  0.00    +0.000 C 
ATOM      3  N   UNL     1       1.752   8.817  18.990  0.00  0.00    +0.000 N 
ATOM      4  C   UNL     1       1.240   8.421  20.324  0.00  0.00    +0.000 C 
ATOM      5  C   UNL     1       1.099   9.629  21.281  0.00  0.00    +0.000 C 
ATOM      6  N   UNL     1       0.316  10.655  20.590  0.00  0.00    +0.000 N 
ATOM      7  C   UNL     1      -0.580  11.432  21.290  0.00  0.00    +0.000 A 
ATOM      8  C   UNL     1      -1.653  12.057  20.638  0.00  0.00    +0.000 A 
ATOM      9  N   UNL     1      -2.625  12.779  21.261  0.00  0.00    +0.000 NA
ATOM     10  C   UNL     1      -2.490  12.853  22.594  0.00  0.00    +0.000 A 
ATOM     11  C   UNL     1      -1.440  12.248  23.268  0.00  0.00    +0.000 A 
ATOM     12  N   UNL     1      -0.484  11.523  22.635  0.00  0.00    +0.000 NA
ATOM     13  C   UNL     1       0.936  11.151  19.358  0.00  0.00    +0.000 C 
ATOM     14  C   UNL     1       1.074   9.971  18.381  0.00  0.00    +0.000 C 
ENDROOT
BRANCH   2  15
ATOM     15  C   UNL     1       3.031   6.708  18.751  0.00  0.00    +0.000 C 
BRANCH  15  16
ATOM     16  C   UNL     1       4.057   6.050  17.830  0.00  0.00    +0.000 C 
BRANCH  16  17
ATOM     17  S   UNL     1       3.486   4.361  17.423  0.00  0.00    +0.000 S 
BRANCH  17  18
ATOM     18  C   UNL     1       2.772   3.794  18.962  0.00  0.00    +0.000 A 
ATOM     19  C   UNL     1       1.373   3.797  19.056  0.00  0.00    +0.000 A 
ATOM     20  C   UNL     1       0.731   3.306  20.197  0.00  0.00    +0.000 A 
ATOM     21  C   UNL     1       1.492   2.807  21.244  0.00  0.00    +0.000 A 
ATOM     22  F   UNL     1       0.881   2.322  22.334  0.00  0.00    +0.000 F 
ATOM     23  C   UNL     1       2.880   2.796  21.173  0.00  0.00    +0.000 A 
ATOM     24  C   UNL     1       3.522   3.285  20.031  0.00  0.00    +0.000 A 
ENDBRANCH  17  18
ENDBRANCH  16  17
ENDBRANCH  15  16
ENDBRANCH   2  15
TORSDOF 4
ENDMDL
MODEL 4
REMARK VINA RESULT:      -7.3      5.608      7.779
REMARK  Name = 
REMARK  4 active torsions:
REMARK  status: ('A' for Active; 'I' for Inactive)
REMARK    1  A    between atoms: C_2  and  C_3
REMARK    2  A    between atoms: C_3  and  C_4
REMARK    3  A    between atoms: C_4  and  S_5
REMARK    4  A    between atoms: S_5  and  C_6
REMARK                            x       y       z     vdW  Elec       q    Type
REMARK                         _______ _______ _______ _____ _____    ______ ____
ROOT
ATOM      1  O   UNL     1       2.145   5.699  20.511  0.00  0.00    +0.000 OA
ATOM      2  C   UNL     1       2.293   6.408  19.515  0.00  0.00    +0.000 C 
ATOM      3  N   UNL     1       1.871   7.732  19.492  0.00  0.00    +0.000 N 
ATOM      4  C   UNL     1       2.132   8.688  18.390  0.00  0.00    +0.000 C 
ATOM      5  C   UNL     1       0.993   9.724  18.229  0.00  0.00    +0.000 C 
ATOM      6  N   UNL     1       0.757  10.331  19.540  0.00  0.00    +0.000 N 
ATOM      7  C   UNL     1       0.435  11.666  19.637  0.00  0.00    +0.000 A 
ATOM      8  C   UNL     1       0.666  12.377  20.824  0.00  0.00    +0.000 A 
ATOM      9  N   UNL     1       0.448  13.712  20.983  0.00  0.00    +0.000 NA
ATOM     10  C   UNL     1      -0.017  14.331  19.887  0.00  0.00    +0.000 A 
ATOM     11  C   UNL     1      -0.258  13.656  18.701  0.00  0.00    +0.000 A 
ATOM     12  N   UNL     1      -0.026  12.328  18.553  0.00  0.00    +0.000 NA
ATOM     13  C   UNL     1       0.332   9.380  20.571  0.00  0.00    +0.000 C 
ATOM     14  C   UNL     1       1.454   8.345  20.763  0.00  0.00    +0.000 C 
ENDROOT
BRANCH   2  15
ATOM     15  C   UNL     1       2.949   5.872  18.260  0.00  0.00    +0.000 C 
BRANCH  15  16
ATOM     16  C   UNL     1       3.134   4.357  18.344  0.00  0.00    +0.000 C 
BRANCH  16  17
ATOM     17  S   UNL     1       4.494   3.867  17.224  0.00  0.00    +0.000 S 
BRANCH  17  18
ATOM     18  C   UNL     1       5.839   4.931  17.732  0.00  0.00    +0.000 A 
ATOM     19  C   UNL     1       6.259   5.910  16.819  0.00  0.00    +0.000 A 
ATOM     20  C   UNL     1       7.257   6.827  17.161  0.00  0.00    +0.000 A 
ATOM     21  C   UNL     1       7.832   6.768  18.423  0.00  0.00    +0.000 A 
ATOM     22  F   UNL     1       8.778   7.654  18.762  0.00  0.00    +0.000 F 
ATOM     23  C   UNL     1       7.431   5.807  19.344  0.00  0.00    +0.000 A 
ATOM     24  C   UNL     1       6.431   4.890  19.001  0.00  0.00    +0.000 A 
ENDBRANCH  17  18
ENDBRANCH  16  17
ENDBRANCH  15  16
ENDBRANCH   2  15
TORSDOF 4
ENDMDL
MODEL 5
REMARK VINA RESULT:      -7.2      5.932      8.269
REMARK  Name = 
REMARK  4 active torsions:
REMARK  status: ('A' for Active; 'I' for Inactive)
REMARK    1  A    between atoms: C_2  and  C_3
REMARK    2  A    between atoms: C_3  and  C_4
REMARK    3  A    between atoms: C_4  and  S_5
REMARK    4  A    between atoms: S_5  and  C_6
REMARK                            x       y       z     vdW  Elec       q    Type
REMARK                         _______ _______ _______ _____ _____    ______ ____
ROOT
ATOM      1  O   UNL     1       2.954   7.407  17.742  0.00  0.00    +0.000 OA
ATOM      2  C   UNL     1       2.614   7.275  18.918  0.00  0.00    +0.000 C 
ATOM      3  N   UNL     1       1.830   8.224  19.562  0.00  0.00    +0.000 N 
ATOM      4  C   UNL     1       1.267   8.078  20.925  0.00  0.00    +0.000 C 
ATOM      5  C   UNL     1       1.147   9.434  21.660  0.00  0.00    +0.000 C 
ATOM      6  N   UNL     1       0.423  10.353  20.781  0.00  0.00    +0.000 N 
ATOM      7  C   UNL     1      -0.462  11.267  21.310  0.00  0.00    +0.000 A 
ATOM      8  C   UNL     1      -1.492  11.807  20.526  0.00  0.00    +0.000 A 
ATOM      9  N   UNL     1      -2.452  12.656  20.986  0.00  0.00    +0.000 NA
ATOM     10  C   UNL     1      -2.350  12.951  22.292  0.00  0.00    +0.000 A 
ATOM     11  C   UNL     1      -1.343  12.435  23.092  0.00  0.00    +0.000 A 
ATOM     12  N   UNL     1      -0.399  11.581  22.623  0.00  0.00    +0.000 NA
ATOM     13  C   UNL     1       1.094  10.612  19.504  0.00  0.00    +0.000 C 
ATOM     14  C   UNL     1       1.213   9.280  18.744  0.00  0.00    +0.000 C 
ENDROOT
BRANCH   2  15
ATOM     15  C   UNL     1       3.033   6.064  19.724  0.00  0.00    +0.000 C 
BRANCH  15  16
ATOM     16  C   UNL     1       2.526   4.775  19.079  0.00  0.00    +0.000 C 
BRANCH  16  17
ATOM     17  S   UNL     1       3.877   3.542  19.085  0.00  0.00    +0.000 S 
BRANCH  17  18
ATOM     18  C   UNL     1       4.924   4.084  17.741  0.00  0.00    +0.000 A 
ATOM     19  C   UNL     1       6.229   4.481  18.068  0.00  0.00    +0.000 A 
ATOM     20  C   UNL     1       7.135   4.854  17.071  0.00  0.00    +0.000 A 
ATOM     21  C   UNL     1       6.735   4.825  15.742  0.00  0.00    +0.000 A 
ATOM     22  F   UNL     1       7.605   5.167  14.781  0.00  0.00    +0.000 F 
ATOM     23  C   UNL     1       5.447   4.435  15.395  0.00  0.00    +0.000 A 
ATOM     24  C   UNL     1       4.541   4.061  16.393  0.00  0.00    +0.000 A 
ENDBRANCH  17  18
ENDBRANCH  16  17
ENDBRANCH  15  16
ENDBRANCH   2  15
TORSDOF 4
ENDMDL
MODEL 6
REMARK VINA RESULT:      -7.1      6.038      8.410
REMARK  Name = 
REMARK  4 active torsions:
REMARK  status: ('A' for Active; 'I' for Inactive)
REMARK    1  A    between atoms: C_2  and  C_3
REMARK    2  A    between atoms: C_3  and  C_4
REMARK    3  A    between atoms: C_4  and  S_5
REMARK    4  A    between atoms: S_5  and  C_6
REMARK                            x       y       z     vdW  Elec       q    Type
REMARK                         _______ _______ _______ _____ _____    ______ ____
ROOT
ATOM      1  O   UNL     1       2.923   7.347  18.074  0.00  0.00    +0.000 OA
ATOM      2  C   UNL     1       2.483   7.229  19.218  0.00  0.00    +0.000 C 
ATOM      3  N   UNL     1       1.720   8.226  19.813  0.00  0.00    +0.000 N 
ATOM      4  C   UNL     1       1.043   8.109  21.126  0.00  0.00    +0.000 C 
ATOM      5  C   UNL     1       0.963   9.464  21.870  0.00  0.00    +0.000 C 
ATOM      6  N   UNL     1       0.377  10.441  20.950  0.00  0.00    +0.000 N 
ATOM      7  C   UNL     1      -0.479  11.411  21.422  0.00  0.00    +0.000 A 
ATOM      8  C   UNL     1      -1.403  12.031  20.570  0.00  0.00    +0.000 A 
ATOM      9  N   UNL     1      -2.333  12.943  20.966  0.00  0.00    +0.000 NA
ATOM     10  C   UNL     1      -2.313  13.219  22.279  0.00  0.00    +0.000 A 
ATOM     11  C   UNL     1      -1.411  12.623  23.148  0.00  0.00    +0.000 A 
ATOM     12  N   UNL     1      -0.496  11.708  22.741  0.00  0.00    +0.000 NA
ATOM     13  C   UNL     1       1.163  10.662  19.733  0.00  0.00    +0.000 C 
ATOM     14  C   UNL     1       1.247   9.332  18.966  0.00  0.00    +0.000 C 
ENDROOT
BRANCH   2  15
ATOM     15  C   UNL     1       2.750   5.984  20.036  0.00  0.00    +0.000 C 
BRANCH  15  16
ATOM     16  C   UNL     1       2.204   4.740  19.335  0.00  0.00    +0.000 C 
BRANCH  16  17
ATOM     17  S   UNL     1       3.457   3.411  19.435  0.00  0.00    +0.000 S 
BRANCH  17  18
ATOM     18  C   UNL     1       4.691   3.930  18.250  0.00  0.00    +0.000 A 
ATOM     19  C   UNL     1       4.366   3.801  16.891  0.00  0.00    +0.000 A 
ATOM     20  C   UNL     1       5.246   4.246  15.899  0.00  0.00    +0.000 A 
ATOM     21  C   UNL     1       6.451   4.825  16.269  0.00  0.00    +0.000 A 
ATOM     22  F   UNL     1       7.291   5.267  15.322  0.00  0.00    +0.000 F 
ATOM     23  C   UNL     1       6.794   4.963  17.609  0.00  0.00    +0.000 A 
ATOM     24  C   UNL     1       5.913   4.519  18.601  0.00  0.00    +0.000 A 
ENDBRANCH  17  18
ENDBRANCH  16  17
ENDBRANCH  15  16
ENDBRANCH   2  15
TORSDOF 4
ENDMDL
MODEL 7
REMARK VINA RESULT:      -7.1      5.691      7.934
REMARK  Name = 
REMARK  4 active torsions:
REMARK  status: ('A' for Active; 'I' for Inactive)
REMARK    1  A    between atoms: C_2  and  C_3
REMARK    2  A    between atoms: C_3  and  C_4
REMARK    3  A    between atoms: C_4  and  S_5
REMARK    4  A    between atoms: S_5  and  C_6
REMARK                            x       y       z     vdW  Elec       q    Type
REMARK                         _______ _______ _______ _____ _____    ______ ____
ROOT
ATOM      1  O   UNL     1       3.589   7.107  17.450  0.00  0.00    +0.000 OA
ATOM      2  C   UNL     1       3.081   7.064  18.571  0.00  0.00    +0.000 C 
ATOM      3  N   UNL     1       2.147   8.004  18.985  0.00  0.00    +0.000 N 
ATOM      4  C   UNL     1       1.391   7.947  20.259  0.00  0.00    +0.000 C 
ATOM      5  C   UNL     1       1.070   9.354  20.817  0.00  0.00    +0.000 C 
ATOM      6  N   UNL     1       0.431  10.120  19.745  0.00  0.00    +0.000 N 
ATOM      7  C   UNL     1      -0.583  11.006  20.036  0.00  0.00    +0.000 A 
ATOM      8  C   UNL     1      -1.513  11.381  19.057  0.00  0.00    +0.000 A 
ATOM      9  N   UNL     1      -2.587  12.190  19.276  0.00  0.00    +0.000 NA
ATOM     10  C   UNL     1      -2.706  12.619  20.542  0.00  0.00    +0.000 A 
ATOM     11  C   UNL     1      -1.803  12.267  21.532  0.00  0.00    +0.000 A 
ATOM     12  N   UNL     1      -0.744  11.452  21.302  0.00  0.00    +0.000 NA
ATOM     13  C   UNL     1       1.272  10.307  18.560  0.00  0.00    +0.000 C 
ATOM     14  C   UNL     1       1.595   8.921  17.976  0.00  0.00    +0.000 C 
ENDROOT
BRANCH   2  15
ATOM     15  C   UNL     1       3.450   5.976  19.557  0.00  0.00    +0.000 C 
BRANCH  15  16
ATOM     16  C   UNL     1       2.866   4.630  19.131  0.00  0.00    +0.000 C 
BRANCH  16  17
ATOM     17  S   UNL     1       4.205   3.384  19.120  0.00  0.00    +0.000 S 
BRANCH  17  18
ATOM     18  C   UNL     1       5.249   3.925  17.773  0.00  0.00    +0.000 A 
ATOM     19  C   UNL     1       4.716   3.842  16.478  0.00  0.00    +0.000 A 
ATOM     20  C   UNL     1       5.438   4.306  15.375  0.00  0.00    +0.000 A 
ATOM     21  C   UNL     1       6.695   4.861  15.569  0.00  0.00    +0.000 A 
ATOM     22  F   UNL     1       7.384   5.322  14.516  0.00  0.00    +0.000 F 
ATOM     23  C   UNL     1       7.243   4.953  16.842  0.00  0.00    +0.000 A 
ATOM     24  C   UNL     1       6.520   4.489  17.946  0.00  0.00    +0.000 A 
ENDBRANCH  17  18
ENDBRANCH  16  17
ENDBRANCH  15  16
ENDBRANCH   2  15
TORSDOF 4
ENDMDL
MODEL 8
REMARK VINA RESULT:      -7.1      6.276      9.145
REMARK  Name = 
REMARK  4 active torsions:
REMARK  status: ('A' for Active; 'I' for Inactive)
REMARK    1  A    between atoms: C_2  and  C_3
REMARK    2  A    between atoms: C_3  and  C_4
REMARK    3  A    between atoms: C_4  and  S_5
REMARK    4  A    between atoms: S_5  and  C_6
REMARK                            x       y       z     vdW  Elec       q    Type
REMARK                         _______ _______ _______ _____ _____    ______ ____
ROOT
ATOM      1  O   UNL     1       4.297   6.984  16.718  0.00  0.00    +0.000 OA
ATOM      2  C   UNL     1       3.839   6.824  17.850  0.00  0.00    +0.000 C 
ATOM      3  N   UNL     1       2.874   7.675  18.373  0.00  0.00    +0.000 N 
ATOM      4  C   UNL     1       2.175   7.475  19.665  0.00  0.00    +0.000 C 
ATOM      5  C   UNL     1       1.803   8.815  20.346  0.00  0.00    +0.000 C 
ATOM      6  N   UNL     1       1.081   9.626  19.365  0.00  0.00    +0.000 N 
ATOM      7  C   UNL     1       0.035  10.428  19.764  0.00  0.00    +0.000 A 
ATOM      8  C   UNL     1      -0.953  10.827  18.852  0.00  0.00    +0.000 A 
ATOM      9  N   UNL     1      -2.058  11.555  19.175  0.00  0.00    +0.000 NA
ATOM     10  C   UNL     1      -2.148  11.875  20.475  0.00  0.00    +0.000 A 
ATOM     11  C   UNL     1      -1.187  11.497  21.400  0.00  0.00    +0.000 A 
ATOM     12  N   UNL     1      -0.097  10.763  21.066  0.00  0.00    +0.000 NA
ATOM     13  C   UNL     1       1.863   9.952  18.168  0.00  0.00    +0.000 C 
ATOM     14  C   UNL     1       2.234   8.637  17.463  0.00  0.00    +0.000 C 
ENDROOT
BRANCH   2  15
ATOM     15  C   UNL     1       4.304   5.684  18.730  0.00  0.00    +0.000 C 
BRANCH  15  16
ATOM     16  C   UNL     1       4.999   4.603  17.904  0.00  0.00    +0.000 C 
BRANCH  16  17
ATOM     17  S   UNL     1       3.797   3.271  17.548  0.00  0.00    +0.000 S 
BRANCH  17  18
ATOM     18  C   UNL     1       2.930   3.085  19.102  0.00  0.00    +0.000 A 
ATOM     19  C   UNL     1       1.542   3.287  19.087  0.00  0.00    +0.000 A 
ATOM     20  C   UNL     1       0.777   3.096  20.242  0.00  0.00    +0.000 A 
ATOM     21  C   UNL     1       1.404   2.695  21.413  0.00  0.00    +0.000 A 
ATOM     22  F   UNL     1       0.673   2.495  22.519  0.00  0.00    +0.000 F 
ATOM     23  C   UNL     1       2.778   2.488  21.451  0.00  0.00    +0.000 A 
ATOM     24  C   UNL     1       3.542   2.679  20.295  0.00  0.00    +0.000 A 
ENDBRANCH  17  18
ENDBRANCH  16  17
ENDBRANCH  15  16
ENDBRANCH   2  15
TORSDOF 4
ENDMDL
MODEL 9
REMARK VINA RESULT:      -7.0      7.614     10.402
REMARK  Name = 
REMARK  4 active torsions:
REMARK  status: ('A' for Active; 'I' for Inactive)
REMARK    1  A    between atoms: C_2  and  C_3
REMARK    2  A    between atoms: C_3  and  C_4
REMARK    3  A    between atoms: C_4  and  S_5
REMARK    4  A    between atoms: S_5  and  C_6
REMARK                            x       y       z     vdW  Elec       q    Type
REMARK                         _______ _______ _______ _____ _____    ______ ____
ROOT
ATOM      1  O   UNL     1       2.601  10.819  17.584  0.00  0.00    +0.000 OA
ATOM      2  C   UNL     1       1.722  10.132  18.107  0.00  0.00    +0.000 C 
ATOM      3  N   UNL     1       0.856  10.657  19.058  0.00  0.00    +0.000 N 
ATOM      4  C   UNL     1      -0.308   9.943  19.633  0.00  0.00    +0.000 C 
ATOM      5  C   UNL     1      -0.590  10.361  21.097  0.00  0.00    +0.000 C 
ATOM      6  N   UNL     1      -0.674  11.822  21.133  0.00  0.00    +0.000 N 
ATOM      7  C   UNL     1      -1.577  12.444  21.967  0.00  0.00    +0.000 A 
ATOM      8  C   UNL     1      -2.021  13.747  21.701  0.00  0.00    +0.000 A 
ATOM      9  N   UNL     1      -2.964  14.408  22.428  0.00  0.00    +0.000 NA
ATOM     10  C   UNL     1      -3.467  13.703  23.453  0.00  0.00    +0.000 A 
ATOM     11  C   UNL     1      -3.047  12.414  23.742  0.00  0.00    +0.000 A 
ATOM     12  N   UNL     1      -2.114  11.763  23.003  0.00  0.00    +0.000 NA
ATOM     13  C   UNL     1       0.557  12.501  20.719  0.00  0.00    +0.000 C 
ATOM     14  C   UNL     1       0.853  12.115  19.260  0.00  0.00    +0.000 C 
ENDROOT
BRANCH   2  15
ATOM     15  C   UNL     1       1.539   8.677  17.736  0.00  0.00    +0.000 C 
BRANCH  15  16
ATOM     16  C   UNL     1       2.778   7.859  18.097  0.00  0.00    +0.000 C 
BRANCH  16  17
ATOM     17  S   UNL     1       2.526   7.105  19.744  0.00  0.00    +0.000 S 
BRANCH  17  18
ATOM     18  C   UNL     1       2.003   5.440  19.350  0.00  0.00    +0.000 A 
ATOM     19  C   UNL     1       1.432   4.688  20.387  0.00  0.00    +0.000 A 
ATOM     20  C   UNL     1       0.935   3.403  20.150  0.00  0.00    +0.000 A 
ATOM     21  C   UNL     1       1.005   2.872  18.870  0.00  0.00    +0.000 A 
ATOM     22  F   UNL     1       0.516   1.647  18.634  0.00  0.00    +0.000 F 
ATOM     23  C   UNL     1       1.566   3.600  17.827  0.00  0.00    +0.000 A 
ATOM     24  C   UNL     1       2.063   4.885  18.065  0.00  0.00    +0.000 A 
ENDBRANCH  17  18
ENDBRANCH  16  17
ENDBRANCH  15  16
ENDBRANCH   2  15
TORSDOF 4
ENDMDL
