MODEL 1
REMARK VINA RESULT:      -8.5      0.000      0.000
REMARK  Name = 
REMARK  3 active torsions:
REMARK  status: ('A' for Active; 'I' for Inactive)
REMARK    1  A    between atoms: N_1  and  C_2
REMARK    2  A    between atoms: C_13  and  C_14
REMARK    3  A    between atoms: C_17  and  O_18
REMARK                            x       y       z     vdW  Elec       q    Type
REMARK                         _______ _______ _______ _____ _____    ______ ____
ROOT
ATOM      1  C   UNL     1       1.069  10.379  19.498  0.00  0.00    +0.000 A 
ATOM      2  C   UNL     1       1.603   9.138  19.095  0.00  0.00    +0.000 A 
ATOM      3  C   UNL     1       1.441   8.033  19.945  0.00  0.00    +0.000 A 
ATOM      4  N   UNL     1       0.815   8.118  21.142  0.00  0.00    +0.000 NA
ATOM      5  C   UNL     1       0.286   9.294  21.516  0.00  0.00    +0.000 A 
ATOM      6  C   UNL     1      -0.383   9.353  22.733  0.00  0.00    +0.000 A 
ATOM      7  C   UNL     1      -0.978  10.527  23.202  0.00  0.00    +0.000 A 
ATOM      8  C   UNL     1      -0.914  11.680  22.436  0.00  0.00    +0.000 A 
ATOM      9  C   UNL     1      -0.257  11.646  21.208  0.00  0.00    +0.000 A 
ATOM     10  C   UNL     1       0.362  10.462  20.727  0.00  0.00    +0.000 A 
ATOM     11  C   UNL     1       1.934   6.682  19.547  0.00  0.00    +0.000 C 
ATOM     12  C   UNL     1       2.133   5.693  20.446  0.00  0.00    +0.000 C 
ATOM     13  C   UNL     1       2.233   6.539  18.070  0.00  0.00    +0.000 C 
ATOM     14  C   UNL     1       3.099   7.702  17.625  0.00  0.00    +0.000 C 
ATOM     15  C   UNL     1       2.317   9.000  17.769  0.00  0.00    +0.000 C 
ENDROOT
BRANCH  12  16
ATOM     16  C   UNL     1       2.689   4.386  20.074  0.00  0.00    +0.000 A 
ATOM     17  C   UNL     1       4.059   4.266  19.802  0.00  0.00    +0.000 A 
ATOM     18  C   UNL     1       4.576   3.074  19.285  0.00  0.00    +0.000 A 
ATOM     19  C   UNL     1       3.717   2.004  19.051  0.00  0.00    +0.000 A 
ATOM     20  C   UNL     1       2.364   2.092  19.359  0.00  0.00    +0.000 A 
ATOM     21  C   UNL     1       1.847   3.286  19.868  0.00  0.00    +0.000 A 
BRANCH  19  22
ATOM     22  O   UNL     1       4.167   0.845  18.491  0.00  0.00    +0.000 OA
ATOM     23  H   UNL     1       3.541   0.572  17.801  0.00  0.00    +0.000 HD
ENDBRANCH  19  22
ENDBRANCH  12  16
BRANCH   1  24
ATOM     24  N   UNL     1       1.038  11.458  18.580  0.00  0.00    +0.000 N 
ATOM     25  H   UNL     1       1.933  11.897  18.402  0.00  0.00    +0.000 HD
ATOM     26  H   UNL     1       0.327  12.152  18.774  0.00  0.00    +0.000 HD
ENDBRANCH   1  24
TORSDOF 3
ENDMDL
MODEL 2
REMARK VINA RESULT:      -8.4      3.753      7.839
REMARK  Name = 
REMARK  3 active torsions:
REMARK  status: ('A' for Active; 'I' for Inactive)
REMARK    1  A    between atoms: N_1  and  C_2
REMARK    2  A    between atoms: C_13  and  C_14
REMARK    3  A    between atoms: C_17  and  O_18
REMARK                            x       y       z     vdW  Elec       q    Type
REMARK                         _______ _______ _______ _____ _____    ______ ____
ROOT
ATOM      1  C   UNL     1       4.166   3.457  18.155  0.00  0.00    +0.000 A 
ATOM      2  C   UNL     1       3.323   4.189  19.016  0.00  0.00    +0.000 A 
ATOM      3  C   UNL     1       3.130   5.555  18.758  0.00  0.00    +0.000 A 
ATOM      4  N   UNL     1       3.737   6.198  17.734  0.00  0.00    +0.000 NA
ATOM      5  C   UNL     1       4.521   5.497  16.900  0.00  0.00    +0.000 A 
ATOM      6  C   UNL     1       5.108   6.168  15.834  0.00  0.00    +0.000 A 
ATOM      7  C   UNL     1       5.930   5.522  14.906  0.00  0.00    +0.000 A 
ATOM      8  C   UNL     1       6.171   4.164  15.035  0.00  0.00    +0.000 A 
ATOM      9  C   UNL     1       5.588   3.465  16.090  0.00  0.00    +0.000 A 
ATOM     10  C   UNL     1       4.762   4.114  17.046  0.00  0.00    +0.000 A 
ATOM     11  C   UNL     1       2.204   6.369  19.599  0.00  0.00    +0.000 C 
ATOM     12  C   UNL     1       2.258   7.719  19.632  0.00  0.00    +0.000 C 
ATOM     13  C   UNL     1       1.245   5.553  20.438  0.00  0.00    +0.000 C 
ATOM     14  C   UNL     1       2.023   4.482  21.180  0.00  0.00    +0.000 C 
ATOM     15  C   UNL     1       2.631   3.511  20.177  0.00  0.00    +0.000 C 
ENDROOT
BRANCH  12  16
ATOM     16  C   UNL     1       1.404   8.524  20.514  0.00  0.00    +0.000 A 
ATOM     17  C   UNL     1       0.505   9.446  19.959  0.00  0.00    +0.000 A 
ATOM     18  C   UNL     1      -0.191  10.337  20.780  0.00  0.00    +0.000 A 
ATOM     19  C   UNL     1       0.010  10.295  22.157  0.00  0.00    +0.000 A 
ATOM     20  C   UNL     1       0.862   9.356  22.726  0.00  0.00    +0.000 A 
ATOM     21  C   UNL     1       1.564   8.470  21.905  0.00  0.00    +0.000 A 
BRANCH  19  22
ATOM     22  O   UNL     1      -0.601  11.185  22.989  0.00  0.00    +0.000 OA
ATOM     23  H   UNL     1       0.077  11.763  23.376  0.00  0.00    +0.000 HD
ENDBRANCH  19  22
ENDBRANCH  12  16
BRANCH   1  24
ATOM     24  N   UNL     1       4.222   2.045  18.266  0.00  0.00    +0.000 N 
ATOM     25  H   UNL     1       3.661   1.538  17.593  0.00  0.00    +0.000 HD
ATOM     26  H   UNL     1       4.068   1.693  19.203  0.00  0.00    +0.000 HD
ENDBRANCH   1  24
TORSDOF 3
ENDMDL
MODEL 3
REMARK VINA RESULT:      -8.3      0.713      1.178
REMARK  Name = 
REMARK  3 active torsions:
REMARK  status: ('A' for Active; 'I' for Inactive)
REMARK    1  A    between atoms: N_1  and  C_2
REMARK    2  A    between atoms: C_13  and  C_14
REMARK    3  A    between atoms: C_17  and  O_18
REMARK                            x       y       z     vdW  Elec       q    Type
REMARK                         _______ _______ _______ _____ _____    ______ ____
ROOT
ATOM      1  C   UNL     1       0.761  10.711  19.495  0.00  0.00    +0.000 A 
ATOM      2  C   UNL     1       1.393   9.508  19.120  0.00  0.00    +0.000 A 
ATOM      3  C   UNL     1       1.345   8.424  20.010  0.00  0.00    +0.000 A 
ATOM      4  N   UNL     1       0.738   8.496  21.217  0.00  0.00    +0.000 NA
ATOM      5  C   UNL     1       0.116   9.635  21.565  0.00  0.00    +0.000 A 
ATOM      6  C   UNL     1      -0.531   9.678  22.794  0.00  0.00    +0.000 A 
ATOM      7  C   UNL     1      -1.216  10.813  23.238  0.00  0.00    +0.000 A 
ATOM      8  C   UNL     1      -1.267  11.939  22.432  0.00  0.00    +0.000 A 
ATOM      9  C   UNL     1      -0.635  11.919  21.191  0.00  0.00    +0.000 A 
ATOM     10  C   UNL     1       0.075  10.776  20.736  0.00  0.00    +0.000 A 
ATOM     11  C   UNL     1       1.945   7.107  19.646  0.00  0.00    +0.000 C 
ATOM     12  C   UNL     1       2.247   6.171  20.572  0.00  0.00    +0.000 C 
ATOM     13  C   UNL     1       2.226   6.938  18.168  0.00  0.00    +0.000 C 
ATOM     14  C   UNL     1       2.978   8.155  17.665  0.00  0.00    +0.000 C 
ATOM     15  C   UNL     1       2.089   9.386  17.784  0.00  0.00    +0.000 C 
ENDROOT
BRANCH  12  16
ATOM     16  C   UNL     1       2.907   4.904  20.232  0.00  0.00    +0.000 A 
ATOM     17  C   UNL     1       2.397   3.698  20.732  0.00  0.00    +0.000 A 
ATOM     18  C   UNL     1       3.105   2.505  20.559  0.00  0.00    +0.000 A 
ATOM     19  C   UNL     1       4.319   2.526  19.879  0.00  0.00    +0.000 A 
ATOM     20  C   UNL     1       4.816   3.706  19.338  0.00  0.00    +0.000 A 
ATOM     21  C   UNL     1       4.112   4.899  19.517  0.00  0.00    +0.000 A 
BRANCH  19  22
ATOM     22  O   UNL     1       5.072   1.397  19.742  0.00  0.00    +0.000 OA
ATOM     23  H   UNL     1       5.365   1.332  18.818  0.00  0.00    +0.000 HD
ENDBRANCH  19  22
ENDBRANCH  12  16
BRANCH   1  24
ATOM     24  N   UNL     1       0.619  11.751  18.542  0.00  0.00    +0.000 N 
ATOM     25  H   UNL     1      -0.296  12.186  18.514  0.00  0.00    +0.000 HD
ATOM     26  H   UNL     1       0.933  11.510  17.610  0.00  0.00    +0.000 HD
ENDBRANCH   1  24
TORSDOF 3
ENDMDL
MODEL 4
REMARK VINA RESULT:      -8.1      3.707      7.778
REMARK  Name = 
REMARK  3 active torsions:
REMARK  status: ('A' for Active; 'I' for Inactive)
REMARK    1  A    between atoms: N_1  and  C_2
REMARK    2  A    between atoms: C_13  and  C_14
REMARK    3  A    between atoms: C_17  and  O_18
REMARK                            x       y       z     vdW  Elec       q    Type
REMARK                         _______ _______ _______ _____ _____    ______ ____
ROOT
ATOM      1  C   UNL     1       4.146   3.528  18.165  0.00  0.00    +0.000 A 
ATOM      2  C   UNL     1       3.316   4.284  19.018  0.00  0.00    +0.000 A 
ATOM      3  C   UNL     1       3.142   5.649  18.742  0.00  0.00    +0.000 A 
ATOM      4  N   UNL     1       3.755   6.269  17.707  0.00  0.00    +0.000 NA
ATOM      5  C   UNL     1       4.527   5.544  16.881  0.00  0.00    +0.000 A 
ATOM      6  C   UNL     1       5.121   6.192  15.804  0.00  0.00    +0.000 A 
ATOM      7  C   UNL     1       5.931   5.521  14.883  0.00  0.00    +0.000 A 
ATOM      8  C   UNL     1       6.152   4.162  15.031  0.00  0.00    +0.000 A 
ATOM      9  C   UNL     1       5.562   3.486  16.097  0.00  0.00    +0.000 A 
ATOM     10  C   UNL     1       4.749   4.160  17.045  0.00  0.00    +0.000 A 
ATOM     11  C   UNL     1       2.231   6.488  19.574  0.00  0.00    +0.000 C 
ATOM     12  C   UNL     1       2.305   7.837  19.587  0.00  0.00    +0.000 C 
ATOM     13  C   UNL     1       1.262   5.698  20.426  0.00  0.00    +0.000 C 
ATOM     14  C   UNL     1       2.026   4.627  21.181  0.00  0.00    +0.000 C 
ATOM     15  C   UNL     1       2.618   3.633  20.190  0.00  0.00    +0.000 C 
ENDROOT
BRANCH  12  16
ATOM     16  C   UNL     1       1.464   8.667  20.460  0.00  0.00    +0.000 A 
ATOM     17  C   UNL     1       1.613   8.585  21.851  0.00  0.00    +0.000 A 
ATOM     18  C   UNL     1       0.712   9.237  22.698  0.00  0.00    +0.000 A 
ATOM     19  C   UNL     1      -0.330   9.975  22.146  0.00  0.00    +0.000 A 
ATOM     20  C   UNL     1      -0.465  10.104  20.769  0.00  0.00    +0.000 A 
ATOM     21  C   UNL     1       0.431   9.446  19.922  0.00  0.00    +0.000 A 
BRANCH  19  22
ATOM     22  O   UNL     1      -1.267  10.576  22.935  0.00  0.00    +0.000 OA
ATOM     23  H   UNL     1      -1.509   9.963  23.648  0.00  0.00    +0.000 HD
ENDBRANCH  19  22
ENDBRANCH  12  16
BRANCH   1  24
ATOM     24  N   UNL     1       4.182   2.117  18.296  0.00  0.00    +0.000 N 
ATOM     25  H   UNL     1       3.345   1.635  17.990  0.00  0.00    +0.000 HD
ATOM     26  H   UNL     1       4.474   1.789  19.209  0.00  0.00    +0.000 HD
ENDBRANCH   1  24
TORSDOF 3
ENDMDL
MODEL 5
REMARK VINA RESULT:      -7.5      3.434      7.383
REMARK  Name = 
REMARK  3 active torsions:
REMARK  status: ('A' for Active; 'I' for Inactive)
REMARK    1  A    between atoms: N_1  and  C_2
REMARK    2  A    between atoms: C_13  and  C_14
REMARK    3  A    between atoms: C_17  and  O_18
REMARK                            x       y       z     vdW  Elec       q    Type
REMARK                         _______ _______ _______ _____ _____    ______ ____
ROOT
ATOM      1  C   UNL     1       3.179   5.754  18.363  0.00  0.00    +0.000 A 
ATOM      2  C   UNL     1       2.597   7.011  18.628  0.00  0.00    +0.000 A 
ATOM      3  C   UNL     1       1.894   7.180  19.831  0.00  0.00    +0.000 A 
ATOM      4  N   UNL     1       1.736   6.181  20.731  0.00  0.00    +0.000 NA
ATOM      5  C   UNL     1       2.309   4.992  20.489  0.00  0.00    +0.000 A 
ATOM      6  C   UNL     1       2.164   3.990  21.442  0.00  0.00    +0.000 A 
ATOM      7  C   UNL     1       2.735   2.724  21.286  0.00  0.00    +0.000 A 
ATOM      8  C   UNL     1       3.481   2.444  20.153  0.00  0.00    +0.000 A 
ATOM      9  C   UNL     1       3.650   3.434  19.187  0.00  0.00    +0.000 A 
ATOM     10  C   UNL     1       3.064   4.719  19.328  0.00  0.00    +0.000 A 
ATOM     11  C   UNL     1       1.306   8.502  20.194  0.00  0.00    +0.000 C 
ATOM     12  C   UNL     1       0.336   8.628  21.127  0.00  0.00    +0.000 C 
ATOM     13  C   UNL     1       1.852   9.667  19.398  0.00  0.00    +0.000 C 
ATOM     14  C   UNL     1       1.808   9.321  17.922  0.00  0.00    +0.000 C 
ATOM     15  C   UNL     1       2.744   8.151  17.647  0.00  0.00    +0.000 C 
ENDROOT
BRANCH  12  16
ATOM     16  C   UNL     1      -0.302   9.914  21.437  0.00  0.00    +0.000 A 
ATOM     17  C   UNL     1      -0.567  10.256  22.770  0.00  0.00    +0.000 A 
ATOM     18  C   UNL     1      -1.323  11.392  23.072  0.00  0.00    +0.000 A 
ATOM     19  C   UNL     1      -1.804  12.186  22.036  0.00  0.00    +0.000 A 
ATOM     20  C   UNL     1      -1.511  11.886  20.710  0.00  0.00    +0.000 A 
ATOM     21  C   UNL     1      -0.763  10.746  20.408  0.00  0.00    +0.000 A 
BRANCH  19  22
ATOM     22  O   UNL     1      -2.596  13.268  22.282  0.00  0.00    +0.000 OA
ATOM     23  H   UNL     1      -3.517  12.968  22.350  0.00  0.00    +0.000 HD
ENDBRANCH  19  22
ENDBRANCH  12  16
BRANCH   1  24
ATOM     24  N   UNL     1       4.059   5.612  17.261  0.00  0.00    +0.000 N 
ATOM     25  H   UNL     1       4.836   4.979  17.410  0.00  0.00    +0.000 HD
ATOM     26  H   UNL     1       4.377   6.487  16.864  0.00  0.00    +0.000 HD
ENDBRANCH   1  24
TORSDOF 3
ENDMDL
MODEL 6
REMARK VINA RESULT:      -7.3      3.439      7.374
REMARK  Name = 
REMARK  3 active torsions:
REMARK  status: ('A' for Active; 'I' for Inactive)
REMARK    1  A    between atoms: N_1  and  C_2
REMARK    2  A    between atoms: C_13  and  C_14
REMARK    3  A    between atoms: C_17  and  O_18
REMARK                            x       y       z     vdW  Elec       q    Type
REMARK                         _______ _______ _______ _____ _____    ______ ____
ROOT
ATOM      1  C   UNL     1       3.205   5.721  18.486  0.00  0.00    +0.000 A 
ATOM      2  C   UNL     1       2.584   6.961  18.739  0.00  0.00    +0.000 A 
ATOM      3  C   UNL     1       1.846   7.109  19.924  0.00  0.00    +0.000 A 
ATOM      4  N   UNL     1       1.690   6.105  20.817  0.00  0.00    +0.000 NA
ATOM      5  C   UNL     1       2.300   4.931  20.588  0.00  0.00    +0.000 A 
ATOM      6  C   UNL     1       2.155   3.923  21.534  0.00  0.00    +0.000 A 
ATOM      7  C   UNL     1       2.762   2.672  21.391  0.00  0.00    +0.000 A 
ATOM      8  C   UNL     1       3.544   2.415  20.277  0.00  0.00    +0.000 A 
ATOM      9  C   UNL     1       3.713   3.411  19.318  0.00  0.00    +0.000 A 
ATOM     10  C   UNL     1       3.091   4.681  19.446  0.00  0.00    +0.000 A 
ATOM     11  C   UNL     1       1.215   8.415  20.274  0.00  0.00    +0.000 C 
ATOM     12  C   UNL     1       0.219   8.514  21.182  0.00  0.00    +0.000 C 
ATOM     13  C   UNL     1       1.751   9.595  19.494  0.00  0.00    +0.000 C 
ATOM     14  C   UNL     1       1.755   9.253  18.016  0.00  0.00    +0.000 C 
ATOM     15  C   UNL     1       2.727   8.108  17.764  0.00  0.00    +0.000 C 
ENDROOT
BRANCH  12  16
ATOM     16  C   UNL     1      -0.460   9.782  21.477  0.00  0.00    +0.000 A 
ATOM     17  C   UNL     1      -0.792  10.653  20.430  0.00  0.00    +0.000 A 
ATOM     18  C   UNL     1      -1.283  11.933  20.703  0.00  0.00    +0.000 A 
ATOM     19  C   UNL     1      -1.447  12.332  22.026  0.00  0.00    +0.000 A 
ATOM     20  C   UNL     1      -1.167  11.464  23.075  0.00  0.00    +0.000 A 
ATOM     21  C   UNL     1      -0.668  10.187  22.801  0.00  0.00    +0.000 A 
BRANCH  19  22
ATOM     22  O   UNL     1      -1.864  13.591  22.339  0.00  0.00    +0.000 OA
ATOM     23  H   UNL     1      -1.810  14.142  21.540  0.00  0.00    +0.000 HD
ENDBRANCH  19  22
ENDBRANCH  12  16
BRANCH   1  24
ATOM     24  N   UNL     1       4.117   5.603  17.407  0.00  0.00    +0.000 N 
ATOM     25  H   UNL     1       4.823   4.886  17.518  0.00  0.00    +0.000 HD
ATOM     26  H   UNL     1       4.532   6.478  17.114  0.00  0.00    +0.000 HD
ENDBRANCH   1  24
TORSDOF 3
ENDMDL
MODEL 7
REMARK VINA RESULT:      -7.0      4.001      5.576
REMARK  Name = 
REMARK  3 active torsions:
REMARK  status: ('A' for Active; 'I' for Inactive)
REMARK    1  A    between atoms: N_1  and  C_2
REMARK    2  A    between atoms: C_13  and  C_14
REMARK    3  A    between atoms: C_17  and  O_18
REMARK                            x       y       z     vdW  Elec       q    Type
REMARK                         _______ _______ _______ _____ _____    ______ ____
ROOT
ATOM      1  C   UNL     1       2.575   5.952  19.921  0.00  0.00    +0.000 A 
ATOM      2  C   UNL     1       3.395   5.256  19.008  0.00  0.00    +0.000 A 
ATOM      3  C   UNL     1       3.754   5.896  17.812  0.00  0.00    +0.000 A 
ATOM      4  N   UNL     1       3.326   7.139  17.492  0.00  0.00    +0.000 NA
ATOM      5  C   UNL     1       2.564   7.810  18.370  0.00  0.00    +0.000 A 
ATOM      6  C   UNL     1       2.164   9.100  18.038  0.00  0.00    +0.000 A 
ATOM      7  C   UNL     1       1.381   9.881  18.891  0.00  0.00    +0.000 A 
ATOM      8  C   UNL     1       0.989   9.372  20.119  0.00  0.00    +0.000 A 
ATOM      9  C   UNL     1       1.384   8.086  20.480  0.00  0.00    +0.000 A 
ATOM     10  C   UNL     1       2.168   7.277  19.615  0.00  0.00    +0.000 A 
ATOM     11  C   UNL     1       4.666   5.234  16.834  0.00  0.00    +0.000 C 
ATOM     12  C   UNL     1       4.748   5.627  15.544  0.00  0.00    +0.000 C 
ATOM     13  C   UNL     1       5.443   4.065  17.400  0.00  0.00    +0.000 C 
ATOM     14  C   UNL     1       4.487   3.138  18.125  0.00  0.00    +0.000 C 
ATOM     15  C   UNL     1       3.888   3.862  19.323  0.00  0.00    +0.000 C 
ENDROOT
BRANCH  12  16
ATOM     16  C   UNL     1       5.585   4.934  14.557  0.00  0.00    +0.000 A 
ATOM     17  C   UNL     1       6.898   5.369  14.330  0.00  0.00    +0.000 A 
ATOM     18  C   UNL     1       7.649   4.833  13.280  0.00  0.00    +0.000 A 
ATOM     19  C   UNL     1       7.083   3.857  12.466  0.00  0.00    +0.000 A 
ATOM     20  C   UNL     1       5.800   3.381  12.706  0.00  0.00    +0.000 A 
ATOM     21  C   UNL     1       5.046   3.923  13.751  0.00  0.00    +0.000 A 
BRANCH  19  22
ATOM     22  O   UNL     1       7.758   3.351  11.395  0.00  0.00    +0.000 OA
ATOM     23  H   UNL     1       7.885   2.398  11.531  0.00  0.00    +0.000 HD
ENDBRANCH  19  22
ENDBRANCH  12  16
BRANCH   1  24
ATOM     24  N   UNL     1       2.362   5.417  21.216  0.00  0.00    +0.000 N 
ATOM     25  H   UNL     1       1.391   5.320  21.487  0.00  0.00    +0.000 HD
ATOM     26  H   UNL     1       2.898   5.869  21.947  0.00  0.00    +0.000 HD
ENDBRANCH   1  24
TORSDOF 3
ENDMDL
MODEL 8
REMARK VINA RESULT:      -6.9      3.974      8.199
REMARK  Name = 
REMARK  3 active torsions:
REMARK  status: ('A' for Active; 'I' for Inactive)
REMARK    1  A    between atoms: N_1  and  C_2
REMARK    2  A    between atoms: C_13  and  C_14
REMARK    3  A    between atoms: C_17  and  O_18
REMARK                            x       y       z     vdW  Elec       q    Type
REMARK                         _______ _______ _______ _____ _____    ______ ____
ROOT
ATOM      1  C   UNL     1       3.286   5.516  19.275  0.00  0.00    +0.000 A 
ATOM      2  C   UNL     1       2.539   6.680  19.550  0.00  0.00    +0.000 A 
ATOM      3  C   UNL     1       2.603   7.745  18.638  0.00  0.00    +0.000 A 
ATOM      4  N   UNL     1       3.368   7.707  17.523  0.00  0.00    +0.000 NA
ATOM      5  C   UNL     1       4.061   6.590  17.248  0.00  0.00    +0.000 A 
ATOM      6  C   UNL     1       4.814   6.558  16.080  0.00  0.00    +0.000 A 
ATOM      7  C   UNL     1       5.558   5.437  15.702  0.00  0.00    +0.000 A 
ATOM      8  C   UNL     1       5.550   4.308  16.505  0.00  0.00    +0.000 A 
ATOM      9  C   UNL     1       4.797   4.311  17.677  0.00  0.00    +0.000 A 
ATOM     10  C   UNL     1       4.047   5.448  18.078  0.00  0.00    +0.000 A 
ATOM     11  C   UNL     1       1.790   8.979  18.846  0.00  0.00    +0.000 C 
ATOM     12  C   UNL     1       2.078  10.145  18.226  0.00  0.00    +0.000 C 
ATOM     13  C   UNL     1       0.658   8.820  19.838  0.00  0.00    +0.000 C 
ATOM     14  C   UNL     1       1.195   8.177  21.102  0.00  0.00    +0.000 C 
ATOM     15  C   UNL     1       1.677   6.767  20.789  0.00  0.00    +0.000 C 
ENDROOT
BRANCH  12  16
ATOM     16  C   UNL     1       1.332  11.383  18.482  0.00  0.00    +0.000 A 
ATOM     17  C   UNL     1      -0.066  11.388  18.372  0.00  0.00    +0.000 A 
ATOM     18  C   UNL     1      -0.777  12.588  18.446  0.00  0.00    +0.000 A 
ATOM     19  C   UNL     1      -0.085  13.780  18.636  0.00  0.00    +0.000 A 
ATOM     20  C   UNL     1       1.297  13.788  18.793  0.00  0.00    +0.000 A 
ATOM     21  C   UNL     1       2.008  12.588  18.712  0.00  0.00    +0.000 A 
BRANCH  19  22
ATOM     22  O   UNL     1      -0.732  14.980  18.653  0.00  0.00    +0.000 OA
ATOM     23  H   UNL     1      -1.370  14.977  19.385  0.00  0.00    +0.000 HD
ENDBRANCH  19  22
ENDBRANCH  12  16
BRANCH   1  24
ATOM     24  N   UNL     1       3.087   4.355  20.064  0.00  0.00    +0.000 N 
ATOM     25  H   UNL     1       3.006   3.490  19.543  0.00  0.00    +0.000 HD
ATOM     26  H   UNL     1       2.345   4.437  20.747  0.00  0.00    +0.000 HD
ENDBRANCH   1  24
TORSDOF 3
ENDMDL
MODEL 9
REMARK VINA RESULT:      -6.9      3.883      8.000
REMARK  Name = 
REMARK  3 active torsions:
REMARK  status: ('A' for Active; 'I' for Inactive)
REMARK    1  A    between atoms: N_1  and  C_2
REMARK    2  A    between atoms: C_13  and  C_14
REMARK    3  A    between atoms: C_17  and  O_18
REMARK                            x       y       z     vdW  Elec       q    Type
REMARK                         _______ _______ _______ _____ _____    ______ ____
ROOT
ATOM      1  C   UNL     1       4.711   4.570  18.518  0.00  0.00    +0.000 A 
ATOM      2  C   UNL     1       3.700   5.445  18.968  0.00  0.00    +0.000 A 
ATOM      3  C   UNL     1       3.340   6.526  18.149  0.00  0.00    +0.000 A 
ATOM      4  N   UNL     1       3.939   6.774  16.961  0.00  0.00    +0.000 NA
ATOM      5  C   UNL     1       4.885   5.928  16.521  0.00  0.00    +0.000 A 
ATOM      6  C   UNL     1       5.463   6.180  15.282  0.00  0.00    +0.000 A 
ATOM      7  C   UNL     1       6.446   5.352  14.735  0.00  0.00    +0.000 A 
ATOM      8  C   UNL     1       6.863   4.231  15.435  0.00  0.00    +0.000 A 
ATOM      9  C   UNL     1       6.294   3.951  16.675  0.00  0.00    +0.000 A 
ATOM     10  C   UNL     1       5.304   4.793  17.247  0.00  0.00    +0.000 A 
ATOM     11  C   UNL     1       2.239   7.452  18.544  0.00  0.00    +0.000 C 
ATOM     12  C   UNL     1       2.099   8.681  18.000  0.00  0.00    +0.000 C 
ATOM     13  C   UNL     1       1.333   6.914  19.632  0.00  0.00    +0.000 C 
ATOM     14  C   UNL     1       2.186   6.395  20.774  0.00  0.00    +0.000 C 
ATOM     15  C   UNL     1       3.011   5.209  20.293  0.00  0.00    +0.000 C 
ENDROOT
BRANCH  12  16
ATOM     16  C   UNL     1       1.065   9.627  18.437  0.00  0.00    +0.000 A 
ATOM     17  C   UNL     1       1.274  10.404  19.585  0.00  0.00    +0.000 A 
ATOM     18  C   UNL     1       0.239  11.182  20.111  0.00  0.00    +0.000 A 
ATOM     19  C   UNL     1      -1.001  11.185  19.478  0.00  0.00    +0.000 A 
ATOM     20  C   UNL     1      -1.211  10.456  18.313  0.00  0.00    +0.000 A 
ATOM     21  C   UNL     1      -0.178   9.672  17.792  0.00  0.00    +0.000 A 
BRANCH  19  22
ATOM     22  O   UNL     1      -2.055  11.881  19.991  0.00  0.00    +0.000 OA
ATOM     23  H   UNL     1      -1.947  12.819  19.762  0.00  0.00    +0.000 HD
ENDBRANCH  19  22
ENDBRANCH  12  16
BRANCH   1  24
ATOM     24  N   UNL     1       4.955   3.364  19.221  0.00  0.00    +0.000 N 
ATOM     25  H   UNL     1       5.106   3.470  20.217  0.00  0.00    +0.000 HD
ATOM     26  H   UNL     1       5.669   2.777  18.808  0.00  0.00    +0.000 HD
ENDBRANCH   1  24
TORSDOF 3
ENDMDL
