MODEL 1
REMARK VINA RESULT:      -7.9      0.000      0.000
REMARK  Name = 
REMARK  6 active torsions:
REMARK  status: ('A' for Active; 'I' for Inactive)
REMARK    1  A    between atoms: C_1  and  C_2
REMARK    2  A    between atoms: C_2  and  N_3
REMARK    3  A    between atoms: N_3  and  C_4
REMARK    4  A    between atoms: C_7  and  C_8
REMARK    5  A    between atoms: C_10  and  C_11
REMARK    6  A    between atoms: C_20  and  N_21
REMARK                            x       y       z     vdW  Elec       q    Type
REMARK                         _______ _______ _______ _____ _____    ______ ____
ROOT
ATOM      1  C   UNL     1       4.741   4.761  16.867  0.00  0.00    +0.000 A 
ATOM      2  C   UNL     1       5.042   6.116  16.654  0.00  0.00    +0.000 A 
ATOM      3  C   UNL     1       4.256   7.147  17.190  0.00  0.00    +0.000 A 
ATOM      4  C   UNL     1       3.108   6.865  17.937  0.00  0.00    +0.000 A 
ATOM      5  C   UNL     1       2.754   5.527  18.124  0.00  0.00    +0.000 A 
ATOM      6  C   UNL     1       3.554   4.506  17.582  0.00  0.00    +0.000 A 
ENDROOT
BRANCH   4   7
ATOM      7  C   UNL     1       2.280   7.917  18.514  0.00  0.00    +0.000 A 
ATOM      8  N   UNL     1       1.847   8.055  19.743  0.00  0.00    +0.000 NA
ATOM      9  C   UNL     1       1.113   9.228  19.679  0.00  0.00    +0.000 A 
ATOM     10  N   UNL     1       1.111   9.793  18.458  0.00  0.00    +0.000 NA
ATOM     11  O   UNL     1       1.882   8.927  17.687  0.00  0.00    +0.000 OA
BRANCH   9  12
ATOM     12  C   UNL     1       0.412   9.768  20.845  0.00  0.00    +0.000 A 
ATOM     13  C   UNL     1       0.353   9.034  22.030  0.00  0.00    +0.000 A 
ATOM     14  C   UNL     1      -0.334   9.564  23.117  0.00  0.00    +0.000 A 
ATOM     15  C   UNL     1      -0.943  10.806  22.997  0.00  0.00    +0.000 A 
ATOM     16  C   UNL     1      -0.840  11.475  21.788  0.00  0.00    +0.000 A 
ATOM     17  N   UNL     1      -0.178  10.988  20.716  0.00  0.00    +0.000 NA
ENDBRANCH   9  12
ENDBRANCH   4   7
BRANCH   6  18
ATOM     18  N   UNL     1       3.126   3.140  17.827  0.00  0.00    +0.000 N 
ATOM     19  O   UNL     1       2.098   2.756  17.248  0.00  0.00    +0.000 OA
ATOM     20  O   UNL     1       3.830   2.448  18.574  0.00  0.00    +0.000 OA
ENDBRANCH   6  18
BRANCH   1  21
ATOM     21  N   UNL     1       5.493   3.740  16.258  0.00  0.00    +0.000 N 
ATOM     22  H   UNL     1       5.799   3.035  16.935  0.00  0.00    +0.000 HD
BRANCH  21  24
ATOM     23  C   UNL     1       6.197   3.876  13.925  0.00  0.00    +0.000 C 
ATOM     24  C   UNL     1       6.595   4.118  15.371  0.00  0.00    +0.000 C 
ENDBRANCH  21  24
ENDBRANCH   1  21
TORSDOF 5
ENDMDL
MODEL 2
REMARK VINA RESULT:      -7.8      0.602      1.200
REMARK  Name = 
REMARK  6 active torsions:
REMARK  status: ('A' for Active; 'I' for Inactive)
REMARK    1  A    between atoms: C_1  and  C_2
REMARK    2  A    between atoms: C_2  and  N_3
REMARK    3  A    between atoms: N_3  and  C_4
REMARK    4  A    between atoms: C_7  and  C_8
REMARK    5  A    between atoms: C_10  and  C_11
REMARK    6  A    between atoms: C_20  and  N_21
REMARK                            x       y       z     vdW  Elec       q    Type
REMARK                         _______ _______ _______ _____ _____    ______ ____
ROOT
ATOM      1  C   UNL     1       4.902   4.727  16.931  0.00  0.00    +0.000 A 
ATOM      2  C   UNL     1       5.232   6.086  16.806  0.00  0.00    +0.000 A 
ATOM      3  C   UNL     1       4.416   7.103  17.323  0.00  0.00    +0.000 A 
ATOM      4  C   UNL     1       3.208   6.804  17.962  0.00  0.00    +0.000 A 
ATOM      5  C   UNL     1       2.826   5.464  18.057  0.00  0.00    +0.000 A 
ATOM      6  C   UNL     1       3.658   4.457  17.535  0.00  0.00    +0.000 A 
ENDROOT
BRANCH   4   7
ATOM      7  C   UNL     1       2.347   7.840  18.517  0.00  0.00    +0.000 A 
ATOM      8  N   UNL     1       1.915   7.993  19.744  0.00  0.00    +0.000 NA
ATOM      9  C   UNL     1       1.141   9.137  19.656  0.00  0.00    +0.000 A 
ATOM     10  N   UNL     1       1.113   9.672  18.422  0.00  0.00    +0.000 NA
ATOM     11  O   UNL     1       1.911   8.816  17.669  0.00  0.00    +0.000 OA
BRANCH   9  12
ATOM     12  C   UNL     1       0.426   9.681  20.813  0.00  0.00    +0.000 A 
ATOM     13  C   UNL     1      -0.235  10.904  20.718  0.00  0.00    +0.000 A 
ATOM     14  C   UNL     1      -0.892  11.405  21.837  0.00  0.00    +0.000 A 
ATOM     15  C   UNL     1      -0.874  10.675  23.019  0.00  0.00    +0.000 A 
ATOM     16  C   UNL     1      -0.198   9.466  23.035  0.00  0.00    +0.000 A 
ATOM     17  N   UNL     1       0.447   8.954  21.964  0.00  0.00    +0.000 NA
ENDBRANCH   9  12
ENDBRANCH   4   7
BRANCH   6  18
ATOM     18  N   UNL     1       3.197   3.087  17.682  0.00  0.00    +0.000 N 
ATOM     19  O   UNL     1       3.899   2.321  18.359  0.00  0.00    +0.000 OA
ATOM     20  O   UNL     1       2.122   2.788  17.143  0.00  0.00    +0.000 OA
ENDBRANCH   6  18
BRANCH   1  21
ATOM     21  N   UNL     1       5.690   3.724  16.338  0.00  0.00    +0.000 N 
ATOM     22  H   UNL     1       6.138   3.127  17.039  0.00  0.00    +0.000 HD
BRANCH  21  24
ATOM     23  C   UNL     1       6.002   3.972  13.930  0.00  0.00    +0.000 C 
ATOM     24  C   UNL     1       6.647   4.110  15.300  0.00  0.00    +0.000 C 
ENDBRANCH  21  24
ENDBRANCH   1  21
TORSDOF 5
ENDMDL
MODEL 3
REMARK VINA RESULT:      -7.6      0.935      1.347
REMARK  Name = 
REMARK  6 active torsions:
REMARK  status: ('A' for Active; 'I' for Inactive)
REMARK    1  A    between atoms: C_1  and  C_2
REMARK    2  A    between atoms: C_2  and  N_3
REMARK    3  A    between atoms: N_3  and  C_4
REMARK    4  A    between atoms: C_7  and  C_8
REMARK    5  A    between atoms: C_10  and  C_11
REMARK    6  A    between atoms: C_20  and  N_21
REMARK                            x       y       z     vdW  Elec       q    Type
REMARK                         _______ _______ _______ _____ _____    ______ ____
ROOT
ATOM      1  C   UNL     1       4.912   5.040  17.243  0.00  0.00    +0.000 A 
ATOM      2  C   UNL     1       4.806   6.298  16.631  0.00  0.00    +0.000 A 
ATOM      3  C   UNL     1       3.917   7.281  17.095  0.00  0.00    +0.000 A 
ATOM      4  C   UNL     1       3.067   7.031  18.177  0.00  0.00    +0.000 A 
ATOM      5  C   UNL     1       3.113   5.770  18.775  0.00  0.00    +0.000 A 
ATOM      6  C   UNL     1       4.011   4.798  18.300  0.00  0.00    +0.000 A 
ENDROOT
BRANCH   4   7
ATOM      7  C   UNL     1       2.142   8.036  18.685  0.00  0.00    +0.000 A 
ATOM      8  N   UNL     1       1.763   8.271  19.917  0.00  0.00    +0.000 NA
ATOM      9  C   UNL     1       0.882   9.328  19.770  0.00  0.00    +0.000 A 
ATOM     10  N   UNL     1       0.739   9.734  18.495  0.00  0.00    +0.000 NA
ATOM     11  O   UNL     1       1.572   8.882  17.778  0.00  0.00    +0.000 OA
BRANCH   9  12
ATOM     12  C   UNL     1       0.181   9.918  20.913  0.00  0.00    +0.000 A 
ATOM     13  C   UNL     1       0.072   9.210  22.110  0.00  0.00    +0.000 A 
ATOM     14  C   UNL     1      -0.613   9.787  23.174  0.00  0.00    +0.000 A 
ATOM     15  C   UNL     1      -1.170  11.050  23.019  0.00  0.00    +0.000 A 
ATOM     16  C   UNL     1      -1.019  11.691  21.800  0.00  0.00    +0.000 A 
ATOM     17  N   UNL     1      -0.358  11.157  20.750  0.00  0.00    +0.000 NA
ENDBRANCH   9  12
ENDBRANCH   4   7
BRANCH   6  18
ATOM     18  N   UNL     1       4.007   3.515  18.980  0.00  0.00    +0.000 N 
ATOM     19  O   UNL     1       5.040   3.189  19.584  0.00  0.00    +0.000 OA
ATOM     20  O   UNL     1       2.963   2.849  18.932  0.00  0.00    +0.000 OA
ENDBRANCH   6  18
BRANCH   1  21
ATOM     21  N   UNL     1       5.750   4.039  16.719  0.00  0.00    +0.000 N 
ATOM     22  H   UNL     1       5.622   3.143  17.199  0.00  0.00    +0.000 HD
BRANCH  21  24
ATOM     23  C   UNL     1       7.789   4.676  17.899  0.00  0.00    +0.000 C 
ATOM     24  C   UNL     1       7.174   4.336  16.552  0.00  0.00    +0.000 C 
ENDBRANCH  21  24
ENDBRANCH   1  21
TORSDOF 5
ENDMDL
MODEL 4
REMARK VINA RESULT:      -7.4      2.167      2.757
REMARK  Name = 
REMARK  6 active torsions:
REMARK  status: ('A' for Active; 'I' for Inactive)
REMARK    1  A    between atoms: C_1  and  C_2
REMARK    2  A    between atoms: C_2  and  N_3
REMARK    3  A    between atoms: N_3  and  C_4
REMARK    4  A    between atoms: C_7  and  C_8
REMARK    5  A    between atoms: C_10  and  C_11
REMARK    6  A    between atoms: C_20  and  N_21
REMARK                            x       y       z     vdW  Elec       q    Type
REMARK                         _______ _______ _______ _____ _____    ______ ____
ROOT
ATOM      1  C   UNL     1       5.441   4.370  16.795  0.00  0.00    +0.000 A 
ATOM      2  C   UNL     1       4.053   4.187  16.686  0.00  0.00    +0.000 A 
ATOM      3  C   UNL     1       3.148   4.809  17.559  0.00  0.00    +0.000 A 
ATOM      4  C   UNL     1       3.597   5.619  18.606  0.00  0.00    +0.000 A 
ATOM      5  C   UNL     1       4.975   5.780  18.773  0.00  0.00    +0.000 A 
ATOM      6  C   UNL     1       5.868   5.152  17.887  0.00  0.00    +0.000 A 
ENDROOT
BRANCH   4   7
ATOM      7  C   UNL     1       2.678   6.285  19.521  0.00  0.00    +0.000 A 
ATOM      8  N   UNL     1       2.348   7.551  19.593  0.00  0.00    +0.000 NA
ATOM      9  C   UNL     1       1.454   7.574  20.650  0.00  0.00    +0.000 A 
ATOM     10  N   UNL     1       1.236   6.364  21.195  0.00  0.00    +0.000 NA
ATOM     11  O   UNL     1       2.044   5.511  20.449  0.00  0.00    +0.000 OA
BRANCH   9  12
ATOM     12  C   UNL     1       0.832   8.817  21.112  0.00  0.00    +0.000 A 
ATOM     13  C   UNL     1       0.268   8.889  22.385  0.00  0.00    +0.000 A 
ATOM     14  C   UNL     1      -0.331  10.077  22.791  0.00  0.00    +0.000 A 
ATOM     15  C   UNL     1      -0.352  11.159  21.921  0.00  0.00    +0.000 A 
ATOM     16  C   UNL     1       0.231  11.012  20.673  0.00  0.00    +0.000 A 
ATOM     17  N   UNL     1       0.821   9.872  20.252  0.00  0.00    +0.000 NA
ENDBRANCH   9  12
ENDBRANCH   4   7
BRANCH   6  18
ATOM     18  N   UNL     1       7.284   5.375  18.119  0.00  0.00    +0.000 N 
ATOM     19  O   UNL     1       8.008   4.372  18.218  0.00  0.00    +0.000 OA
ATOM     20  O   UNL     1       7.673   6.550  18.175  0.00  0.00    +0.000 OA
ENDBRANCH   6  18
BRANCH   1  21
ATOM     21  N   UNL     1       6.339   3.678  15.962  0.00  0.00    +0.000 N 
ATOM     22  H   UNL     1       7.120   3.280  16.490  0.00  0.00    +0.000 HD
BRANCH  21  24
ATOM     23  C   UNL     1       6.081   3.797  13.538  0.00  0.00    +0.000 C 
ATOM     24  C   UNL     1       6.820   4.342  14.749  0.00  0.00    +0.000 C 
ENDBRANCH  21  24
ENDBRANCH   1  21
TORSDOF 5
ENDMDL
MODEL 5
REMARK VINA RESULT:      -7.4      1.893      2.408
REMARK  Name = 
REMARK  6 active torsions:
REMARK  status: ('A' for Active; 'I' for Inactive)
REMARK    1  A    between atoms: C_1  and  C_2
REMARK    2  A    between atoms: C_2  and  N_3
REMARK    3  A    between atoms: N_3  and  C_4
REMARK    4  A    between atoms: C_7  and  C_8
REMARK    5  A    between atoms: C_10  and  C_11
REMARK    6  A    between atoms: C_20  and  N_21
REMARK                            x       y       z     vdW  Elec       q    Type
REMARK                         _______ _______ _______ _____ _____    ______ ____
ROOT
ATOM      1  C   UNL     1       4.783   4.733  16.834  0.00  0.00    +0.000 A 
ATOM      2  C   UNL     1       5.142   6.077  16.641  0.00  0.00    +0.000 A 
ATOM      3  C   UNL     1       4.381   7.135  17.162  0.00  0.00    +0.000 A 
ATOM      4  C   UNL     1       3.202   6.893  17.872  0.00  0.00    +0.000 A 
ATOM      5  C   UNL     1       2.790   5.568  18.037  0.00  0.00    +0.000 A 
ATOM      6  C   UNL     1       3.566   4.520  17.511  0.00  0.00    +0.000 A 
ENDROOT
BRANCH   4   7
ATOM      7  C   UNL     1       2.398   7.972  18.432  0.00  0.00    +0.000 A 
ATOM      8  N   UNL     1       2.062   9.121  17.900  0.00  0.00    +0.000 NA
ATOM      9  C   UNL     1       1.310   9.713  18.901  0.00  0.00    +0.000 A 
ATOM     10  N   UNL     1       1.179   8.946  19.998  0.00  0.00    +0.000 NA
ATOM     11  O   UNL     1       1.897   7.795  19.689  0.00  0.00    +0.000 OA
BRANCH   9  12
ATOM     12  C   UNL     1       0.735  11.052  18.749  0.00  0.00    +0.000 A 
ATOM     13  C   UNL     1       1.565  12.171  18.704  0.00  0.00    +0.000 A 
ATOM     14  C   UNL     1       0.992  13.432  18.576  0.00  0.00    +0.000 A 
ATOM     15  C   UNL     1      -0.391  13.544  18.496  0.00  0.00    +0.000 A 
ATOM     16  C   UNL     1      -1.149  12.386  18.547  0.00  0.00    +0.000 A 
ATOM     17  N   UNL     1      -0.620  11.149  18.669  0.00  0.00    +0.000 NA
ENDBRANCH   9  12
ENDBRANCH   4   7
BRANCH   6  18
ATOM     18  N   UNL     1       3.077   3.171  17.733  0.00  0.00    +0.000 N 
ATOM     19  O   UNL     1       3.845   2.374  18.295  0.00  0.00    +0.000 OA
ATOM     20  O   UNL     1       1.920   2.917  17.369  0.00  0.00    +0.000 OA
ENDBRANCH   6  18
BRANCH   1  21
ATOM     21  N   UNL     1       5.513   3.688  16.240  0.00  0.00    +0.000 N 
ATOM     22  H   UNL     1       5.838   3.008  16.933  0.00  0.00    +0.000 HD
BRANCH  21  24
ATOM     23  C   UNL     1       6.111   3.815  13.877  0.00  0.00    +0.000 C 
ATOM     24  C   UNL     1       6.587   4.028  15.305  0.00  0.00    +0.000 C 
ENDBRANCH  21  24
ENDBRANCH   1  21
TORSDOF 5
ENDMDL
MODEL 6
REMARK VINA RESULT:      -7.4      1.784      2.259
REMARK  Name = 
REMARK  6 active torsions:
REMARK  status: ('A' for Active; 'I' for Inactive)
REMARK    1  A    between atoms: C_1  and  C_2
REMARK    2  A    between atoms: C_2  and  N_3
REMARK    3  A    between atoms: N_3  and  C_4
REMARK    4  A    between atoms: C_7  and  C_8
REMARK    5  A    between atoms: C_10  and  C_11
REMARK    6  A    between atoms: C_20  and  N_21
REMARK                            x       y       z     vdW  Elec       q    Type
REMARK                         _______ _______ _______ _____ _____    ______ ____
ROOT
ATOM      1  C   UNL     1       4.931   4.730  17.050  0.00  0.00    +0.000 A 
ATOM      2  C   UNL     1       3.559   4.501  17.234  0.00  0.00    +0.000 A 
ATOM      3  C   UNL     1       2.701   5.484  17.752  0.00  0.00    +0.000 A 
ATOM      4  C   UNL     1       3.190   6.734  18.144  0.00  0.00    +0.000 A 
ATOM      5  C   UNL     1       4.560   6.975  18.021  0.00  0.00    +0.000 A 
ATOM      6  C   UNL     1       5.405   5.980  17.497  0.00  0.00    +0.000 A 
ENDROOT
BRANCH   4   7
ATOM      7  C   UNL     1       2.320   7.775  18.676  0.00  0.00    +0.000 A 
ATOM      8  N   UNL     1       1.894   7.958  19.901  0.00  0.00    +0.000 NA
ATOM      9  C   UNL     1       1.107   9.091  19.785  0.00  0.00    +0.000 A 
ATOM     10  N   UNL     1       1.066   9.591  18.537  0.00  0.00    +0.000 NA
ATOM     11  O   UNL     1       1.868   8.722  17.803  0.00  0.00    +0.000 OA
BRANCH   9  12
ATOM     12  C   UNL     1       0.393   9.659  20.931  0.00  0.00    +0.000 A 
ATOM     13  C   UNL     1       0.438   9.023  22.171  0.00  0.00    +0.000 A 
ATOM     14  C   UNL     1      -0.263   9.575  23.238  0.00  0.00    +0.000 A 
ATOM     15  C   UNL     1      -0.988  10.743  23.043  0.00  0.00    +0.000 A 
ATOM     16  C   UNL     1      -0.984  11.318  21.783  0.00  0.00    +0.000 A 
ATOM     17  N   UNL     1      -0.311  10.806  20.729  0.00  0.00    +0.000 NA
ENDBRANCH   9  12
ENDBRANCH   4   7
BRANCH   6  18
ATOM     18  N   UNL     1       6.815   6.310  17.391  0.00  0.00    +0.000 N 
ATOM     19  O   UNL     1       7.131   7.202  16.590  0.00  0.00    +0.000 OA
ATOM     20  O   UNL     1       7.600   5.695  18.127  0.00  0.00    +0.000 OA
ENDBRANCH   6  18
BRANCH   1  21
ATOM     21  N   UNL     1       5.791   3.710  16.604  0.00  0.00    +0.000 N 
ATOM     22  H   UNL     1       6.426   3.396  17.343  0.00  0.00    +0.000 HD
BRANCH  21  24
ATOM     23  C   UNL     1       5.533   4.210  14.229  0.00  0.00    +0.000 C 
ATOM     24  C   UNL     1       6.517   3.908  15.348  0.00  0.00    +0.000 C 
ENDBRANCH  21  24
ENDBRANCH   1  21
TORSDOF 5
ENDMDL
MODEL 7
REMARK VINA RESULT:      -7.3      6.736      9.820
REMARK  Name = 
REMARK  6 active torsions:
REMARK  status: ('A' for Active; 'I' for Inactive)
REMARK    1  A    between atoms: C_1  and  C_2
REMARK    2  A    between atoms: C_2  and  N_3
REMARK    3  A    between atoms: N_3  and  C_4
REMARK    4  A    between atoms: C_7  and  C_8
REMARK    5  A    between atoms: C_10  and  C_11
REMARK    6  A    between atoms: C_20  and  N_21
REMARK                            x       y       z     vdW  Elec       q    Type
REMARK                         _______ _______ _______ _____ _____    ______ ____
ROOT
ATOM      1  C   UNL     1       9.409  12.945  18.651  0.00  0.00    +0.000 A 
ATOM      2  C   UNL     1       8.579  12.567  17.584  0.00  0.00    +0.000 A 
ATOM      3  C   UNL     1       8.182  11.236  17.382  0.00  0.00    +0.000 A 
ATOM      4  C   UNL     1       8.630  10.214  18.225  0.00  0.00    +0.000 A 
ATOM      5  C   UNL     1       9.497  10.551  19.267  0.00  0.00    +0.000 A 
ATOM      6  C   UNL     1       9.883  11.890  19.456  0.00  0.00    +0.000 A 
ENDROOT
BRANCH   4   7
ATOM      7  C   UNL     1       8.225   8.826  18.044  0.00  0.00    +0.000 A 
ATOM      8  N   UNL     1       7.523   8.283  17.081  0.00  0.00    +0.000 NA
ATOM      9  C   UNL     1       7.463   6.952  17.459  0.00  0.00    +0.000 A 
ATOM     10  N   UNL     1       8.118   6.690  18.605  0.00  0.00    +0.000 NA
ATOM     11  O   UNL     1       8.622   7.928  18.992  0.00  0.00    +0.000 OA
BRANCH   9  12
ATOM     12  C   UNL     1       6.738   5.954  16.669  0.00  0.00    +0.000 A 
ATOM     13  C   UNL     1       5.490   5.499  17.089  0.00  0.00    +0.000 A 
ATOM     14  C   UNL     1       4.831   4.538  16.328  0.00  0.00    +0.000 A 
ATOM     15  C   UNL     1       5.432   4.058  15.172  0.00  0.00    +0.000 A 
ATOM     16  C   UNL     1       6.674   4.560  14.818  0.00  0.00    +0.000 A 
ATOM     17  N   UNL     1       7.336   5.494  15.536  0.00  0.00    +0.000 NA
ENDBRANCH   9  12
ENDBRANCH   4   7
BRANCH   6  18
ATOM     18  N   UNL     1      10.779  12.161  20.567  0.00  0.00    +0.000 N 
ATOM     19  O   UNL     1      11.995  12.034  20.358  0.00  0.00    +0.000 OA
ATOM     20  O   UNL     1      10.268  12.526  21.634  0.00  0.00    +0.000 OA
ENDBRANCH   6  18
BRANCH   1  21
ATOM     21  N   UNL     1       9.861  14.269  18.795  0.00  0.00    +0.000 N 
ATOM     22  H   UNL     1       9.091  14.943  18.750  0.00  0.00    +0.000 HD
BRANCH  21  24
ATOM     23  C   UNL     1      10.629  16.020  17.278  0.00  0.00    +0.000 C 
ATOM     24  C   UNL     1      10.986  14.716  17.971  0.00  0.00    +0.000 C 
ENDBRANCH  21  24
ENDBRANCH   1  21
TORSDOF 5
ENDMDL
MODEL 8
REMARK VINA RESULT:      -7.3      2.291      2.648
REMARK  Name = 
REMARK  6 active torsions:
REMARK  status: ('A' for Active; 'I' for Inactive)
REMARK    1  A    between atoms: C_1  and  C_2
REMARK    2  A    between atoms: C_2  and  N_3
REMARK    3  A    between atoms: N_3  and  C_4
REMARK    4  A    between atoms: C_7  and  C_8
REMARK    5  A    between atoms: C_10  and  C_11
REMARK    6  A    between atoms: C_20  and  N_21
REMARK                            x       y       z     vdW  Elec       q    Type
REMARK                         _______ _______ _______ _____ _____    ______ ____
ROOT
ATOM      1  C   UNL     1       3.787   3.872  19.523  0.00  0.00    +0.000 A 
ATOM      2  C   UNL     1       4.138   4.953  18.699  0.00  0.00    +0.000 A 
ATOM      3  C   UNL     1       3.508   6.203  18.800  0.00  0.00    +0.000 A 
ATOM      4  C   UNL     1       2.469   6.415  19.710  0.00  0.00    +0.000 A 
ATOM      5  C   UNL     1       2.061   5.344  20.509  0.00  0.00    +0.000 A 
ATOM      6  C   UNL     1       2.706   4.099  20.397  0.00  0.00    +0.000 A 
ENDROOT
BRANCH   4   7
ATOM      7  C   UNL     1       1.804   7.706  19.843  0.00  0.00    +0.000 A 
ATOM      8  N   UNL     1       1.077   8.170  20.829  0.00  0.00    +0.000 NA
ATOM      9  C   UNL     1       0.720   9.430  20.379  0.00  0.00    +0.000 A 
ATOM     10  N   UNL     1       1.223   9.729  19.168  0.00  0.00    +0.000 NA
ATOM     11  O   UNL     1       1.941   8.591  18.813  0.00  0.00    +0.000 OA
BRANCH   9  12
ATOM     12  C   UNL     1      -0.134  10.321  21.168  0.00  0.00    +0.000 A 
ATOM     13  C   UNL     1      -0.429  10.016  22.495  0.00  0.00    +0.000 A 
ATOM     14  C   UNL     1      -1.256  10.871  23.217  0.00  0.00    +0.000 A 
ATOM     15  C   UNL     1      -1.766  12.005  22.597  0.00  0.00    +0.000 A 
ATOM     16  C   UNL     1      -1.426  12.242  21.275  0.00  0.00    +0.000 A 
ATOM     17  N   UNL     1      -0.625  11.431  20.551  0.00  0.00    +0.000 NA
ENDBRANCH   9  12
ENDBRANCH   4   7
BRANCH   6  18
ATOM     18  N   UNL     1       2.232   3.038  21.268  0.00  0.00    +0.000 N 
ATOM     19  O   UNL     1       1.022   2.767  21.226  0.00  0.00    +0.000 OA
ATOM     20  O   UNL     1       3.073   2.459  21.970  0.00  0.00    +0.000 OA
ENDBRANCH   6  18
BRANCH   1  21
ATOM     21  N   UNL     1       4.374   2.604  19.357  0.00  0.00    +0.000 N 
ATOM     22  H   UNL     1       5.318   2.668  18.965  0.00  0.00    +0.000 HD
BRANCH  21  24
ATOM     23  C   UNL     1       2.787   2.178  17.552  0.00  0.00    +0.000 C 
ATOM     24  C   UNL     1       3.603   1.562  18.677  0.00  0.00    +0.000 C 
ENDBRANCH  21  24
ENDBRANCH   1  21
TORSDOF 5
ENDMDL
MODEL 9
REMARK VINA RESULT:      -7.2      1.591      2.156
REMARK  Name = 
REMARK  6 active torsions:
REMARK  status: ('A' for Active; 'I' for Inactive)
REMARK    1  A    between atoms: C_1  and  C_2
REMARK    2  A    between atoms: C_2  and  N_3
REMARK    3  A    between atoms: N_3  and  C_4
REMARK    4  A    between atoms: C_7  and  C_8
REMARK    5  A    between atoms: C_10  and  C_11
REMARK    6  A    between atoms: C_20  and  N_21
REMARK                            x       y       z     vdW  Elec       q    Type
REMARK                         _______ _______ _______ _____ _____    ______ ____
ROOT
ATOM      1  C   UNL     1       5.083   4.833  17.034  0.00  0.00    +0.000 A 
ATOM      2  C   UNL     1       4.938   6.143  16.551  0.00  0.00    +0.000 A 
ATOM      3  C   UNL     1       4.072   7.069  17.153  0.00  0.00    +0.000 A 
ATOM      4  C   UNL     1       3.283   6.710  18.250  0.00  0.00    +0.000 A 
ATOM      5  C   UNL     1       3.366   5.398  18.723  0.00  0.00    +0.000 A 
ATOM      6  C   UNL     1       4.241   4.485  18.109  0.00  0.00    +0.000 A 
ENDROOT
BRANCH   4   7
ATOM      7  C   UNL     1       2.383   7.654  18.901  0.00  0.00    +0.000 A 
ATOM      8  N   UNL     1       1.735   8.672  18.391  0.00  0.00    +0.000 NA
ATOM      9  C   UNL     1       1.058   9.184  19.486  0.00  0.00    +0.000 A 
ATOM     10  N   UNL     1       1.274   8.493  20.620  0.00  0.00    +0.000 NA
ATOM     11  O   UNL     1       2.149   7.482  20.234  0.00  0.00    +0.000 OA
BRANCH   9  12
ATOM     12  C   UNL     1       0.206  10.370  19.385  0.00  0.00    +0.000 A 
ATOM     13  C   UNL     1      -0.653  10.526  18.298  0.00  0.00    +0.000 A 
ATOM     14  C   UNL     1      -1.440  11.671  18.218  0.00  0.00    +0.000 A 
ATOM     15  C   UNL     1      -1.350  12.627  19.222  0.00  0.00    +0.000 A 
ATOM     16  C   UNL     1      -0.475  12.401  20.271  0.00  0.00    +0.000 A 
ATOM     17  N   UNL     1       0.300  11.299  20.375  0.00  0.00    +0.000 NA
ENDBRANCH   9  12
ENDBRANCH   4   7
BRANCH   6  18
ATOM     18  N   UNL     1       4.279   3.143  18.664  0.00  0.00    +0.000 N 
ATOM     19  O   UNL     1       4.865   2.993  19.747  0.00  0.00    +0.000 OA
ATOM     20  O   UNL     1       3.701   2.248  18.030  0.00  0.00    +0.000 OA
ENDBRANCH   6  18
BRANCH   1  21
ATOM     21  N   UNL     1       5.895   3.894  16.372  0.00  0.00    +0.000 N 
ATOM     22  H   UNL     1       6.410   3.303  17.031  0.00  0.00    +0.000 HD
BRANCH  21  24
ATOM     23  C   UNL     1       6.199   3.974  13.952  0.00  0.00    +0.000 C 
ATOM     24  C   UNL     1       6.777   4.365  15.303  0.00  0.00    +0.000 C 
ENDBRANCH  21  24
ENDBRANCH   1  21
TORSDOF 5
ENDMDL
