MODEL 1
REMARK VINA RESULT:      -7.4      0.000      0.000
REMARK  Name = 
REMARK  4 active torsions:
REMARK  status: ('A' for Active; 'I' for Inactive)
REMARK    1  A    between atoms: C_1  and  C_2
REMARK    2  A    between atoms: C_2  and  O_3
REMARK    3  A    between atoms: C_2  and  C_4
REMARK    4  A    between atoms: C_8  and  N_9
REMARK                            x       y       z     vdW  Elec       q    Type
REMARK                         _______ _______ _______ _____ _____    ______ ____
ROOT
ATOM      1  N   UNL     1      -0.273  11.416  22.251  0.00  0.00    +0.000 N 
ATOM      2  C   UNL     1      -0.251   9.957  22.438  0.00  0.00    +0.000 C 
ATOM      3  C   UNL     1      -0.414   9.224  21.089  0.00  0.00    +0.000 C 
ATOM      4  N   UNL     1       0.514   9.739  20.076  0.00  0.00    +0.000 N 
ATOM      5  C   UNL     1       1.355   8.881  19.408  0.00  0.00    +0.000 A 
ATOM      6  C   UNL     1       1.797   9.165  18.117  0.00  0.00    +0.000 A 
ATOM      7  C   UNL     1       2.656   8.289  17.460  0.00  0.00    +0.000 A 
ATOM      8  C   UNL     1       3.080   7.129  18.106  0.00  0.00    +0.000 A 
ATOM      9  C   UNL     1       3.961   6.224  17.488  0.00  0.00    +0.000 A 
ATOM     10  C   UNL     1       4.373   5.078  18.159  0.00  0.00    +0.000 A 
ATOM     11  C   UNL     1       3.902   4.833  19.444  0.00  0.00    +0.000 A 
ATOM     12  C   UNL     1       3.022   5.738  20.049  0.00  0.00    +0.000 A 
ATOM     13  C   UNL     1       2.593   6.893  19.404  0.00  0.00    +0.000 A 
ATOM     14  N   UNL     1       1.746   7.743  20.024  0.00  0.00    +0.000 NA
ATOM     15  C   UNL     1       0.526  11.198  19.894  0.00  0.00    +0.000 C 
ATOM     16  C   UNL     1       0.665  11.932  21.247  0.00  0.00    +0.000 C 
ENDROOT
BRANCH   1  21
ATOM     17  C   UNL     1      -1.575  14.252  23.995  0.00  0.00    +0.000 A 
ATOM     18  N   UNL     1      -2.881  13.973  24.199  0.00  0.00    +0.000 NA
ATOM     19  C   UNL     1      -3.299  12.790  23.733  0.00  0.00    +0.000 A 
ATOM     20  C   UNL     1      -2.477  11.908  23.068  0.00  0.00    +0.000 A 
ATOM     21  C   UNL     1      -1.149  12.257  22.899  0.00  0.00    +0.000 A 
ATOM     22  N   UNL     1      -0.694  13.433  23.378  0.00  0.00    +0.000 NA
BRANCH  17  24
ATOM     23  C   UNL     1      -1.189  15.729  25.969  0.00  0.00    +0.000 C 
ATOM     24  C   UNL     1      -1.111  15.626  24.450  0.00  0.00    +0.000 C 
BRANCH  24  25
ATOM     25  O   UNL     1       0.259  15.865  24.080  0.00  0.00    +0.000 OA
ATOM     26  H   UNL     1       0.562  16.570  24.689  0.00  0.00    +0.000 HD
ENDBRANCH  24  25
ENDBRANCH  17  24
ENDBRANCH   1  21
TORSDOF 3
ENDMDL
MODEL 2
REMARK VINA RESULT:      -7.4      4.269      9.072
REMARK  Name = 
REMARK  4 active torsions:
REMARK  status: ('A' for Active; 'I' for Inactive)
REMARK    1  A    between atoms: C_1  and  C_2
REMARK    2  A    between atoms: C_2  and  O_3
REMARK    3  A    between atoms: C_2  and  C_4
REMARK    4  A    between atoms: C_8  and  N_9
REMARK                            x       y       z     vdW  Elec       q    Type
REMARK                         _______ _______ _______ _____ _____    ______ ____
ROOT
ATOM      1  N   UNL     1       2.613   7.086  18.885  0.00  0.00    +0.000 N 
ATOM      2  C   UNL     1       2.874   8.132  17.883  0.00  0.00    +0.000 C 
ATOM      3  C   UNL     1       1.656   9.070  17.733  0.00  0.00    +0.000 C 
ATOM      4  N   UNL     1       1.181   9.555  19.034  0.00  0.00    +0.000 N 
ATOM      5  C   UNL     1       1.049  10.904  19.263  0.00  0.00    +0.000 A 
ATOM      6  C   UNL     1       0.111  11.391  20.172  0.00  0.00    +0.000 A 
ATOM      7  C   UNL     1      -0.003  12.760  20.398  0.00  0.00    +0.000 A 
ATOM      8  C   UNL     1       0.835  13.640  19.716  0.00  0.00    +0.000 A 
ATOM      9  C   UNL     1       0.767  15.030  19.925  0.00  0.00    +0.000 A 
ATOM     10  C   UNL     1       1.620  15.885  19.235  0.00  0.00    +0.000 A 
ATOM     11  C   UNL     1       2.536  15.354  18.334  0.00  0.00    +0.000 A 
ATOM     12  C   UNL     1       2.593  13.970  18.130  0.00  0.00    +0.000 A 
ATOM     13  C   UNL     1       1.754  13.090  18.805  0.00  0.00    +0.000 A 
ATOM     14  N   UNL     1       1.842  11.760  18.582  0.00  0.00    +0.000 NA
ATOM     15  C   UNL     1       0.941   8.527  20.056  0.00  0.00    +0.000 C 
ATOM     16  C   UNL     1       2.150   7.574  20.190  0.00  0.00    +0.000 C 
ENDROOT
BRANCH   1  21
ATOM     17  C   UNL     1       2.162   3.550  19.149  0.00  0.00    +0.000 A 
ATOM     18  N   UNL     1       2.883   3.025  18.135  0.00  0.00    +0.000 NA
ATOM     19  C   UNL     1       3.532   3.909  17.369  0.00  0.00    +0.000 A 
ATOM     20  C   UNL     1       3.466   5.271  17.566  0.00  0.00    +0.000 A 
ATOM     21  C   UNL     1       2.712   5.738  18.627  0.00  0.00    +0.000 A 
ATOM     22  N   UNL     1       2.065   4.869  19.431  0.00  0.00    +0.000 NA
BRANCH  17  24
ATOM     23  C   UNL     1       1.514   2.869  21.460  0.00  0.00    +0.000 C 
ATOM     24  C   UNL     1       1.359   2.559  19.976  0.00  0.00    +0.000 C 
BRANCH  24  25
ATOM     25  O   UNL     1      -0.046   2.640  19.672  0.00  0.00    +0.000 OA
ATOM     26  H   UNL     1      -0.494   2.547  20.538  0.00  0.00    +0.000 HD
ENDBRANCH  24  25
ENDBRANCH  17  24
ENDBRANCH   1  21
TORSDOF 3
ENDMDL
MODEL 3
REMARK VINA RESULT:      -7.4      4.558      9.078
REMARK  Name = 
REMARK  4 active torsions:
REMARK  status: ('A' for Active; 'I' for Inactive)
REMARK    1  A    between atoms: C_1  and  C_2
REMARK    2  A    between atoms: C_2  and  O_3
REMARK    3  A    between atoms: C_2  and  C_4
REMARK    4  A    between atoms: C_8  and  N_9
REMARK                            x       y       z     vdW  Elec       q    Type
REMARK                         _______ _______ _______ _____ _____    ______ ____
ROOT
ATOM      1  N   UNL     1       2.163   7.258  19.610  0.00  0.00    +0.000 N 
ATOM      2  C   UNL     1       2.626   8.098  18.494  0.00  0.00    +0.000 C 
ATOM      3  C   UNL     1       1.544   9.122  18.086  0.00  0.00    +0.000 C 
ATOM      4  N   UNL     1       1.026   9.855  19.247  0.00  0.00    +0.000 N 
ATOM      5  C   UNL     1       1.035  11.229  19.259  0.00  0.00    +0.000 A 
ATOM      6  C   UNL     1       0.091  11.950  19.988  0.00  0.00    +0.000 A 
ATOM      7  C   UNL     1       0.122  13.342  19.995  0.00  0.00    +0.000 A 
ATOM      8  C   UNL     1       1.110  14.010  19.276  0.00  0.00    +0.000 A 
ATOM      9  C   UNL     1       1.190  15.414  19.268  0.00  0.00    +0.000 A 
ATOM     10  C   UNL     1       2.191  16.055  18.546  0.00  0.00    +0.000 A 
ATOM     11  C   UNL     1       3.109  15.295  17.829  0.00  0.00    +0.000 A 
ATOM     12  C   UNL     1       3.018  13.898  17.840  0.00  0.00    +0.000 A 
ATOM     13  C   UNL     1       2.029  13.229  18.552  0.00  0.00    +0.000 A 
ATOM     14  N   UNL     1       1.977  11.879  18.539  0.00  0.00    +0.000 NA
ATOM     15  C   UNL     1       0.583   9.033  20.383  0.00  0.00    +0.000 C 
ATOM     16  C   UNL     1       1.656   7.992  20.776  0.00  0.00    +0.000 C 
ENDROOT
BRANCH   1  21
ATOM     17  C   UNL     1       2.647   3.894  18.502  0.00  0.00    +0.000 A 
ATOM     18  N   UNL     1       2.069   3.124  19.449  0.00  0.00    +0.000 NA
ATOM     19  C   UNL     1       1.505   3.784  20.466  0.00  0.00    +0.000 A 
ATOM     20  C   UNL     1       1.518   5.157  20.575  0.00  0.00    +0.000 A 
ATOM     21  C   UNL     1       2.123   5.884  19.567  0.00  0.00    +0.000 A 
ATOM     22  N   UNL     1       2.681   5.245  18.516  0.00  0.00    +0.000 NA
BRANCH  17  24
ATOM     23  C   UNL     1       4.409   4.050  16.743  0.00  0.00    +0.000 C 
ATOM     24  C   UNL     1       3.359   3.150  17.384  0.00  0.00    +0.000 C 
BRANCH  24  25
ATOM     25  O   UNL     1       4.045   1.988  17.882  0.00  0.00    +0.000 OA
ATOM     26  H   UNL     1       4.167   2.162  18.838  0.00  0.00    +0.000 HD
ENDBRANCH  24  25
ENDBRANCH  17  24
ENDBRANCH   1  21
TORSDOF 3
ENDMDL
MODEL 4
REMARK VINA RESULT:      -7.3      1.733      2.415
REMARK  Name = 
REMARK  4 active torsions:
REMARK  status: ('A' for Active; 'I' for Inactive)
REMARK    1  A    between atoms: C_1  and  C_2
REMARK    2  A    between atoms: C_2  and  O_3
REMARK    3  A    between atoms: C_2  and  C_4
REMARK    4  A    between atoms: C_8  and  N_9
REMARK                            x       y       z     vdW  Elec       q    Type
REMARK                         _______ _______ _______ _____ _____    ______ ____
ROOT
ATOM      1  N   UNL     1      -0.693  12.156  22.458  0.00  0.00    +0.000 N 
ATOM      2  C   UNL     1      -0.693  10.697  22.649  0.00  0.00    +0.000 C 
ATOM      3  C   UNL     1      -0.870   9.963  21.301  0.00  0.00    +0.000 C 
ATOM      4  N   UNL     1       0.066  10.461  20.286  0.00  0.00    +0.000 N 
ATOM      5  C   UNL     1       0.892   9.588  19.619  0.00  0.00    +0.000 A 
ATOM      6  C   UNL     1       1.336   9.862  18.327  0.00  0.00    +0.000 A 
ATOM      7  C   UNL     1       2.181   8.971  17.671  0.00  0.00    +0.000 A 
ATOM      8  C   UNL     1       2.587   7.807  18.319  0.00  0.00    +0.000 A 
ATOM      9  C   UNL     1       3.453   6.886  17.702  0.00  0.00    +0.000 A 
ATOM     10  C   UNL     1       3.848   5.735  18.375  0.00  0.00    +0.000 A 
ATOM     11  C   UNL     1       3.375   5.501  19.661  0.00  0.00    +0.000 A 
ATOM     12  C   UNL     1       2.510   6.421  20.266  0.00  0.00    +0.000 A 
ATOM     13  C   UNL     1       2.098   7.581  19.618  0.00  0.00    +0.000 A 
ATOM     14  N   UNL     1       1.265   8.446  20.237  0.00  0.00    +0.000 NA
ATOM     15  C   UNL     1       0.100  11.919  20.101  0.00  0.00    +0.000 C 
ATOM     16  C   UNL     1       0.253  12.654  21.452  0.00  0.00    +0.000 C 
ENDROOT
BRANCH   1  21
ATOM     17  C   UNL     1      -3.658  13.475  23.957  0.00  0.00    +0.000 A 
ATOM     18  N   UNL     1      -3.312  14.700  24.406  0.00  0.00    +0.000 NA
ATOM     19  C   UNL     1      -2.045  15.064  24.175  0.00  0.00    +0.000 A 
ATOM     20  C   UNL     1      -1.130  14.253  23.543  0.00  0.00    +0.000 A 
ATOM     21  C   UNL     1      -1.554  13.011  23.105  0.00  0.00    +0.000 A 
ATOM     22  N   UNL     1      -2.832  12.626  23.304  0.00  0.00    +0.000 NA
BRANCH  17  24
ATOM     23  C   UNL     1      -5.951  13.109  23.044  0.00  0.00    +0.000 C 
ATOM     24  C   UNL     1      -5.071  13.021  24.285  0.00  0.00    +0.000 C 
BRANCH  24  25
ATOM     25  O   UNL     1      -5.094  11.650  24.723  0.00  0.00    +0.000 OA
ATOM     26  H   UNL     1      -5.857  11.253  24.256  0.00  0.00    +0.000 HD
ENDBRANCH  24  25
ENDBRANCH  17  24
ENDBRANCH   1  21
TORSDOF 3
ENDMDL
MODEL 5
REMARK VINA RESULT:      -7.2      4.444      8.873
REMARK  Name = 
REMARK  4 active torsions:
REMARK  status: ('A' for Active; 'I' for Inactive)
REMARK    1  A    between atoms: C_1  and  C_2
REMARK    2  A    between atoms: C_2  and  O_3
REMARK    3  A    between atoms: C_2  and  C_4
REMARK    4  A    between atoms: C_8  and  N_9
REMARK                            x       y       z     vdW  Elec       q    Type
REMARK                         _______ _______ _______ _____ _____    ______ ____
ROOT
ATOM      1  N   UNL     1       2.322   7.539  19.284  0.00  0.00    +0.000 N 
ATOM      2  C   UNL     1       2.810   8.439  18.228  0.00  0.00    +0.000 C 
ATOM      3  C   UNL     1       1.713   9.440  17.804  0.00  0.00    +0.000 C 
ATOM      4  N   UNL     1       1.110  10.106  18.965  0.00  0.00    +0.000 N 
ATOM      5  C   UNL     1       1.068  11.479  19.030  0.00  0.00    +0.000 A 
ATOM      6  C   UNL     1       0.062  12.135  19.737  0.00  0.00    +0.000 A 
ATOM      7  C   UNL     1       0.040  13.526  19.800  0.00  0.00    +0.000 A 
ATOM      8  C   UNL     1       1.038  14.257  19.160  0.00  0.00    +0.000 A 
ATOM      9  C   UNL     1       1.067  15.663  19.212  0.00  0.00    +0.000 A 
ATOM     10  C   UNL     1       2.079  16.367  18.568  0.00  0.00    +0.000 A 
ATOM     11  C   UNL     1       3.059  15.670  17.871  0.00  0.00    +0.000 A 
ATOM     12  C   UNL     1       3.020  14.271  17.822  0.00  0.00    +0.000 A 
ATOM     13  C   UNL     1       2.021  13.539  18.455  0.00  0.00    +0.000 A 
ATOM     14  N   UNL     1       2.020  12.190  18.387  0.00  0.00    +0.000 NA
ATOM     15  C   UNL     1       0.641   9.224  20.042  0.00  0.00    +0.000 C 
ATOM     16  C   UNL     1       1.730   8.206  20.450  0.00  0.00    +0.000 C 
ENDROOT
BRANCH   1  21
ATOM     17  C   UNL     1       2.511   4.084  20.185  0.00  0.00    +0.000 A 
ATOM     18  N   UNL     1       2.361   3.408  19.026  0.00  0.00    +0.000 NA
ATOM     19  C   UNL     1       2.204   4.163  17.932  0.00  0.00    +0.000 A 
ATOM     20  C   UNL     1       2.171   5.539  17.963  0.00  0.00    +0.000 A 
ATOM     21  C   UNL     1       2.336   6.166  19.185  0.00  0.00    +0.000 A 
ATOM     22  N   UNL     1       2.519   5.431  20.302  0.00  0.00    +0.000 NA
BRANCH  17  24
ATOM     23  C   UNL     1       1.295   2.508  21.688  0.00  0.00    +0.000 C 
ATOM     24  C   UNL     1       2.611   3.235  21.442  0.00  0.00    +0.000 C 
BRANCH  24  25
ATOM     25  O   UNL     1       3.632   2.229  21.314  0.00  0.00    +0.000 OA
ATOM     26  H   UNL     1       4.446   2.728  21.095  0.00  0.00    +0.000 HD
ENDBRANCH  24  25
ENDBRANCH  17  24
ENDBRANCH   1  21
TORSDOF 3
ENDMDL
MODEL 6
REMARK VINA RESULT:      -7.2      1.570      2.215
REMARK  Name = 
REMARK  4 active torsions:
REMARK  status: ('A' for Active; 'I' for Inactive)
REMARK    1  A    between atoms: C_1  and  C_2
REMARK    2  A    between atoms: C_2  and  O_3
REMARK    3  A    between atoms: C_2  and  C_4
REMARK    4  A    between atoms: C_8  and  N_9
REMARK                            x       y       z     vdW  Elec       q    Type
REMARK                         _______ _______ _______ _____ _____    ______ ____
ROOT
ATOM      1  N   UNL     1      -0.049  11.814  21.817  0.00  0.00    +0.000 N 
ATOM      2  C   UNL     1      -0.232  10.376  22.069  0.00  0.00    +0.000 C 
ATOM      3  C   UNL     1      -0.374   9.596  20.743  0.00  0.00    +0.000 C 
ATOM      4  N   UNL     1       0.697   9.935  19.798  0.00  0.00    +0.000 N 
ATOM      5  C   UNL     1       1.473   8.942  19.248  0.00  0.00    +0.000 A 
ATOM      6  C   UNL     1       2.056   9.098  17.992  0.00  0.00    +0.000 A 
ATOM      7  C   UNL     1       2.848   8.085  17.455  0.00  0.00    +0.000 A 
ATOM      8  C   UNL     1       3.060   6.919  18.187  0.00  0.00    +0.000 A 
ATOM      9  C   UNL     1       3.866   5.878  17.692  0.00  0.00    +0.000 A 
ATOM     10  C   UNL     1       4.067   4.728  18.447  0.00  0.00    +0.000 A 
ATOM     11  C   UNL     1       3.461   4.615  19.693  0.00  0.00    +0.000 A 
ATOM     12  C   UNL     1       2.657   5.655  20.175  0.00  0.00    +0.000 A 
ATOM     13  C   UNL     1       2.438   6.817  19.444  0.00  0.00    +0.000 A 
ATOM     14  N   UNL     1       1.659   7.800  19.946  0.00  0.00    +0.000 NA
ATOM     15  C   UNL     1       0.913  11.368  19.555  0.00  0.00    +0.000 C 
ATOM     16  C   UNL     1       1.031  12.152  20.882  0.00  0.00    +0.000 C 
ENDROOT
BRANCH   1  21
ATOM     17  C   UNL     1      -2.924  13.467  23.150  0.00  0.00    +0.000 A 
ATOM     18  N   UNL     1      -2.518  14.728  23.412  0.00  0.00    +0.000 NA
ATOM     19  C   UNL     1      -1.242  14.998  23.113  0.00  0.00    +0.000 A 
ATOM     20  C   UNL     1      -0.374  14.063  22.592  0.00  0.00    +0.000 A 
ATOM     21  C   UNL     1      -0.860  12.792  22.345  0.00  0.00    +0.000 A 
ATOM     22  N   UNL     1      -2.149  12.498  22.616  0.00  0.00    +0.000 NA
BRANCH  17  24
ATOM     23  C   UNL     1      -5.203  12.876  22.324  0.00  0.00    +0.000 C 
ATOM     24  C   UNL     1      -4.349  13.130  23.560  0.00  0.00    +0.000 C 
BRANCH  24  25
ATOM     25  O   UNL     1      -4.395  11.934  24.359  0.00  0.00    +0.000 OA
ATOM     26  H   UNL     1      -3.460  11.752  24.588  0.00  0.00    +0.000 HD
ENDBRANCH  24  25
ENDBRANCH  17  24
ENDBRANCH   1  21
TORSDOF 3
ENDMDL
MODEL 7
REMARK VINA RESULT:      -7.1      3.813      4.819
REMARK  Name = 
REMARK  4 active torsions:
REMARK  status: ('A' for Active; 'I' for Inactive)
REMARK    1  A    between atoms: C_1  and  C_2
REMARK    2  A    between atoms: C_2  and  O_3
REMARK    3  A    between atoms: C_2  and  C_4
REMARK    4  A    between atoms: C_8  and  N_9
REMARK                            x       y       z     vdW  Elec       q    Type
REMARK                         _______ _______ _______ _____ _____    ______ ____
ROOT
ATOM      1  N   UNL     1       0.794  10.372  18.844  0.00  0.00    +0.000 N 
ATOM      2  C   UNL     1       1.538   9.564  17.864  0.00  0.00    +0.000 C 
ATOM      3  C   UNL     1       2.581   8.667  18.566  0.00  0.00    +0.000 C 
ATOM      4  N   UNL     1       1.989   7.914  19.677  0.00  0.00    +0.000 N 
ATOM      5  C   UNL     1       2.114   6.546  19.729  0.00  0.00    +0.000 A 
ATOM      6  C   UNL     1       2.114   5.869  20.947  0.00  0.00    +0.000 A 
ATOM      7  C   UNL     1       2.231   4.482  20.980  0.00  0.00    +0.000 A 
ATOM      8  C   UNL     1       2.339   3.774  19.785  0.00  0.00    +0.000 A 
ATOM      9  C   UNL     1       2.441   2.371  19.769  0.00  0.00    +0.000 A 
ATOM     10  C   UNL     1       2.541   1.689  18.561  0.00  0.00    +0.000 A 
ATOM     11  C   UNL     1       2.542   2.407  17.371  0.00  0.00    +0.000 A 
ATOM     12  C   UNL     1       2.443   3.803  17.397  0.00  0.00    +0.000 A 
ATOM     13  C   UNL     1       2.342   4.513  18.589  0.00  0.00    +0.000 A 
ATOM     14  N   UNL     1       2.245   5.860  18.572  0.00  0.00    +0.000 NA
ATOM     15  C   UNL     1       1.219   8.700  20.651  0.00  0.00    +0.000 C 
ATOM     16  C   UNL     1       0.191   9.615  19.948  0.00  0.00    +0.000 C 
ENDROOT
BRANCH   1  21
ATOM     17  C   UNL     1       1.733  13.806  18.530  0.00  0.00    +0.000 A 
ATOM     18  N   UNL     1       0.588  14.502  18.695  0.00  0.00    +0.000 NA
ATOM     19  C   UNL     1      -0.507  13.768  18.924  0.00  0.00    +0.000 A 
ATOM     20  C   UNL     1      -0.497  12.392  18.971  0.00  0.00    +0.000 A 
ATOM     21  C   UNL     1       0.713  11.744  18.799  0.00  0.00    +0.000 A 
ATOM     22  N   UNL     1       1.837  12.460  18.589  0.00  0.00    +0.000 NA
BRANCH  17  24
ATOM     23  C   UNL     1       3.441  15.392  19.421  0.00  0.00    +0.000 C 
ATOM     24  C   UNL     1       2.967  14.628  18.191  0.00  0.00    +0.000 C 
BRANCH  24  25
ATOM     25  O   UNL     1       4.056  13.787  17.770  0.00  0.00    +0.000 OA
ATOM     26  H   UNL     1       4.458  14.261  17.013  0.00  0.00    +0.000 HD
ENDBRANCH  24  25
ENDBRANCH  17  24
ENDBRANCH   1  21
TORSDOF 3
ENDMDL
MODEL 8
REMARK VINA RESULT:      -7.1      4.049      9.502
REMARK  Name = 
REMARK  4 active torsions:
REMARK  status: ('A' for Active; 'I' for Inactive)
REMARK    1  A    between atoms: C_1  and  C_2
REMARK    2  A    between atoms: C_2  and  O_3
REMARK    3  A    between atoms: C_2  and  C_4
REMARK    4  A    between atoms: C_8  and  N_9
REMARK                            x       y       z     vdW  Elec       q    Type
REMARK                         _______ _______ _______ _____ _____    ______ ____
ROOT
ATOM      1  N   UNL     1       2.607   7.161  18.659  0.00  0.00    +0.000 N 
ATOM      2  C   UNL     1       2.613   8.381  17.837  0.00  0.00    +0.000 C 
ATOM      3  C   UNL     1       1.318   9.196  18.048  0.00  0.00    +0.000 C 
ATOM      4  N   UNL     1       1.032   9.402  19.473  0.00  0.00    +0.000 N 
ATOM      5  C   UNL     1       0.835  10.672  19.962  0.00  0.00    +0.000 A 
ATOM      6  C   UNL     1       0.029  10.896  21.076  0.00  0.00    +0.000 A 
ATOM      7  C   UNL     1      -0.152  12.188  21.563  0.00  0.00    +0.000 A 
ATOM      8  C   UNL     1       0.487  13.254  20.934  0.00  0.00    +0.000 A 
ATOM      9  C   UNL     1       0.347  14.574  21.402  0.00  0.00    +0.000 A 
ATOM     10  C   UNL     1       1.002  15.618  20.758  0.00  0.00    +0.000 A 
ATOM     11  C   UNL     1       1.791  15.347  19.647  0.00  0.00    +0.000 A 
ATOM     12  C   UNL     1       1.921  14.031  19.187  0.00  0.00    +0.000 A 
ATOM     13  C   UNL     1       1.280  12.966  19.809  0.00  0.00    +0.000 A 
ATOM     14  N   UNL     1       1.433  11.710  19.336  0.00  0.00    +0.000 NA
ATOM     15  C   UNL     1       1.049   8.198  20.314  0.00  0.00    +0.000 C 
ATOM     16  C   UNL     1       2.335   7.370  20.087  0.00  0.00    +0.000 C 
ENDROOT
BRANCH   1  21
ATOM     17  C   UNL     1       4.025   4.354  16.959  0.00  0.00    +0.000 A 
ATOM     18  N   UNL     1       3.126   3.358  17.110  0.00  0.00    +0.000 NA
ATOM     19  C   UNL     1       2.023   3.675  17.798  0.00  0.00    +0.000 A 
ATOM     20  C   UNL     1       1.805   4.920  18.345  0.00  0.00    +0.000 A 
ATOM     21  C   UNL     1       2.767   5.894  18.147  0.00  0.00    +0.000 A 
ATOM     22  N   UNL     1       3.879   5.610  17.438  0.00  0.00    +0.000 NA
BRANCH  17  24
ATOM     23  C   UNL     1       5.642   5.017  15.178  0.00  0.00    +0.000 C 
ATOM     24  C   UNL     1       5.316   3.982  16.247  0.00  0.00    +0.000 C 
BRANCH  24  25
ATOM     25  O   UNL     1       6.428   3.954  17.161  0.00  0.00    +0.000 OA
ATOM     26  H   UNL     1       7.222   3.967  16.587  0.00  0.00    +0.000 HD
ENDBRANCH  24  25
ENDBRANCH  17  24
ENDBRANCH   1  21
TORSDOF 3
ENDMDL
MODEL 9
REMARK VINA RESULT:      -7.0      3.677      9.023
REMARK  Name = 
REMARK  4 active torsions:
REMARK  status: ('A' for Active; 'I' for Inactive)
REMARK    1  A    between atoms: C_1  and  C_2
REMARK    2  A    between atoms: C_2  and  O_3
REMARK    3  A    between atoms: C_2  and  C_4
REMARK    4  A    between atoms: C_8  and  N_9
REMARK                            x       y       z     vdW  Elec       q    Type
REMARK                         _______ _______ _______ _____ _____    ______ ____
ROOT
ATOM      1  N   UNL     1       2.119   7.865  19.255  0.00  0.00    +0.000 N 
ATOM      2  C   UNL     1       2.031   8.936  18.250  0.00  0.00    +0.000 C 
ATOM      3  C   UNL     1       0.619   9.562  18.232  0.00  0.00    +0.000 C 
ATOM      4  N   UNL     1       0.172   9.931  19.580  0.00  0.00    +0.000 N 
ATOM      5  C   UNL     1      -0.249  11.213  19.843  0.00  0.00    +0.000 A 
ATOM      6  C   UNL     1      -1.181  11.473  20.845  0.00  0.00    +0.000 A 
ATOM      7  C   UNL     1      -1.590  12.779  21.103  0.00  0.00    +0.000 A 
ATOM      8  C   UNL     1      -1.051  13.826  20.358  0.00  0.00    +0.000 A 
ATOM      9  C   UNL     1      -1.420  15.162  20.596  0.00  0.00    +0.000 A 
ATOM     10  C   UNL     1      -0.861  16.189  19.842  0.00  0.00    +0.000 A 
ATOM     11  C   UNL     1       0.062  15.881  18.849  0.00  0.00    +0.000 A 
ATOM     12  C   UNL     1       0.420  14.547  18.617  0.00  0.00    +0.000 A 
ATOM     13  C   UNL     1      -0.121  13.500  19.355  0.00  0.00    +0.000 A 
ATOM     14  N   UNL     1       0.253  12.227  19.103  0.00  0.00    +0.000 NA
ATOM     15  C   UNL     1       0.279   8.882  20.604  0.00  0.00    +0.000 C 
ATOM     16  C   UNL     1       1.684   8.239  20.606  0.00  0.00    +0.000 C 
ENDROOT
BRANCH   1  21
ATOM     17  C   UNL     1       2.411   4.305  19.416  0.00  0.00    +0.000 A 
ATOM     18  N   UNL     1       3.253   3.974  18.413  0.00  0.00    +0.000 NA
ATOM     19  C   UNL     1       3.722   4.997  17.690  0.00  0.00    +0.000 A 
ATOM     20  C   UNL     1       3.368   6.309  17.920  0.00  0.00    +0.000 A 
ATOM     21  C   UNL     1       2.505   6.576  18.966  0.00  0.00    +0.000 A 
ATOM     22  N   UNL     1       2.033   5.566  19.727  0.00  0.00    +0.000 NA
BRANCH  17  24
ATOM     23  C   UNL     1       2.322   3.153  21.627  0.00  0.00    +0.000 C 
ATOM     24  C   UNL     1       1.811   3.143  20.191  0.00  0.00    +0.000 C 
BRANCH  24  25
ATOM     25  O   UNL     1       0.376   3.240  20.253  0.00  0.00    +0.000 OA
ATOM     26  H   UNL     1       0.083   2.371  20.595  0.00  0.00    +0.000 HD
ENDBRANCH  24  25
ENDBRANCH  17  24
ENDBRANCH   1  21
TORSDOF 3
ENDMDL
