MODEL 1
REMARK VINA RESULT:      -7.2      0.000      0.000
REMARK  Name = 
REMARK  11 active torsions:
REMARK  status: ('A' for Active; 'I' for Inactive)
REMARK    1  A    between atoms: C_1  and  C_2
REMARK    2  A    between atoms: C_2  and  C_3
REMARK    3  A    between atoms: C_3  and  C_4
REMARK    4  A    between atoms: C_4  and  C_5
REMARK    5  A    between atoms: C_5  and  N_6
REMARK    6  A    between atoms: C_5  and  C_19
REMARK    7  A    between atoms: C_7  and  C_9
REMARK    8  A    between atoms: C_9  and  C_10
REMARK    9  A    between atoms: C_13  and  C_14
REMARK   10  A    between atoms: C_14  and  O_16
REMARK   11  A    between atoms: C_24  and  N_25
REMARK                            x       y       z     vdW  Elec       q    Type
REMARK                         _______ _______ _______ _____ _____    ______ ____
ROOT
ATOM      1  C   UNL     1       2.345   6.587  19.855  0.00  0.00    +0.000 C 
ENDROOT
BRANCH   1   2
ATOM      2  C   UNL     1       2.662   5.094  20.111  0.00  0.00    +0.000 A 
ATOM      3  C   UNL     1       1.832   4.428  21.067  0.00  0.00    +0.000 A 
ATOM      4  C   UNL     1       2.025   3.116  21.480  0.00  0.00    +0.000 A 
ATOM      5  C   UNL     1       3.068   2.400  20.946  0.00  0.00    +0.000 A 
ATOM      6  C   UNL     1       3.896   3.008  20.002  0.00  0.00    +0.000 A 
ATOM      7  C   UNL     1       3.751   4.356  19.561  0.00  0.00    +0.000 A 
BRANCH   7   8
ATOM      8  N   UNL     1       4.699   4.779  18.620  0.00  0.00    +0.000 N 
ATOM      9  C   UNL     1       6.017   5.290  18.977  0.00  0.00    +0.000 C 
ATOM     10  C   UNL     1       6.443   6.374  17.982  0.00  0.00    +0.000 C 
ATOM     11  C   UNL     1       6.379   5.875  16.542  0.00  0.00    +0.000 C 
ATOM     12  C   UNL     1       4.985   5.339  16.235  0.00  0.00    +0.000 C 
ATOM     13  C   UNL     1       4.580   4.256  17.241  0.00  0.00    +0.000 C 
ENDBRANCH   7   8
ENDBRANCH   1   2
BRANCH   1  14
ATOM     14  N   UNL     1       1.153   7.043  20.573  0.00  0.00    +0.000 N 
ATOM     15  C   UNL     1       1.110   8.225  21.281  0.00  0.00    +0.000 C 
ATOM     16  O   UNL     1       2.065   8.981  21.426  0.00  0.00    +0.000 OA
ATOM     17  H   UNL     1       0.393   6.384  20.677  0.00  0.00    +0.000 HD
BRANCH  15  18
ATOM     18  C   UNL     1      -0.229   8.514  21.932  0.00  0.00    +0.000 C 
BRANCH  18  19
ATOM     19  C   UNL     1      -0.589   9.971  21.767  0.00  0.00    +0.000 A 
ATOM     20  C   UNL     1      -0.792  10.769  22.906  0.00  0.00    +0.000 A 
ATOM     21  C   UNL     1      -1.210  12.092  22.786  0.00  0.00    +0.000 A 
ATOM     22  C   UNL     1      -1.430  12.630  21.515  0.00  0.00    +0.000 A 
ATOM     23  C   UNL     1      -1.175  11.860  20.374  0.00  0.00    +0.000 A 
ATOM     24  C   UNL     1      -0.758  10.534  20.499  0.00  0.00    +0.000 A 
BRANCH  22  25
ATOM     25  C   UNL     1      -1.901  14.024  21.335  0.00  0.00    +0.000 C 
ATOM     26  O   UNL     1      -2.158  14.761  22.271  0.00  0.00    +0.000 OA
BRANCH  25  27
ATOM     27  O   UNL     1      -1.957  14.418  20.044  0.00  0.00    +0.000 OA
ATOM     28  H   UNL     1      -1.171  14.197  19.511  0.00  0.00    +0.000 HD
ENDBRANCH  25  27
ENDBRANCH  22  25
ENDBRANCH  18  19
ENDBRANCH  15  18
ENDBRANCH   1  14
BRANCH   1  29
ATOM     29  C   UNL     1       2.253   6.990  18.349  0.00  0.00    +0.000 C 
BRANCH  29  30
ATOM     30  C   UNL     1       2.708   8.385  17.907  0.00  0.00    +0.000 C 
BRANCH  30  32
ATOM     31  C   UNL     1       2.021  10.798  18.134  0.00  0.00    +0.000 C 
ATOM     32  C   UNL     1       1.562   9.387  17.788  0.00  0.00    +0.000 C 
ENDBRANCH  30  32
ENDBRANCH  29  30
ENDBRANCH   1  29
TORSDOF 10
ENDMDL
MODEL 2
REMARK VINA RESULT:      -7.1      3.142      9.306
REMARK  Name = 
REMARK  11 active torsions:
REMARK  status: ('A' for Active; 'I' for Inactive)
REMARK    1  A    between atoms: C_1  and  C_2
REMARK    2  A    between atoms: C_2  and  C_3
REMARK    3  A    between atoms: C_3  and  C_4
REMARK    4  A    between atoms: C_4  and  C_5
REMARK    5  A    between atoms: C_5  and  N_6
REMARK    6  A    between atoms: C_5  and  C_19
REMARK    7  A    between atoms: C_7  and  C_9
REMARK    8  A    between atoms: C_9  and  C_10
REMARK    9  A    between atoms: C_13  and  C_14
REMARK   10  A    between atoms: C_14  and  O_16
REMARK   11  A    between atoms: C_24  and  N_25
REMARK                            x       y       z     vdW  Elec       q    Type
REMARK                         _______ _______ _______ _____ _____    ______ ____
ROOT
ATOM      1  C   UNL     1       0.776  10.484  19.222  0.00  0.00    +0.000 C 
ENDROOT
BRANCH   1   2
ATOM      2  C   UNL     1       1.102  11.996  19.161  0.00  0.00    +0.000 A 
ATOM      3  C   UNL     1       2.212  12.369  18.339  0.00  0.00    +0.000 A 
ATOM      4  C   UNL     1       2.696  13.667  18.232  0.00  0.00    +0.000 A 
ATOM      5  C   UNL     1       2.081  14.664  18.949  0.00  0.00    +0.000 A 
ATOM      6  C   UNL     1       0.989  14.345  19.755  0.00  0.00    +0.000 A 
ATOM      7  C   UNL     1       0.467  13.027  19.913  0.00  0.00    +0.000 A 
BRANCH   7   8
ATOM      8  N   UNL     1      -0.625  12.920  20.784  0.00  0.00    +0.000 N 
ATOM      9  C   UNL     1      -0.496  12.648  22.210  0.00  0.00    +0.000 C 
ATOM     10  C   UNL     1      -1.677  11.798  22.688  0.00  0.00    +0.000 C 
ATOM     11  C   UNL     1      -3.014  12.442  22.335  0.00  0.00    +0.000 C 
ATOM     12  C   UNL     1      -3.083  12.718  20.837  0.00  0.00    +0.000 C 
ATOM     13  C   UNL     1      -1.892  13.569  20.381  0.00  0.00    +0.000 C 
ENDBRANCH   7   8
ENDBRANCH   1   2
BRANCH   1  14
ATOM     14  N   UNL     1       1.606   9.689  18.314  0.00  0.00    +0.000 N 
ATOM     15  C   UNL     1       2.141   8.468  18.662  0.00  0.00    +0.000 C 
ATOM     16  O   UNL     1       2.024   7.950  19.768  0.00  0.00    +0.000 OA
ATOM     17  H   UNL     1       1.921  10.135  17.463  0.00  0.00    +0.000 HD
BRANCH  15  18
ATOM     18  C   UNL     1       2.951   7.806  17.564  0.00  0.00    +0.000 C 
BRANCH  18  19
ATOM     19  C   UNL     1       3.227   6.363  17.913  0.00  0.00    +0.000 A 
ATOM     20  C   UNL     1       2.183   5.424  17.855  0.00  0.00    +0.000 A 
ATOM     21  C   UNL     1       2.386   4.106  18.255  0.00  0.00    +0.000 A 
ATOM     22  C   UNL     1       3.644   3.714  18.720  0.00  0.00    +0.000 A 
ATOM     23  C   UNL     1       4.703   4.629  18.728  0.00  0.00    +0.000 A 
ATOM     24  C   UNL     1       4.496   5.950  18.328  0.00  0.00    +0.000 A 
BRANCH  22  25
ATOM     25  C   UNL     1       3.904   2.330  19.182  0.00  0.00    +0.000 C 
ATOM     26  O   UNL     1       3.222   1.380  18.839  0.00  0.00    +0.000 OA
BRANCH  25  27
ATOM     27  O   UNL     1       4.998   2.213  19.965  0.00  0.00    +0.000 OA
ATOM     28  H   UNL     1       5.379   3.057  20.270  0.00  0.00    +0.000 HD
ENDBRANCH  25  27
ENDBRANCH  22  25
ENDBRANCH  18  19
ENDBRANCH  15  18
ENDBRANCH   1  14
BRANCH   1  29
ATOM     29  C   UNL     1      -0.732  10.129  19.023  0.00  0.00    +0.000 C 
BRANCH  29  30
ATOM     30  C   UNL     1      -1.307  10.024  17.607  0.00  0.00    +0.000 C 
BRANCH  30  32
ATOM     31  C   UNL     1      -2.907  10.951  15.896  0.00  0.00    +0.000 C 
ATOM     32  C   UNL     1      -2.228  11.185  17.239  0.00  0.00    +0.000 C 
ENDBRANCH  30  32
ENDBRANCH  29  30
ENDBRANCH   1  29
TORSDOF 10
ENDMDL
MODEL 3
REMARK VINA RESULT:      -7.0      3.231      9.082
REMARK  Name = 
REMARK  11 active torsions:
REMARK  status: ('A' for Active; 'I' for Inactive)
REMARK    1  A    between atoms: C_1  and  C_2
REMARK    2  A    between atoms: C_2  and  C_3
REMARK    3  A    between atoms: C_3  and  C_4
REMARK    4  A    between atoms: C_4  and  C_5
REMARK    5  A    between atoms: C_5  and  N_6
REMARK    6  A    between atoms: C_5  and  C_19
REMARK    7  A    between atoms: C_7  and  C_9
REMARK    8  A    between atoms: C_9  and  C_10
REMARK    9  A    between atoms: C_13  and  C_14
REMARK   10  A    between atoms: C_14  and  O_16
REMARK   11  A    between atoms: C_24  and  N_25
REMARK                            x       y       z     vdW  Elec       q    Type
REMARK                         _______ _______ _______ _____ _____    ______ ____
ROOT
ATOM      1  C   UNL     1       0.861  10.161  19.961  0.00  0.00    +0.000 C 
ENDROOT
BRANCH   1   2
ATOM      2  C   UNL     1       0.686  11.635  19.523  0.00  0.00    +0.000 A 
ATOM      3  C   UNL     1       1.682  12.552  19.985  0.00  0.00    +0.000 A 
ATOM      4  C   UNL     1       1.638  13.922  19.759  0.00  0.00    +0.000 A 
ATOM      5  C   UNL     1       0.585  14.443  19.048  0.00  0.00    +0.000 A 
ATOM      6  C   UNL     1      -0.402  13.582  18.570  0.00  0.00    +0.000 A 
ATOM      7  C   UNL     1      -0.413  12.174  18.792  0.00  0.00    +0.000 A 
BRANCH   7   8
ATOM      8  N   UNL     1      -1.506  11.494  18.241  0.00  0.00    +0.000 N 
ATOM      9  C   UNL     1      -1.378  10.353  17.344  0.00  0.00    +0.000 C 
ATOM     10  C   UNL     1      -2.512  10.367  16.314  0.00  0.00    +0.000 C 
ATOM     11  C   UNL     1      -3.881  10.432  16.984  0.00  0.00    +0.000 C 
ATOM     12  C   UNL     1      -3.948  11.633  17.921  0.00  0.00    +0.000 C 
ATOM     13  C   UNL     1      -2.806  11.598  18.941  0.00  0.00    +0.000 C 
ENDBRANCH   7   8
ENDBRANCH   1   2
BRANCH   1  14
ATOM     14  N   UNL     1       1.328   9.300  18.872  0.00  0.00    +0.000 N 
ATOM     15  C   UNL     1       1.973   8.101  19.088  0.00  0.00    +0.000 C 
ATOM     16  O   UNL     1       2.267   7.662  20.195  0.00  0.00    +0.000 OA
ATOM     17  H   UNL     1       1.313   9.684  17.937  0.00  0.00    +0.000 HD
BRANCH  15  18
ATOM     18  C   UNL     1       2.353   7.360  17.821  0.00  0.00    +0.000 C 
BRANCH  18  19
ATOM     19  C   UNL     1       2.883   5.986  18.155  0.00  0.00    +0.000 A 
ATOM     20  C   UNL     1       2.001   4.893  18.194  0.00  0.00    +0.000 A 
ATOM     21  C   UNL     1       2.444   3.632  18.585  0.00  0.00    +0.000 A 
ATOM     22  C   UNL     1       3.783   3.454  18.943  0.00  0.00    +0.000 A 
ATOM     23  C   UNL     1       4.680   4.525  18.854  0.00  0.00    +0.000 A 
ATOM     24  C   UNL     1       4.232   5.788  18.463  0.00  0.00    +0.000 A 
BRANCH  22  25
ATOM     25  C   UNL     1       4.298   2.139  19.392  0.00  0.00    +0.000 C 
ATOM     26  O   UNL     1       4.876   1.984  20.454  0.00  0.00    +0.000 OA
BRANCH  25  27
ATOM     27  O   UNL     1       4.013   1.125  18.548  0.00  0.00    +0.000 OA
ATOM     28  H   UNL     1       3.095   0.796  18.593  0.00  0.00    +0.000 HD
ENDBRANCH  25  27
ENDBRANCH  22  25
ENDBRANCH  18  19
ENDBRANCH  15  18
ENDBRANCH   1  14
BRANCH   1  29
ATOM     29  C   UNL     1      -0.389   9.527  20.649  0.00  0.00    +0.000 C 
BRANCH  29  30
ATOM     30  C   UNL     1      -0.246   8.867  22.024  0.00  0.00    +0.000 C 
BRANCH  30  32
ATOM     31  C   UNL     1      -1.166  11.080  22.802  0.00  0.00    +0.000 C 
ATOM     32  C   UNL     1      -0.345   9.855  23.185  0.00  0.00    +0.000 C 
ENDBRANCH  30  32
ENDBRANCH  29  30
ENDBRANCH   1  29
TORSDOF 10
ENDMDL
MODEL 4
REMARK VINA RESULT:      -7.0      3.209      9.233
REMARK  Name = 
REMARK  11 active torsions:
REMARK  status: ('A' for Active; 'I' for Inactive)
REMARK    1  A    between atoms: C_1  and  C_2
REMARK    2  A    between atoms: C_2  and  C_3
REMARK    3  A    between atoms: C_3  and  C_4
REMARK    4  A    between atoms: C_4  and  C_5
REMARK    5  A    between atoms: C_5  and  N_6
REMARK    6  A    between atoms: C_5  and  C_19
REMARK    7  A    between atoms: C_7  and  C_9
REMARK    8  A    between atoms: C_9  and  C_10
REMARK    9  A    between atoms: C_13  and  C_14
REMARK   10  A    between atoms: C_14  and  O_16
REMARK   11  A    between atoms: C_24  and  N_25
REMARK                            x       y       z     vdW  Elec       q    Type
REMARK                         _______ _______ _______ _____ _____    ______ ____
ROOT
ATOM      1  C   UNL     1       0.091  10.594  18.723  0.00  0.00    +0.000 C 
ENDROOT
BRANCH   1   2
ATOM      2  C   UNL     1       0.714  11.919  19.225  0.00  0.00    +0.000 A 
ATOM      3  C   UNL     1       1.933  12.321  18.595  0.00  0.00    +0.000 A 
ATOM      4  C   UNL     1       2.671  13.435  18.975  0.00  0.00    +0.000 A 
ATOM      5  C   UNL     1       2.215  14.209  20.014  0.00  0.00    +0.000 A 
ATOM      6  C   UNL     1       1.024  13.858  20.650  0.00  0.00    +0.000 A 
ATOM      7  C   UNL     1       0.242  12.716  20.310  0.00  0.00    +0.000 A 
BRANCH   7   8
ATOM      8  N   UNL     1      -0.911  12.533  21.084  0.00  0.00    +0.000 N 
ATOM      9  C   UNL     1      -2.232  13.001  20.686  0.00  0.00    +0.000 C 
ATOM     10  C   UNL     1      -3.029  13.429  21.923  0.00  0.00    +0.000 C 
ATOM     11  C   UNL     1      -3.092  12.318  22.966  0.00  0.00    +0.000 C 
ATOM     12  C   UNL     1      -1.684  11.861  23.329  0.00  0.00    +0.000 C 
ATOM     13  C   UNL     1      -0.906  11.437  22.078  0.00  0.00    +0.000 C 
ENDBRANCH   7   8
ENDBRANCH   1   2
BRANCH   1  14
ATOM     14  N   UNL     1       1.036   9.779  17.958  0.00  0.00    +0.000 N 
ATOM     15  C   UNL     1       1.758   8.746  18.514  0.00  0.00    +0.000 C 
ATOM     16  O   UNL     1       1.724   8.438  19.702  0.00  0.00    +0.000 OA
ATOM     17  H   UNL     1       1.277  10.097  17.029  0.00  0.00    +0.000 HD
BRANCH  15  18
ATOM     18  C   UNL     1       2.664   8.020  17.538  0.00  0.00    +0.000 C 
BRANCH  18  19
ATOM     19  C   UNL     1       2.933   6.614  18.018  0.00  0.00    +0.000 A 
ATOM     20  C   UNL     1       4.199   6.287  18.534  0.00  0.00    +0.000 A 
ATOM     21  C   UNL     1       4.503   4.978  18.901  0.00  0.00    +0.000 A 
ATOM     22  C   UNL     1       3.536   3.980  18.755  0.00  0.00    +0.000 A 
ATOM     23  C   UNL     1       2.255   4.308  18.295  0.00  0.00    +0.000 A 
ATOM     24  C   UNL     1       1.954   5.620  17.925  0.00  0.00    +0.000 A 
BRANCH  22  25
ATOM     25  C   UNL     1       3.819   2.568  19.106  0.00  0.00    +0.000 C 
ATOM     26  O   UNL     1       3.051   1.658  18.851  0.00  0.00    +0.000 OA
BRANCH  25  27
ATOM     27  O   UNL     1       5.029   2.380  19.675  0.00  0.00    +0.000 OA
ATOM     28  H   UNL     1       5.229   2.971  20.426  0.00  0.00    +0.000 HD
ENDBRANCH  25  27
ENDBRANCH  22  25
ENDBRANCH  18  19
ENDBRANCH  15  18
ENDBRANCH   1  14
BRANCH   1  29
ATOM     29  C   UNL     1      -1.245  10.756  17.931  0.00  0.00    +0.000 C 
BRANCH  29  30
ATOM     30  C   UNL     1      -1.698   9.650  16.972  0.00  0.00    +0.000 C 
BRANCH  30  32
ATOM     31  C   UNL     1      -2.950  10.192  14.854  0.00  0.00    +0.000 C 
ATOM     32  C   UNL     1      -3.067   9.913  16.346  0.00  0.00    +0.000 C 
ENDBRANCH  30  32
ENDBRANCH  29  30
ENDBRANCH   1  29
TORSDOF 10
ENDMDL
MODEL 5
REMARK VINA RESULT:      -7.0      3.122      9.347
REMARK  Name = 
REMARK  11 active torsions:
REMARK  status: ('A' for Active; 'I' for Inactive)
REMARK    1  A    between atoms: C_1  and  C_2
REMARK    2  A    between atoms: C_2  and  C_3
REMARK    3  A    between atoms: C_3  and  C_4
REMARK    4  A    between atoms: C_4  and  C_5
REMARK    5  A    between atoms: C_5  and  N_6
REMARK    6  A    between atoms: C_5  and  C_19
REMARK    7  A    between atoms: C_7  and  C_9
REMARK    8  A    between atoms: C_9  and  C_10
REMARK    9  A    between atoms: C_13  and  C_14
REMARK   10  A    between atoms: C_14  and  O_16
REMARK   11  A    between atoms: C_24  and  N_25
REMARK                            x       y       z     vdW  Elec       q    Type
REMARK                         _______ _______ _______ _____ _____    ______ ____
ROOT
ATOM      1  C   UNL     1       0.696  10.411  19.343  0.00  0.00    +0.000 C 
ENDROOT
BRANCH   1   2
ATOM      2  C   UNL     1       1.056  11.911  19.224  0.00  0.00    +0.000 A 
ATOM      3  C   UNL     1       2.178  12.226  18.395  0.00  0.00    +0.000 A 
ATOM      4  C   UNL     1       2.692  13.508  18.240  0.00  0.00    +0.000 A 
ATOM      5  C   UNL     1       2.097  14.546  18.914  0.00  0.00    +0.000 A 
ATOM      6  C   UNL     1       0.993  14.284  19.725  0.00  0.00    +0.000 A 
ATOM      7  C   UNL     1       0.441  12.986  19.932  0.00  0.00    +0.000 A 
BRANCH   7   8
ATOM      8  N   UNL     1      -0.657  12.938  20.800  0.00  0.00    +0.000 N 
ATOM      9  C   UNL     1      -0.541  12.726  22.237  0.00  0.00    +0.000 C 
ATOM     10  C   UNL     1      -1.741  11.921  22.745  0.00  0.00    +0.000 C 
ATOM     11  C   UNL     1      -3.064  12.574  22.355  0.00  0.00    +0.000 C 
ATOM     12  C   UNL     1      -3.119  12.785  20.846  0.00  0.00    +0.000 C 
ATOM     13  C   UNL     1      -1.910  13.592  20.361  0.00  0.00    +0.000 C 
ENDBRANCH   7   8
ENDBRANCH   1   2
BRANCH   1  14
ATOM     14  N   UNL     1       1.494   9.565  18.453  0.00  0.00    +0.000 N 
ATOM     15  C   UNL     1       2.069   8.381  18.861  0.00  0.00    +0.000 C 
ATOM     16  O   UNL     1       2.018   7.944  20.006  0.00  0.00    +0.000 OA
ATOM     17  H   UNL     1       1.757   9.953  17.558  0.00  0.00    +0.000 HD
BRANCH  15  18
ATOM     18  C   UNL     1       2.837   7.653  17.774  0.00  0.00    +0.000 C 
BRANCH  18  19
ATOM     19  C   UNL     1       3.201   6.261  18.230  0.00  0.00    +0.000 A 
ATOM     20  C   UNL     1       4.548   5.937  18.464  0.00  0.00    +0.000 A 
ATOM     21  C   UNL     1       4.922   4.639  18.801  0.00  0.00    +0.000 A 
ATOM     22  C   UNL     1       3.943   3.647  18.905  0.00  0.00    +0.000 A 
ATOM     23  C   UNL     1       2.593   3.973  18.729  0.00  0.00    +0.000 A 
ATOM     24  C   UNL     1       2.222   5.275  18.390  0.00  0.00    +0.000 A 
BRANCH  22  25
ATOM     25  C   UNL     1       4.293   2.244  19.234  0.00  0.00    +0.000 C 
ATOM     26  O   UNL     1       4.802   1.922  20.293  0.00  0.00    +0.000 OA
BRANCH  25  27
ATOM     27  O   UNL     1       3.937   1.356  18.282  0.00  0.00    +0.000 OA
ATOM     28  H   UNL     1       3.505   1.743  17.497  0.00  0.00    +0.000 HD
ENDBRANCH  25  27
ENDBRANCH  22  25
ENDBRANCH  18  19
ENDBRANCH  15  18
ENDBRANCH   1  14
BRANCH   1  29
ATOM     29  C   UNL     1      -0.823  10.085  19.176  0.00  0.00    +0.000 C 
BRANCH  29  30
ATOM     30  C   UNL     1      -1.611  10.709  18.019  0.00  0.00    +0.000 C 
BRANCH  30  32
ATOM     31  C   UNL     1      -4.095  10.761  17.602  0.00  0.00    +0.000 C 
ATOM     32  C   UNL     1      -2.840   9.898  17.616  0.00  0.00    +0.000 C 
ENDBRANCH  30  32
ENDBRANCH  29  30
ENDBRANCH   1  29
TORSDOF 10
ENDMDL
MODEL 6
REMARK VINA RESULT:      -7.0      0.958      1.084
REMARK  Name = 
REMARK  11 active torsions:
REMARK  status: ('A' for Active; 'I' for Inactive)
REMARK    1  A    between atoms: C_1  and  C_2
REMARK    2  A    between atoms: C_2  and  C_3
REMARK    3  A    between atoms: C_3  and  C_4
REMARK    4  A    between atoms: C_4  and  C_5
REMARK    5  A    between atoms: C_5  and  N_6
REMARK    6  A    between atoms: C_5  and  C_19
REMARK    7  A    between atoms: C_7  and  C_9
REMARK    8  A    between atoms: C_9  and  C_10
REMARK    9  A    between atoms: C_13  and  C_14
REMARK   10  A    between atoms: C_14  and  O_16
REMARK   11  A    between atoms: C_24  and  N_25
REMARK                            x       y       z     vdW  Elec       q    Type
REMARK                         _______ _______ _______ _____ _____    ______ ____
ROOT
ATOM      1  C   UNL     1       2.372   6.664  20.020  0.00  0.00    +0.000 C 
ENDROOT
BRANCH   1   2
ATOM      2  C   UNL     1       2.295   5.129  19.844  0.00  0.00    +0.000 A 
ATOM      3  C   UNL     1       1.228   4.468  20.528  0.00  0.00    +0.000 A 
ATOM      4  C   UNL     1       1.056   3.089  20.550  0.00  0.00    +0.000 A 
ATOM      5  C   UNL     1       1.954   2.300  19.875  0.00  0.00    +0.000 A 
ATOM      6  C   UNL     1       3.005   2.904  19.185  0.00  0.00    +0.000 A 
ATOM      7  C   UNL     1       3.235   4.311  19.149  0.00  0.00    +0.000 A 
BRANCH   7   8
ATOM      8  N   UNL     1       4.357   4.711  18.413  0.00  0.00    +0.000 N 
ATOM      9  C   UNL     1       5.687   4.863  18.989  0.00  0.00    +0.000 C 
ATOM     10  C   UNL     1       6.426   6.015  18.300  0.00  0.00    +0.000 C 
ATOM     11  C   UNL     1       6.462   5.836  16.785  0.00  0.00    +0.000 C 
ATOM     12  C   UNL     1       5.046   5.666  16.245  0.00  0.00    +0.000 C 
ATOM     13  C   UNL     1       4.327   4.509  16.948  0.00  0.00    +0.000 C 
ENDBRANCH   7   8
ENDBRANCH   1   2
BRANCH   1  14
ATOM     14  N   UNL     1       1.092   7.252  20.421  0.00  0.00    +0.000 N 
ATOM     15  C   UNL     1       0.987   8.245  21.370  0.00  0.00    +0.000 C 
ATOM     16  O   UNL     1       1.934   8.698  22.007  0.00  0.00    +0.000 OA
ATOM     17  H   UNL     1       0.250   6.794  20.099  0.00  0.00    +0.000 HD
BRANCH  15  18
ATOM     18  C   UNL     1      -0.430   8.725  21.619  0.00  0.00    +0.000 C 
BRANCH  18  19
ATOM     19  C   UNL     1      -0.440  10.207  21.906  0.00  0.00    +0.000 A 
ATOM     20  C   UNL     1      -1.176  10.697  22.998  0.00  0.00    +0.000 A 
ATOM     21  C   UNL     1      -1.276  12.066  23.235  0.00  0.00    +0.000 A 
ATOM     22  C   UNL     1      -0.636  12.961  22.374  0.00  0.00    +0.000 A 
ATOM     23  C   UNL     1       0.145  12.479  21.316  0.00  0.00    +0.000 A 
ATOM     24  C   UNL     1       0.242  11.106  21.081  0.00  0.00    +0.000 A 
BRANCH  22  25
ATOM     25  C   UNL     1      -0.733  14.428  22.567  0.00  0.00    +0.000 C 
ATOM     26  O   UNL     1       0.201  15.105  22.958  0.00  0.00    +0.000 OA
BRANCH  25  27
ATOM     27  O   UNL     1      -1.927  14.946  22.210  0.00  0.00    +0.000 OA
ATOM     28  H   UNL     1      -2.078  15.012  21.249  0.00  0.00    +0.000 HD
ENDBRANCH  25  27
ENDBRANCH  22  25
ENDBRANCH  18  19
ENDBRANCH  15  18
ENDBRANCH   1  14
BRANCH   1  29
ATOM     29  C   UNL     1       2.959   7.437  18.796  0.00  0.00    +0.000 C 
BRANCH  29  30
ATOM     30  C   UNL     1       2.014   8.023  17.742  0.00  0.00    +0.000 C 
BRANCH  30  32
ATOM     31  C   UNL     1       0.274   9.839  17.879  0.00  0.00    +0.000 C 
ATOM     32  C   UNL     1       1.762   9.519  17.918  0.00  0.00    +0.000 C 
ENDBRANCH  30  32
ENDBRANCH  29  30
ENDBRANCH   1  29
TORSDOF 10
ENDMDL
MODEL 7
REMARK VINA RESULT:      -6.9      3.018      8.855
REMARK  Name = 
REMARK  11 active torsions:
REMARK  status: ('A' for Active; 'I' for Inactive)
REMARK    1  A    between atoms: C_1  and  C_2
REMARK    2  A    between atoms: C_2  and  C_3
REMARK    3  A    between atoms: C_3  and  C_4
REMARK    4  A    between atoms: C_4  and  C_5
REMARK    5  A    between atoms: C_5  and  N_6
REMARK    6  A    between atoms: C_5  and  C_19
REMARK    7  A    between atoms: C_7  and  C_9
REMARK    8  A    between atoms: C_9  and  C_10
REMARK    9  A    between atoms: C_13  and  C_14
REMARK   10  A    between atoms: C_14  and  O_16
REMARK   11  A    between atoms: C_24  and  N_25
REMARK                            x       y       z     vdW  Elec       q    Type
REMARK                         _______ _______ _______ _____ _____    ______ ____
ROOT
ATOM      1  C   UNL     1      -0.204  10.350  18.949  0.00  0.00    +0.000 C 
ENDROOT
BRANCH   1   2
ATOM      2  C   UNL     1      -1.541  10.607  18.213  0.00  0.00    +0.000 A 
ATOM      3  C   UNL     1      -1.809   9.772  17.084  0.00  0.00    +0.000 A 
ATOM      4  C   UNL     1      -2.918   9.917  16.258  0.00  0.00    +0.000 A 
ATOM      5  C   UNL     1      -3.822  10.913  16.533  0.00  0.00    +0.000 A 
ATOM      6  C   UNL     1      -3.605  11.743  17.633  0.00  0.00    +0.000 A 
ATOM      7  C   UNL     1      -2.474  11.648  18.497  0.00  0.00    +0.000 A 
BRANCH   7   8
ATOM      8  N   UNL     1      -2.436  12.589  19.532  0.00  0.00    +0.000 N 
ATOM      9  C   UNL     1      -3.259  12.502  20.732  0.00  0.00    +0.000 C 
ATOM     10  C   UNL     1      -3.646  13.907  21.204  0.00  0.00    +0.000 C 
ATOM     11  C   UNL     1      -2.420  14.794  21.399  0.00  0.00    +0.000 C 
ATOM     12  C   UNL     1      -1.592  14.832  20.119  0.00  0.00    +0.000 C 
ATOM     13  C   UNL     1      -1.217  13.416  19.666  0.00  0.00    +0.000 C 
ENDBRANCH   7   8
ENDBRANCH   1   2
BRANCH   1  14
ATOM     14  N   UNL     1       0.572   9.262  18.350  0.00  0.00    +0.000 N 
ATOM     15  C   UNL     1       1.902   9.387  18.012  0.00  0.00    +0.000 C 
ATOM     16  O   UNL     1       2.553  10.421  18.128  0.00  0.00    +0.000 OA
ATOM     17  H   UNL     1       0.062   8.450  18.031  0.00  0.00    +0.000 HD
BRANCH  15  18
ATOM     18  C   UNL     1       2.517   8.132  17.423  0.00  0.00    +0.000 C 
BRANCH  18  19
ATOM     19  C   UNL     1       2.350   6.970  18.373  0.00  0.00    +0.000 A 
ATOM     20  C   UNL     1       2.274   5.663  17.863  0.00  0.00    +0.000 A 
ATOM     21  C   UNL     1       2.031   4.581  18.706  0.00  0.00    +0.000 A 
ATOM     22  C   UNL     1       1.862   4.801  20.075  0.00  0.00    +0.000 A 
ATOM     23  C   UNL     1       1.992   6.093  20.598  0.00  0.00    +0.000 A 
ATOM     24  C   UNL     1       2.233   7.175  19.751  0.00  0.00    +0.000 A 
BRANCH  22  25
ATOM     25  C   UNL     1       1.576   3.687  21.010  0.00  0.00    +0.000 C 
ATOM     26  O   UNL     1       2.211   3.505  22.034  0.00  0.00    +0.000 OA
BRANCH  25  27
ATOM     27  O   UNL     1       0.513   2.935  20.654  0.00  0.00    +0.000 OA
ATOM     28  H   UNL     1      -0.090   3.352  20.010  0.00  0.00    +0.000 HD
ENDBRANCH  25  27
ENDBRANCH  22  25
ENDBRANCH  18  19
ENDBRANCH  15  18
ENDBRANCH   1  14
BRANCH   1  29
ATOM     29  C   UNL     1      -0.333  10.133  20.490  0.00  0.00    +0.000 C 
BRANCH  29  30
ATOM     30  C   UNL     1       0.898  10.298  21.387  0.00  0.00    +0.000 C 
BRANCH  30  32
ATOM     31  C   UNL     1      -0.245   9.412  23.449  0.00  0.00    +0.000 C 
ATOM     32  C   UNL     1       0.960   9.283  22.526  0.00  0.00    +0.000 C 
ENDBRANCH  30  32
ENDBRANCH  29  30
ENDBRANCH   1  29
TORSDOF 10
ENDMDL
MODEL 8
REMARK VINA RESULT:      -6.9      2.186      4.870
REMARK  Name = 
REMARK  11 active torsions:
REMARK  status: ('A' for Active; 'I' for Inactive)
REMARK    1  A    between atoms: C_1  and  C_2
REMARK    2  A    between atoms: C_2  and  C_3
REMARK    3  A    between atoms: C_3  and  C_4
REMARK    4  A    between atoms: C_4  and  C_5
REMARK    5  A    between atoms: C_5  and  N_6
REMARK    6  A    between atoms: C_5  and  C_19
REMARK    7  A    between atoms: C_7  and  C_9
REMARK    8  A    between atoms: C_9  and  C_10
REMARK    9  A    between atoms: C_13  and  C_14
REMARK   10  A    between atoms: C_14  and  O_16
REMARK   11  A    between atoms: C_24  and  N_25
REMARK                            x       y       z     vdW  Elec       q    Type
REMARK                         _______ _______ _______ _____ _____    ______ ____
ROOT
ATOM      1  C   UNL     1       4.977   6.971  16.540  0.00  0.00    +0.000 C 
ENDROOT
BRANCH   1   2
ATOM      2  C   UNL     1       5.887   6.463  17.684  0.00  0.00    +0.000 A 
ATOM      3  C   UNL     1       7.168   7.087  17.795  0.00  0.00    +0.000 A 
ATOM      4  C   UNL     1       8.143   6.701  18.708  0.00  0.00    +0.000 A 
ATOM      5  C   UNL     1       7.872   5.662  19.564  0.00  0.00    +0.000 A 
ATOM      6  C   UNL     1       6.630   5.032  19.497  0.00  0.00    +0.000 A 
ATOM      7  C   UNL     1       5.606   5.378  18.566  0.00  0.00    +0.000 A 
BRANCH   7   8
ATOM      8  N   UNL     1       4.439   4.609  18.653  0.00  0.00    +0.000 N 
ATOM      9  C   UNL     1       4.260   3.335  17.970  0.00  0.00    +0.000 C 
ATOM     10  C   UNL     1       2.797   3.170  17.546  0.00  0.00    +0.000 C 
ATOM     11  C   UNL     1       1.846   3.339  18.727  0.00  0.00    +0.000 C 
ATOM     12  C   UNL     1       2.092   4.679  19.410  0.00  0.00    +0.000 C 
ATOM     13  C   UNL     1       3.561   4.822  19.825  0.00  0.00    +0.000 C 
ENDBRANCH   7   8
ENDBRANCH   1   2
BRANCH   1  14
ATOM     14  N   UNL     1       3.564   7.021  16.920  0.00  0.00    +0.000 N 
ATOM     15  C   UNL     1       2.986   8.118  17.521  0.00  0.00    +0.000 C 
ATOM     16  O   UNL     1       3.597   9.133  17.842  0.00  0.00    +0.000 OA
ATOM     17  H   UNL     1       3.042   6.156  16.881  0.00  0.00    +0.000 HD
BRANCH  15  18
ATOM     18  C   UNL     1       1.506   7.964  17.812  0.00  0.00    +0.000 C 
BRANCH  18  19
ATOM     19  C   UNL     1       1.159   8.619  19.127  0.00  0.00    +0.000 A 
ATOM     20  C   UNL     1       1.583   8.027  20.329  0.00  0.00    +0.000 A 
ATOM     21  C   UNL     1       1.203   8.559  21.559  0.00  0.00    +0.000 A 
ATOM     22  C   UNL     1       0.390   9.695  21.596  0.00  0.00    +0.000 A 
ATOM     23  C   UNL     1       0.010  10.323  20.403  0.00  0.00    +0.000 A 
ATOM     24  C   UNL     1       0.391   9.786  19.172  0.00  0.00    +0.000 A 
BRANCH  22  25
ATOM     25  C   UNL     1      -0.063  10.284  22.878  0.00  0.00    +0.000 C 
ATOM     26  O   UNL     1      -0.484  11.424  22.969  0.00  0.00    +0.000 OA
BRANCH  25  27
ATOM     27  O   UNL     1      -0.025   9.422  23.917  0.00  0.00    +0.000 OA
ATOM     28  H   UNL     1       0.500   8.614  23.764  0.00  0.00    +0.000 HD
ENDBRANCH  25  27
ENDBRANCH  22  25
ENDBRANCH  18  19
ENDBRANCH  15  18
ENDBRANCH   1  14
BRANCH   1  29
ATOM     29  C   UNL     1       5.143   6.215  15.183  0.00  0.00    +0.000 C 
BRANCH  29  30
ATOM     30  C   UNL     1       5.834   4.848  15.155  0.00  0.00    +0.000 C 
BRANCH  30  32
ATOM     31  C   UNL     1       6.018   3.664  12.939  0.00  0.00    +0.000 C 
ATOM     32  C   UNL     1       6.690   4.626  13.910  0.00  0.00    +0.000 C 
ENDBRANCH  30  32
ENDBRANCH  29  30
ENDBRANCH   1  29
TORSDOF 10
ENDMDL
MODEL 9
REMARK VINA RESULT:      -6.9      3.228      9.101
REMARK  Name = 
REMARK  11 active torsions:
REMARK  status: ('A' for Active; 'I' for Inactive)
REMARK    1  A    between atoms: C_1  and  C_2
REMARK    2  A    between atoms: C_2  and  C_3
REMARK    3  A    between atoms: C_3  and  C_4
REMARK    4  A    between atoms: C_4  and  C_5
REMARK    5  A    between atoms: C_5  and  N_6
REMARK    6  A    between atoms: C_5  and  C_19
REMARK    7  A    between atoms: C_7  and  C_9
REMARK    8  A    between atoms: C_9  and  C_10
REMARK    9  A    between atoms: C_13  and  C_14
REMARK   10  A    between atoms: C_14  and  O_16
REMARK   11  A    between atoms: C_24  and  N_25
REMARK                            x       y       z     vdW  Elec       q    Type
REMARK                         _______ _______ _______ _____ _____    ______ ____
ROOT
ATOM      1  C   UNL     1       0.916  10.121  19.963  0.00  0.00    +0.000 C 
ENDROOT
BRANCH   1   2
ATOM      2  C   UNL     1       0.763  11.563  19.423  0.00  0.00    +0.000 A 
ATOM      3  C   UNL     1       1.791  12.486  19.790  0.00  0.00    +0.000 A 
ATOM      4  C   UNL     1       1.773  13.838  19.465  0.00  0.00    +0.000 A 
ATOM      5  C   UNL     1       0.713  14.330  18.744  0.00  0.00    +0.000 A 
ATOM      6  C   UNL     1      -0.307  13.462  18.356  0.00  0.00    +0.000 A 
ATOM      7  C   UNL     1      -0.344  12.074  18.682  0.00  0.00    +0.000 A 
BRANCH   7   8
ATOM      8  N   UNL     1      -1.466  11.382  18.210  0.00  0.00    +0.000 N 
ATOM      9  C   UNL     1      -1.388  10.164  17.414  0.00  0.00    +0.000 C 
ATOM     10  C   UNL     1      -2.541  10.124  16.406  0.00  0.00    +0.000 C 
ATOM     11  C   UNL     1      -3.894  10.289  17.090  0.00  0.00    +0.000 C 
ATOM     12  C   UNL     1      -3.909  11.568  17.919  0.00  0.00    +0.000 C 
ATOM     13  C   UNL     1      -2.748  11.586  18.920  0.00  0.00    +0.000 C 
ENDBRANCH   7   8
ENDBRANCH   1   2
BRANCH   1  14
ATOM     14  N   UNL     1       1.280   9.162  18.918  0.00  0.00    +0.000 N 
ATOM     15  C   UNL     1       1.902   7.961  19.185  0.00  0.00    +0.000 C 
ATOM     16  O   UNL     1       2.258   7.599  20.302  0.00  0.00    +0.000 OA
ATOM     17  H   UNL     1       1.211   9.472  17.959  0.00  0.00    +0.000 HD
BRANCH  15  18
ATOM     18  C   UNL     1       2.171   7.110  17.959  0.00  0.00    +0.000 C 
BRANCH  18  19
ATOM     19  C   UNL     1       3.572   6.552  18.004  0.00  0.00    +0.000 A 
ATOM     20  C   UNL     1       4.597   7.190  17.285  0.00  0.00    +0.000 A 
ATOM     21  C   UNL     1       5.879   6.648  17.237  0.00  0.00    +0.000 A 
ATOM     22  C   UNL     1       6.147   5.455  17.913  0.00  0.00    +0.000 A 
ATOM     23  C   UNL     1       5.147   4.843  18.677  0.00  0.00    +0.000 A 
ATOM     24  C   UNL     1       3.862   5.387  18.721  0.00  0.00    +0.000 A 
BRANCH  22  25
ATOM     25  C   UNL     1       7.488   4.824  17.871  0.00  0.00    +0.000 C 
ATOM     26  O   UNL     1       7.963   4.350  16.853  0.00  0.00    +0.000 OA
BRANCH  25  27
ATOM     27  O   UNL     1       8.154   4.880  19.044  0.00  0.00    +0.000 OA
ATOM     28  H   UNL     1       9.113   5.042  18.966  0.00  0.00    +0.000 HD
ENDBRANCH  25  27
ENDBRANCH  22  25
ENDBRANCH  18  19
ENDBRANCH  15  18
ENDBRANCH   1  14
BRANCH   1  29
ATOM     29  C   UNL     1      -0.306   9.591  20.778  0.00  0.00    +0.000 C 
BRANCH  29  30
ATOM     30  C   UNL     1      -0.127   9.201  22.248  0.00  0.00    +0.000 C 
BRANCH  30  32
ATOM     31  C   UNL     1      -1.234  11.450  22.502  0.00  0.00    +0.000 C 
ATOM     32  C   UNL     1      -0.764  10.192  23.221  0.00  0.00    +0.000 C 
ENDBRANCH  30  32
ENDBRANCH  29  30
ENDBRANCH   1  29
TORSDOF 10
ENDMDL
