MODEL 1
REMARK VINA RESULT:      -7.9      0.000      0.000
REMARK  Name = 
REMARK  10 active torsions:
REMARK  status: ('A' for Active; 'I' for Inactive)
REMARK    1  A    between atoms: C_1  and  O_2
REMARK    2  A    between atoms: O_2  and  C_3
REMARK    3  A    between atoms: C_5  and  O_6
REMARK    4  A    between atoms: O_6  and  C_7
REMARK    5  A    between atoms: C_8  and  C_9
REMARK    6  A    between atoms: N_12  and  C_13
REMARK    7  A    between atoms: C_17  and  C_18
REMARK    8  A    between atoms: C_18  and  C_20
REMARK    9  A    between atoms: C_21  and  C_22
REMARK   10  A    between atoms: C_27  and  C_28
REMARK                            x       y       z     vdW  Elec       q    Type
REMARK                         _______ _______ _______ _____ _____    ______ ____
ROOT
ATOM      1  C   UNL     1       1.498   7.912  20.145  0.00  0.00    +0.000 A 
ATOM      2  C   UNL     1       2.026   6.682  20.571  0.00  0.00    +0.000 A 
ATOM      3  C   UNL     1       2.935   5.952  19.791  0.00  0.00    +0.000 A 
ATOM      4  C   UNL     1       3.334   6.454  18.543  0.00  0.00    +0.000 A 
ATOM      5  C   UNL     1       2.780   7.678  18.110  0.00  0.00    +0.000 A 
ATOM      6  C   UNL     1       1.852   8.398  18.883  0.00  0.00    +0.000 A 
ENDROOT
BRANCH   4   7
ATOM      7  C   UNL     1       4.315   5.760  17.607  0.00  0.00    +0.000 C 
ATOM      8  C   UNL     1       4.825   6.650  16.466  0.00  0.00    +0.000 C 
ATOM      9  C   UNL     1       5.885   5.910  15.647  0.00  0.00    +0.000 C 
ATOM     10  N   UNL     1       5.369   4.638  15.124  0.00  0.00    +0.000 NA
ATOM     11  C   UNL     1       6.396   3.968  14.324  0.00  0.00    +0.000 C 
ATOM     12  C   UNL     1       4.900   3.757  16.204  0.00  0.00    +0.000 C 
ATOM     13  C   UNL     1       3.806   4.427  17.045  0.00  0.00    +0.000 C 
ENDBRANCH   4   7
BRANCH   1  15
ATOM     14  C   UNL     1       1.205   9.128  22.154  0.00  0.00    +0.000 C 
ATOM     15  O   UNL     1       0.647   8.651  20.928  0.00  0.00    +0.000 OA
ENDBRANCH   1  15
BRANCH   3  16
ATOM     16  O   UNL     1       3.487   4.769  20.206  0.00  0.00    +0.000 OA
ATOM     17  C   UNL     1       2.590   3.702  20.505  0.00  0.00    +0.000 C 
ENDBRANCH   3  16
BRANCH   6  18
ATOM     18  C   UNL     1       1.369   9.681  18.296  0.00  0.00    +0.000 C 
ATOM     19  O   UNL     1       2.167  10.595  18.109  0.00  0.00    +0.000 OA
BRANCH  18  20
ATOM     20  C   UNL     1      -0.047   9.776  17.839  0.00  0.00    +0.000 C 
ATOM     21  C   UNL     1      -0.791  10.849  18.168  0.00  0.00    +0.000 C 
BRANCH  21  22
ATOM     22  C   UNL     1      -2.185  11.089  17.727  0.00  0.00    +0.000 A 
ATOM     23  C   UNL     1      -2.610  10.639  16.463  0.00  0.00    +0.000 A 
ATOM     24  C   UNL     1      -3.917  10.849  16.013  0.00  0.00    +0.000 A 
ATOM     25  C   UNL     1      -4.836  11.496  16.828  0.00  0.00    +0.000 A 
ATOM     26  C   UNL     1      -4.445  11.918  18.096  0.00  0.00    +0.000 A 
ATOM     27  C   UNL     1      -3.132  11.726  18.563  0.00  0.00    +0.000 A 
ATOM     28  C   UNL     1      -2.814  12.187  19.961  0.00  0.00    +0.000 C 
ENDBRANCH  21  22
ENDBRANCH  18  20
ENDBRANCH   6  18
TORSDOF 6
ENDMDL
MODEL 2
REMARK VINA RESULT:      -7.9      0.542      1.407
REMARK  Name = 
REMARK  10 active torsions:
REMARK  status: ('A' for Active; 'I' for Inactive)
REMARK    1  A    between atoms: C_1  and  O_2
REMARK    2  A    between atoms: O_2  and  C_3
REMARK    3  A    between atoms: C_5  and  O_6
REMARK    4  A    between atoms: O_6  and  C_7
REMARK    5  A    between atoms: C_8  and  C_9
REMARK    6  A    between atoms: N_12  and  C_13
REMARK    7  A    between atoms: C_17  and  C_18
REMARK    8  A    between atoms: C_18  and  C_20
REMARK    9  A    between atoms: C_21  and  C_22
REMARK   10  A    between atoms: C_27  and  C_28
REMARK                            x       y       z     vdW  Elec       q    Type
REMARK                         _______ _______ _______ _____ _____    ______ ____
ROOT
ATOM      1  C   UNL     1       1.255   7.933  20.387  0.00  0.00    +0.000 A 
ATOM      2  C   UNL     1       1.707   6.664  20.785  0.00  0.00    +0.000 A 
ATOM      3  C   UNL     1       2.616   5.923  20.017  0.00  0.00    +0.000 A 
ATOM      4  C   UNL     1       3.095   6.454  18.810  0.00  0.00    +0.000 A 
ATOM      5  C   UNL     1       2.618   7.719  18.403  0.00  0.00    +0.000 A 
ATOM      6  C   UNL     1       1.689   8.452  19.163  0.00  0.00    +0.000 A 
ENDROOT
BRANCH   4   7
ATOM      7  C   UNL     1       4.085   5.752  17.890  0.00  0.00    +0.000 C 
ATOM      8  C   UNL     1       4.691   6.661  16.813  0.00  0.00    +0.000 C 
ATOM      9  C   UNL     1       5.752   5.904  16.011  0.00  0.00    +0.000 C 
ATOM     10  N   UNL     1       5.202   4.682  15.410  0.00  0.00    +0.000 NA
ATOM     11  C   UNL     1       6.232   3.994  14.630  0.00  0.00    +0.000 C 
ATOM     12  C   UNL     1       4.639   3.782  16.428  0.00  0.00    +0.000 C 
ATOM     13  C   UNL     1       3.540   4.470  17.247  0.00  0.00    +0.000 C 
ENDBRANCH   4   7
BRANCH   1  15
ATOM     14  C   UNL     1       0.987   9.247  22.338  0.00  0.00    +0.000 C 
ATOM     15  O   UNL     1       0.404   8.682  21.162  0.00  0.00    +0.000 OA
ENDBRANCH   1  15
BRANCH   3  16
ATOM     16  O   UNL     1       3.095   4.700  20.407  0.00  0.00    +0.000 OA
ATOM     17  C   UNL     1       2.241   3.898  21.219  0.00  0.00    +0.000 C 
ENDBRANCH   3  16
BRANCH   6  18
ATOM     18  C   UNL     1       1.292   9.777  18.608  0.00  0.00    +0.000 C 
ATOM     19  O   UNL     1       2.104  10.421  17.949  0.00  0.00    +0.000 OA
BRANCH  18  20
ATOM     20  C   UNL     1      -0.119  10.231  18.766  0.00  0.00    +0.000 C 
ATOM     21  C   UNL     1      -0.869  10.494  17.679  0.00  0.00    +0.000 C 
BRANCH  21  22
ATOM     22  C   UNL     1      -2.295  10.892  17.702  0.00  0.00    +0.000 A 
ATOM     23  C   UNL     1      -2.813  11.591  18.808  0.00  0.00    +0.000 A 
ATOM     24  C   UNL     1      -4.155  11.981  18.864  0.00  0.00    +0.000 A 
ATOM     25  C   UNL     1      -5.005  11.698  17.804  0.00  0.00    +0.000 A 
ATOM     26  C   UNL     1      -4.504  11.038  16.685  0.00  0.00    +0.000 A 
ATOM     27  C   UNL     1      -3.160  10.627  16.613  0.00  0.00    +0.000 A 
ATOM     28  C   UNL     1      -2.704   9.950  15.348  0.00  0.00    +0.000 C 
ENDBRANCH  21  22
ENDBRANCH  18  20
ENDBRANCH   6  18
TORSDOF 6
ENDMDL
MODEL 3
REMARK VINA RESULT:      -7.4      0.981      1.913
REMARK  Name = 
REMARK  10 active torsions:
REMARK  status: ('A' for Active; 'I' for Inactive)
REMARK    1  A    between atoms: C_1  and  O_2
REMARK    2  A    between atoms: O_2  and  C_3
REMARK    3  A    between atoms: C_5  and  O_6
REMARK    4  A    between atoms: O_6  and  C_7
REMARK    5  A    between atoms: C_8  and  C_9
REMARK    6  A    between atoms: N_12  and  C_13
REMARK    7  A    between atoms: C_17  and  C_18
REMARK    8  A    between atoms: C_18  and  C_20
REMARK    9  A    between atoms: C_21  and  C_22
REMARK   10  A    between atoms: C_27  and  C_28
REMARK                            x       y       z     vdW  Elec       q    Type
REMARK                         _______ _______ _______ _____ _____    ______ ____
ROOT
ATOM      1  C   UNL     1       1.125   8.883  20.422  0.00  0.00    +0.000 A 
ATOM      2  C   UNL     1       1.436   7.558  20.771  0.00  0.00    +0.000 A 
ATOM      3  C   UNL     1       2.141   6.707  19.909  0.00  0.00    +0.000 A 
ATOM      4  C   UNL     1       2.551   7.181  18.653  0.00  0.00    +0.000 A 
ATOM      5  C   UNL     1       2.213   8.504  18.298  0.00  0.00    +0.000 A 
ATOM      6  C   UNL     1       1.487   9.350  19.155  0.00  0.00    +0.000 A 
ENDROOT
BRANCH   4   7
ATOM      7  C   UNL     1       3.324   6.358  17.631  0.00  0.00    +0.000 C 
ATOM      8  C   UNL     1       3.203   4.841  17.830  0.00  0.00    +0.000 C 
ATOM      9  C   UNL     1       3.915   4.097  16.697  0.00  0.00    +0.000 C 
ATOM     10  N   UNL     1       5.324   4.498  16.592  0.00  0.00    +0.000 NA
ATOM     11  C   UNL     1       5.983   3.751  15.519  0.00  0.00    +0.000 C 
ATOM     12  C   UNL     1       5.463   5.945  16.374  0.00  0.00    +0.000 C 
ATOM     13  C   UNL     1       4.800   6.754  17.497  0.00  0.00    +0.000 C 
ENDBRANCH   4   7
BRANCH   1  15
ATOM     14  C   UNL     1      -0.276   9.096  22.318  0.00  0.00    +0.000 C 
ATOM     15  O   UNL     1       0.479   9.733  21.285  0.00  0.00    +0.000 OA
ENDBRANCH   1  15
BRANCH   3  16
ATOM     16  O   UNL     1       2.484   5.424  20.247  0.00  0.00    +0.000 OA
ATOM     17  C   UNL     1       1.442   4.578  20.726  0.00  0.00    +0.000 C 
ENDBRANCH   3  16
BRANCH   6  18
ATOM     18  C   UNL     1       1.220  10.725  18.644  0.00  0.00    +0.000 C 
ATOM     19  O   UNL     1       2.138  11.370  18.143  0.00  0.00    +0.000 OA
BRANCH  18  20
ATOM     20  C   UNL     1      -0.181  11.234  18.643  0.00  0.00    +0.000 C 
ATOM     21  C   UNL     1      -1.106  10.666  17.845  0.00  0.00    +0.000 C 
BRANCH  21  22
ATOM     22  C   UNL     1      -2.538  11.039  17.797  0.00  0.00    +0.000 A 
ATOM     23  C   UNL     1      -3.133  11.686  18.895  0.00  0.00    +0.000 A 
ATOM     24  C   UNL     1      -4.483  12.052  18.886  0.00  0.00    +0.000 A 
ATOM     25  C   UNL     1      -5.263  11.797  17.766  0.00  0.00    +0.000 A 
ATOM     26  C   UNL     1      -4.685  11.189  16.655  0.00  0.00    +0.000 A 
ATOM     27  C   UNL     1      -3.331  10.803  16.649  0.00  0.00    +0.000 A 
ATOM     28  C   UNL     1      -2.788  10.184  15.389  0.00  0.00    +0.000 C 
ENDBRANCH  21  22
ENDBRANCH  18  20
ENDBRANCH   6  18
TORSDOF 6
ENDMDL
MODEL 4
REMARK VINA RESULT:      -7.4      1.096      1.388
REMARK  Name = 
REMARK  10 active torsions:
REMARK  status: ('A' for Active; 'I' for Inactive)
REMARK    1  A    between atoms: C_1  and  O_2
REMARK    2  A    between atoms: O_2  and  C_3
REMARK    3  A    between atoms: C_5  and  O_6
REMARK    4  A    between atoms: O_6  and  C_7
REMARK    5  A    between atoms: C_8  and  C_9
REMARK    6  A    between atoms: N_12  and  C_13
REMARK    7  A    between atoms: C_17  and  C_18
REMARK    8  A    between atoms: C_18  and  C_20
REMARK    9  A    between atoms: C_21  and  C_22
REMARK   10  A    between atoms: C_27  and  C_28
REMARK                            x       y       z     vdW  Elec       q    Type
REMARK                         _______ _______ _______ _____ _____    ______ ____
ROOT
ATOM      1  C   UNL     1       0.974   8.012  20.758  0.00  0.00    +0.000 A 
ATOM      2  C   UNL     1       1.379   6.703  21.066  0.00  0.00    +0.000 A 
ATOM      3  C   UNL     1       2.289   5.997  20.266  0.00  0.00    +0.000 A 
ATOM      4  C   UNL     1       2.816   6.606  19.117  0.00  0.00    +0.000 A 
ATOM      5  C   UNL     1       2.385   7.913  18.799  0.00  0.00    +0.000 A 
ATOM      6  C   UNL     1       1.456   8.611  19.590  0.00  0.00    +0.000 A 
ENDROOT
BRANCH   4   7
ATOM      7  C   UNL     1       3.811   5.948  18.170  0.00  0.00    +0.000 C 
ATOM      8  C   UNL     1       5.029   5.335  18.873  0.00  0.00    +0.000 C 
ATOM      9  C   UNL     1       5.914   4.601  17.862  0.00  0.00    +0.000 C 
ATOM     10  N   UNL     1       6.335   5.491  16.771  0.00  0.00    +0.000 NA
ATOM     11  C   UNL     1       7.200   4.769  15.837  0.00  0.00    +0.000 C 
ATOM     12  C   UNL     1       5.182   6.070  16.066  0.00  0.00    +0.000 C 
ATOM     13  C   UNL     1       4.270   6.852  17.019  0.00  0.00    +0.000 C 
ENDBRANCH   4   7
BRANCH   1  15
ATOM     14  C   UNL     1       0.732   9.333  22.707  0.00  0.00    +0.000 C 
ATOM     15  O   UNL     1       0.123   8.722  21.568  0.00  0.00    +0.000 OA
ENDBRANCH   1  15
BRANCH   3  16
ATOM     16  O   UNL     1       2.722   4.733  20.570  0.00  0.00    +0.000 OA
ATOM     17  C   UNL     1       1.727   3.720  20.699  0.00  0.00    +0.000 C 
ENDBRANCH   3  16
BRANCH   6  18
ATOM     18  C   UNL     1       1.112   9.988  19.133  0.00  0.00    +0.000 C 
ATOM     19  O   UNL     1       1.746  10.944  19.572  0.00  0.00    +0.000 OA
BRANCH  18  20
ATOM     20  C   UNL     1       0.089  10.157  18.062  0.00  0.00    +0.000 C 
ATOM     21  C   UNL     1      -1.207  10.320  18.387  0.00  0.00    +0.000 C 
BRANCH  21  22
ATOM     22  C   UNL     1      -2.306  10.557  17.422  0.00  0.00    +0.000 A 
ATOM     23  C   UNL     1      -2.290   9.921  16.167  0.00  0.00    +0.000 A 
ATOM     24  C   UNL     1      -3.308  10.122  15.231  0.00  0.00    +0.000 A 
ATOM     25  C   UNL     1      -4.380  10.949  15.539  0.00  0.00    +0.000 A 
ATOM     26  C   UNL     1      -4.433  11.561  16.789  0.00  0.00    +0.000 A 
ATOM     27  C   UNL     1      -3.412  11.380  17.740  0.00  0.00    +0.000 A 
ATOM     28  C   UNL     1      -3.576  12.056  19.076  0.00  0.00    +0.000 C 
ENDBRANCH  21  22
ENDBRANCH  18  20
ENDBRANCH   6  18
TORSDOF 6
ENDMDL
MODEL 5
REMARK VINA RESULT:      -7.4      0.911      1.322
REMARK  Name = 
REMARK  10 active torsions:
REMARK  status: ('A' for Active; 'I' for Inactive)
REMARK    1  A    between atoms: C_1  and  O_2
REMARK    2  A    between atoms: O_2  and  C_3
REMARK    3  A    between atoms: C_5  and  O_6
REMARK    4  A    between atoms: O_6  and  C_7
REMARK    5  A    between atoms: C_8  and  C_9
REMARK    6  A    between atoms: N_12  and  C_13
REMARK    7  A    between atoms: C_17  and  C_18
REMARK    8  A    between atoms: C_18  and  C_20
REMARK    9  A    between atoms: C_21  and  C_22
REMARK   10  A    between atoms: C_27  and  C_28
REMARK                            x       y       z     vdW  Elec       q    Type
REMARK                         _______ _______ _______ _____ _____    ______ ____
ROOT
ATOM      1  C   UNL     1       1.241   8.579  20.381  0.00  0.00    +0.000 A 
ATOM      2  C   UNL     1       1.730   7.312  20.741  0.00  0.00    +0.000 A 
ATOM      3  C   UNL     1       2.471   6.520  19.852  0.00  0.00    +0.000 A 
ATOM      4  C   UNL     1       2.736   6.996  18.559  0.00  0.00    +0.000 A 
ATOM      5  C   UNL     1       2.219   8.258  18.195  0.00  0.00    +0.000 A 
ATOM      6  C   UNL     1       1.458   9.042  19.080  0.00  0.00    +0.000 A 
ENDROOT
BRANCH   4   7
ATOM      7  C   UNL     1       3.529   6.235  17.505  0.00  0.00    +0.000 C 
ATOM      8  C   UNL     1       3.421   4.709  17.623  0.00  0.00    +0.000 C 
ATOM      9  C   UNL     1       4.154   4.032  16.462  0.00  0.00    +0.000 C 
ATOM     10  N   UNL     1       5.560   4.450  16.397  0.00  0.00    +0.000 NA
ATOM     11  C   UNL     1       6.240   3.767  15.295  0.00  0.00    +0.000 C 
ATOM     12  C   UNL     1       5.687   5.908  16.256  0.00  0.00    +0.000 C 
ATOM     13  C   UNL     1       5.003   6.651  17.411  0.00  0.00    +0.000 C 
ENDBRANCH   4   7
BRANCH   1  15
ATOM     14  C   UNL     1      -0.532   8.746  21.941  0.00  0.00    +0.000 C 
ATOM     15  O   UNL     1       0.559   9.376  21.266  0.00  0.00    +0.000 OA
ENDBRANCH   1  15
BRANCH   3  16
ATOM     16  O   UNL     1       2.986   5.299  20.198  0.00  0.00    +0.000 OA
ATOM     17  C   UNL     1       2.212   4.494  21.083  0.00  0.00    +0.000 C 
ENDBRANCH   3  16
BRANCH   6  18
ATOM     18  C   UNL     1       0.995  10.358  18.554  0.00  0.00    +0.000 C 
ATOM     19  O   UNL     1       1.807  11.270  18.418  0.00  0.00    +0.000 OA
BRANCH  18  20
ATOM     20  C   UNL     1      -0.416  10.495  18.093  0.00  0.00    +0.000 C 
ATOM     21  C   UNL     1      -1.310  11.164  18.845  0.00  0.00    +0.000 C 
BRANCH  21  22
ATOM     22  C   UNL     1      -2.720  11.420  18.471  0.00  0.00    +0.000 A 
ATOM     23  C   UNL     1      -3.228  10.918  17.258  0.00  0.00    +0.000 A 
ATOM     24  C   UNL     1      -4.552  11.141  16.871  0.00  0.00    +0.000 A 
ATOM     25  C   UNL     1      -5.407  11.854  17.701  0.00  0.00    +0.000 A 
ATOM     26  C   UNL     1      -4.934  12.329  18.921  0.00  0.00    +0.000 A 
ATOM     27  C   UNL     1      -3.601  12.125  19.324  0.00  0.00    +0.000 A 
ATOM     28  C   UNL     1      -3.193  12.648  20.676  0.00  0.00    +0.000 C 
ENDBRANCH  21  22
ENDBRANCH  18  20
ENDBRANCH   6  18
TORSDOF 6
ENDMDL
MODEL 6
REMARK VINA RESULT:      -7.2      0.847      1.697
REMARK  Name = 
REMARK  10 active torsions:
REMARK  status: ('A' for Active; 'I' for Inactive)
REMARK    1  A    between atoms: C_1  and  O_2
REMARK    2  A    between atoms: O_2  and  C_3
REMARK    3  A    between atoms: C_5  and  O_6
REMARK    4  A    between atoms: O_6  and  C_7
REMARK    5  A    between atoms: C_8  and  C_9
REMARK    6  A    between atoms: N_12  and  C_13
REMARK    7  A    between atoms: C_17  and  C_18
REMARK    8  A    between atoms: C_18  and  C_20
REMARK    9  A    between atoms: C_21  and  C_22
REMARK   10  A    between atoms: C_27  and  C_28
REMARK                            x       y       z     vdW  Elec       q    Type
REMARK                         _______ _______ _______ _____ _____    ______ ____
ROOT
ATOM      1  C   UNL     1       1.388   7.970  20.381  0.00  0.00    +0.000 A 
ATOM      2  C   UNL     1       1.929   6.724  20.736  0.00  0.00    +0.000 A 
ATOM      3  C   UNL     1       2.833   6.041  19.911  0.00  0.00    +0.000 A 
ATOM      4  C   UNL     1       3.215   6.610  18.686  0.00  0.00    +0.000 A 
ATOM      5  C   UNL     1       2.649   7.851  18.323  0.00  0.00    +0.000 A 
ATOM      6  C   UNL     1       1.725   8.524  19.142  0.00  0.00    +0.000 A 
ENDROOT
BRANCH   4   7
ATOM      7  C   UNL     1       4.189   5.972  17.704  0.00  0.00    +0.000 C 
ATOM      8  C   UNL     1       5.518   5.537  18.337  0.00  0.00    +0.000 C 
ATOM      9  C   UNL     1       6.384   4.808  17.307  0.00  0.00    +0.000 C 
ATOM     10  N   UNL     1       6.622   5.639  16.120  0.00  0.00    +0.000 NA
ATOM     11  C   UNL     1       7.474   4.925  15.167  0.00  0.00    +0.000 C 
ATOM     12  C   UNL     1       5.361   6.045  15.481  0.00  0.00    +0.000 C 
ATOM     13  C   UNL     1       4.457   6.815  16.451  0.00  0.00    +0.000 C 
ENDBRANCH   4   7
BRANCH   1  15
ATOM     14  C   UNL     1       1.175   9.347  22.294  0.00  0.00    +0.000 C 
ATOM     15  O   UNL     1       0.542   8.663  21.211  0.00  0.00    +0.000 OA
ENDBRANCH   1  15
BRANCH   3  16
ATOM     16  O   UNL     1       3.397   4.841  20.257  0.00  0.00    +0.000 OA
ATOM     17  C   UNL     1       2.511   3.799  20.658  0.00  0.00    +0.000 C 
ENDBRANCH   3  16
BRANCH   6  18
ATOM     18  C   UNL     1       1.228   9.832  18.628  0.00  0.00    +0.000 C 
ATOM     19  O   UNL     1       1.985  10.551  17.980  0.00  0.00    +0.000 OA
BRANCH  18  20
ATOM     20  C   UNL     1      -0.210  10.178  18.809  0.00  0.00    +0.000 C 
ATOM     21  C   UNL     1      -0.894  10.770  17.812  0.00  0.00    +0.000 C 
BRANCH  21  22
ATOM     22  C   UNL     1      -2.335  11.108  17.847  0.00  0.00    +0.000 A 
ATOM     23  C   UNL     1      -2.874  11.779  18.960  0.00  0.00    +0.000 A 
ATOM     24  C   UNL     1      -4.230  12.112  19.029  0.00  0.00    +0.000 A 
ATOM     25  C   UNL     1      -5.076  11.799  17.973  0.00  0.00    +0.000 A 
ATOM     26  C   UNL     1      -4.556  11.165  16.847  0.00  0.00    +0.000 A 
ATOM     27  C   UNL     1      -3.197  10.812  16.764  0.00  0.00    +0.000 A 
ATOM     28  C   UNL     1      -2.722  10.160  15.491  0.00  0.00    +0.000 C 
ENDBRANCH  21  22
ENDBRANCH  18  20
ENDBRANCH   6  18
TORSDOF 6
ENDMDL
MODEL 7
REMARK VINA RESULT:      -7.2      2.916      8.653
REMARK  Name = 
REMARK  10 active torsions:
REMARK  status: ('A' for Active; 'I' for Inactive)
REMARK    1  A    between atoms: C_1  and  O_2
REMARK    2  A    between atoms: O_2  and  C_3
REMARK    3  A    between atoms: C_5  and  O_6
REMARK    4  A    between atoms: O_6  and  C_7
REMARK    5  A    between atoms: C_8  and  C_9
REMARK    6  A    between atoms: N_12  and  C_13
REMARK    7  A    between atoms: C_17  and  C_18
REMARK    8  A    between atoms: C_18  and  C_20
REMARK    9  A    between atoms: C_21  and  C_22
REMARK   10  A    between atoms: C_27  and  C_28
REMARK                            x       y       z     vdW  Elec       q    Type
REMARK                         _______ _______ _______ _____ _____    ______ ____
ROOT
ATOM      1  C   UNL     1       4.825   5.223  18.513  0.00  0.00    +0.000 A 
ATOM      2  C   UNL     1       3.861   4.951  19.498  0.00  0.00    +0.000 A 
ATOM      3  C   UNL     1       2.774   5.805  19.732  0.00  0.00    +0.000 A 
ATOM      4  C   UNL     1       2.635   6.972  18.964  0.00  0.00    +0.000 A 
ATOM      5  C   UNL     1       3.620   7.252  17.994  0.00  0.00    +0.000 A 
ATOM      6  C   UNL     1       4.722   6.406  17.776  0.00  0.00    +0.000 A 
ENDROOT
BRANCH   4   7
ATOM      7  C   UNL     1       1.500   7.976  19.118  0.00  0.00    +0.000 C 
ATOM      8  C   UNL     1       1.488   9.074  18.046  0.00  0.00    +0.000 C 
ATOM      9  C   UNL     1       0.255   9.966  18.212  0.00  0.00    +0.000 C 
ATOM     10  N   UNL     1       0.192  10.552  19.557  0.00  0.00    +0.000 NA
ATOM     11  C   UNL     1      -0.981  11.419  19.676  0.00  0.00    +0.000 C 
ATOM     12  C   UNL     1       0.175   9.516  20.600  0.00  0.00    +0.000 C 
ATOM     13  C   UNL     1       1.406   8.605  20.514  0.00  0.00    +0.000 C 
ENDBRANCH   4   7
BRANCH   1  15
ATOM     14  C   UNL     1       7.129   4.754  18.780  0.00  0.00    +0.000 C 
ATOM     15  O   UNL     1       5.862   4.363  18.250  0.00  0.00    +0.000 OA
ENDBRANCH   1  15
BRANCH   3  16
ATOM     16  O   UNL     1       1.806   5.538  20.664  0.00  0.00    +0.000 OA
ATOM     17  C   UNL     1       1.089   4.314  20.523  0.00  0.00    +0.000 C 
ENDBRANCH   3  16
BRANCH   6  18
ATOM     18  C   UNL     1       5.670   6.830  16.705  0.00  0.00    +0.000 C 
ATOM     19  O   UNL     1       6.571   7.619  16.977  0.00  0.00    +0.000 OA
BRANCH  18  20
ATOM     20  C   UNL     1       5.572   6.190  15.362  0.00  0.00    +0.000 C 
ATOM     21  C   UNL     1       6.449   5.233  15.004  0.00  0.00    +0.000 C 
BRANCH  21  22
ATOM     22  C   UNL     1       6.420   4.483  13.728  0.00  0.00    +0.000 A 
ATOM     23  C   UNL     1       5.397   3.548  13.484  0.00  0.00    +0.000 A 
ATOM     24  C   UNL     1       5.339   2.821  12.291  0.00  0.00    +0.000 A 
ATOM     25  C   UNL     1       6.294   3.028  11.305  0.00  0.00    +0.000 A 
ATOM     26  C   UNL     1       7.295   3.974  11.512  0.00  0.00    +0.000 A 
ATOM     27  C   UNL     1       7.377   4.708  12.709  0.00  0.00    +0.000 A 
ATOM     28  C   UNL     1       8.474   5.733  12.826  0.00  0.00    +0.000 C 
ENDBRANCH  21  22
ENDBRANCH  18  20
ENDBRANCH   6  18
TORSDOF 6
ENDMDL
MODEL 8
REMARK VINA RESULT:      -7.2      4.469      8.441
REMARK  Name = 
REMARK  10 active torsions:
REMARK  status: ('A' for Active; 'I' for Inactive)
REMARK    1  A    between atoms: C_1  and  O_2
REMARK    2  A    between atoms: O_2  and  C_3
REMARK    3  A    between atoms: C_5  and  O_6
REMARK    4  A    between atoms: O_6  and  C_7
REMARK    5  A    between atoms: C_8  and  C_9
REMARK    6  A    between atoms: N_12  and  C_13
REMARK    7  A    between atoms: C_17  and  C_18
REMARK    8  A    between atoms: C_18  and  C_20
REMARK    9  A    between atoms: C_21  and  C_22
REMARK   10  A    between atoms: C_27  and  C_28
REMARK                            x       y       z     vdW  Elec       q    Type
REMARK                         _______ _______ _______ _____ _____    ______ ____
ROOT
ATOM      1  C   UNL     1       5.642   5.160  17.051  0.00  0.00    +0.000 A 
ATOM      2  C   UNL     1       4.380   4.578  17.254  0.00  0.00    +0.000 A 
ATOM      3  C   UNL     1       3.277   5.325  17.689  0.00  0.00    +0.000 A 
ATOM      4  C   UNL     1       3.426   6.699  17.935  0.00  0.00    +0.000 A 
ATOM      5  C   UNL     1       4.703   7.273  17.753  0.00  0.00    +0.000 A 
ATOM      6  C   UNL     1       5.814   6.518  17.339  0.00  0.00    +0.000 A 
ENDROOT
BRANCH   4   7
ATOM      7  C   UNL     1       2.307   7.618  18.406  0.00  0.00    +0.000 C 
ATOM      8  C   UNL     1       2.335   9.013  17.768  0.00  0.00    +0.000 C 
ATOM      9  C   UNL     1       1.115   9.826  18.211  0.00  0.00    +0.000 C 
ATOM     10  N   UNL     1       1.038   9.925  19.674  0.00  0.00    +0.000 NA
ATOM     11  C   UNL     1      -0.121  10.728  20.065  0.00  0.00    +0.000 C 
ATOM     12  C   UNL     1       0.983   8.598  20.306  0.00  0.00    +0.000 C 
ATOM     13  C   UNL     1       2.199   7.741  19.931  0.00  0.00    +0.000 C 
ENDBRANCH   4   7
BRANCH   1  15
ATOM     14  C   UNL     1       6.561   3.926  15.253  0.00  0.00    +0.000 C 
ATOM     15  O   UNL     1       6.711   4.441  16.578  0.00  0.00    +0.000 OA
ENDBRANCH   1  15
BRANCH   3  16
ATOM     16  O   UNL     1       2.031   4.781  17.859  0.00  0.00    +0.000 OA
ATOM     17  C   UNL     1       1.968   3.413  18.252  0.00  0.00    +0.000 C 
ENDBRANCH   3  16
BRANCH   6  18
ATOM     18  C   UNL     1       7.091   7.270  17.177  0.00  0.00    +0.000 C 
ATOM     19  O   UNL     1       7.848   6.979  16.254  0.00  0.00    +0.000 OA
BRANCH  18  20
ATOM     20  C   UNL     1       7.360   8.435  18.068  0.00  0.00    +0.000 C 
ATOM     21  C   UNL     1       8.484   9.159  17.912  0.00  0.00    +0.000 C 
BRANCH  21  22
ATOM     22  C   UNL     1       8.835  10.369  18.690  0.00  0.00    +0.000 A 
ATOM     23  C   UNL     1       9.548  10.248  19.897  0.00  0.00    +0.000 A 
ATOM     24  C   UNL     1       9.895  11.368  20.658  0.00  0.00    +0.000 A 
ATOM     25  C   UNL     1       9.553  12.639  20.218  0.00  0.00    +0.000 A 
ATOM     26  C   UNL     1       8.877  12.784  19.009  0.00  0.00    +0.000 A 
ATOM     27  C   UNL     1       8.510  11.668  18.233  0.00  0.00    +0.000 A 
ATOM     28  C   UNL     1       7.812  11.928  16.924  0.00  0.00    +0.000 C 
ENDBRANCH  21  22
ENDBRANCH  18  20
ENDBRANCH   6  18
TORSDOF 6
ENDMDL
MODEL 9
REMARK VINA RESULT:      -7.2      1.148      1.348
REMARK  Name = 
REMARK  10 active torsions:
REMARK  status: ('A' for Active; 'I' for Inactive)
REMARK    1  A    between atoms: C_1  and  O_2
REMARK    2  A    between atoms: O_2  and  C_3
REMARK    3  A    between atoms: C_5  and  O_6
REMARK    4  A    between atoms: O_6  and  C_7
REMARK    5  A    between atoms: C_8  and  C_9
REMARK    6  A    between atoms: N_12  and  C_13
REMARK    7  A    between atoms: C_17  and  C_18
REMARK    8  A    between atoms: C_18  and  C_20
REMARK    9  A    between atoms: C_21  and  C_22
REMARK   10  A    between atoms: C_27  and  C_28
REMARK                            x       y       z     vdW  Elec       q    Type
REMARK                         _______ _______ _______ _____ _____    ______ ____
ROOT
ATOM      1  C   UNL     1       0.586   8.307  20.983  0.00  0.00    +0.000 A 
ATOM      2  C   UNL     1       0.876   6.948  21.191  0.00  0.00    +0.000 A 
ATOM      3  C   UNL     1       1.823   6.262  20.418  0.00  0.00    +0.000 A 
ATOM      4  C   UNL     1       2.508   6.943  19.400  0.00  0.00    +0.000 A 
ATOM      5  C   UNL     1       2.194   8.301  19.179  0.00  0.00    +0.000 A 
ATOM      6  C   UNL     1       1.227   8.983  19.940  0.00  0.00    +0.000 A 
ENDROOT
BRANCH   4   7
ATOM      7  C   UNL     1       3.560   6.313  18.496  0.00  0.00    +0.000 C 
ATOM      8  C   UNL     1       4.132   7.271  17.443  0.00  0.00    +0.000 C 
ATOM      9  C   UNL     1       5.256   6.589  16.658  0.00  0.00    +0.000 C 
ATOM     10  N   UNL     1       4.796   5.342  16.033  0.00  0.00    +0.000 NA
ATOM     11  C   UNL     1       5.884   4.729  15.269  0.00  0.00    +0.000 C 
ATOM     12  C   UNL     1       4.267   4.398  17.028  0.00  0.00    +0.000 C 
ATOM     13  C   UNL     1       3.109   5.008  17.828  0.00  0.00    +0.000 C 
ENDBRANCH   4   7
BRANCH   1  15
ATOM     14  C   UNL     1       0.202   9.417  23.037  0.00  0.00    +0.000 C 
ATOM     15  O   UNL     1      -0.305   8.992  21.771  0.00  0.00    +0.000 OA
ENDBRANCH   1  15
BRANCH   3  16
ATOM     16  O   UNL     1       2.144   4.947  20.630  0.00  0.00    +0.000 OA
ATOM     17  C   UNL     1       1.111   3.986  20.427  0.00  0.00    +0.000 C 
ENDBRANCH   3  16
BRANCH   6  18
ATOM     18  C   UNL     1       1.018  10.418  19.597  0.00  0.00    +0.000 C 
ATOM     19  O   UNL     1       1.727  11.272  20.124  0.00  0.00    +0.000 OA
BRANCH  18  20
ATOM     20  C   UNL     1       0.036  10.769  18.532  0.00  0.00    +0.000 C 
ATOM     21  C   UNL     1      -1.076  10.028  18.368  0.00  0.00    +0.000 C 
BRANCH  21  22
ATOM     22  C   UNL     1      -2.152  10.308  17.390  0.00  0.00    +0.000 A 
ATOM     23  C   UNL     1      -2.154   9.660  16.141  0.00  0.00    +0.000 A 
ATOM     24  C   UNL     1      -3.152   9.901  15.193  0.00  0.00    +0.000 A 
ATOM     25  C   UNL     1      -4.186  10.781  15.482  0.00  0.00    +0.000 A 
ATOM     26  C   UNL     1      -4.223  11.406  16.726  0.00  0.00    +0.000 A 
ATOM     27  C   UNL     1      -3.221  11.186  17.689  0.00  0.00    +0.000 A 
ATOM     28  C   UNL     1      -3.365  11.881  19.018  0.00  0.00    +0.000 C 
ENDBRANCH  21  22
ENDBRANCH  18  20
ENDBRANCH   6  18
TORSDOF 6
ENDMDL
