MODEL 1
REMARK VINA RESULT:      -8.2      0.000      0.000
REMARK  Name = 
REMARK  11 active torsions:
REMARK  status: ('A' for Active; 'I' for Inactive)
REMARK    1  A    between atoms: C_1  and  C_2
REMARK    2  A    between atoms: C_5  and  C_6
REMARK    3  A    between atoms: C_7  and  O_8
REMARK    4  A    between atoms: O_8  and  C_9
REMARK    5  A    between atoms: C_9  and  C_10
REMARK    6  A    between atoms: C_10  and  N_11
REMARK    7  A    between atoms: N_11  and  C_12
REMARK    8  A    between atoms: C_13  and  C_15
REMARK    9  A    between atoms: C_20  and  C_21
REMARK   10  A    between atoms: C_21  and  C_22
REMARK   11  A    between atoms: C_22  and  O_23
REMARK                            x       y       z     vdW  Elec       q    Type
REMARK                         _______ _______ _______ _____ _____    ______ ____
ROOT
ATOM      1  N   UNL     1       3.529   4.605  19.095  0.00  0.00    +0.000 N 
ATOM      2  C   UNL     1       2.625   4.326  17.989  0.00  0.00    +0.000 C 
ATOM      3  C   UNL     1       4.930   4.642  18.927  0.00  0.00    +0.000 C 
ATOM      4  O   UNL     1       5.711   4.727  19.873  0.00  0.00    +0.000 OA
ENDROOT
BRANCH   3   5
ATOM      5  C   UNL     1       5.515   4.567  17.576  0.00  0.00    +0.000 A 
ATOM      6  C   UNL     1       6.578   5.394  17.125  0.00  0.00    +0.000 A 
ATOM      7  C   UNL     1       6.767   5.075  15.805  0.00  0.00    +0.000 A 
ATOM      8  N   UNL     1       7.633   5.555  14.865  0.00  0.00    +0.000 NA
ATOM      9  C   UNL     1       7.515   5.042  13.677  0.00  0.00    +0.000 A 
ATOM     10  C   UNL     1       6.551   3.973  13.263  0.00  0.00    +0.000 A 
ATOM     11  C   UNL     1       5.733   3.553  14.242  0.00  0.00    +0.000 A 
ATOM     12  N   UNL     1       5.823   4.092  15.517  0.00  0.00    +0.000 N 
ATOM     13  N   UNL     1       5.067   3.775  16.589  0.00  0.00    +0.000 NA
BRANCH  10  14
ATOM     14  C   UNL     1       6.536   3.467  11.857  0.00  0.00    +0.000 C 
BRANCH  14  15
ATOM     15  C   UNL     1       5.475   2.398  11.597  0.00  0.00    +0.000 C 
BRANCH  15  16
ATOM     16  O   UNL     1       6.060   1.107  11.488  0.00  0.00    +0.000 OA
ATOM     17  H   UNL     1       5.570   0.609  10.810  0.00  0.00    +0.000 HD
ENDBRANCH  15  16
ENDBRANCH  14  15
ENDBRANCH  10  14
ENDBRANCH   3   5
BRANCH   1  18
ATOM     18  C   UNL     1       2.891   4.764  20.420  0.00  0.00    +0.000 C 
BRANCH  18  19
ATOM     19  C   UNL     1       1.894   5.913  20.559  0.00  0.00    +0.000 C 
BRANCH  19  20
ATOM     20  O   UNL     1       2.308   7.105  19.886  0.00  0.00    +0.000 OA
BRANCH  20  27
ATOM     21  C   UNL     1      -0.380   9.788  23.100  0.00  0.00    +0.000 C 
ATOM     22  C   UNL     1       0.212   9.588  21.735  0.00  0.00    +0.000 A 
ATOM     23  C   UNL     1       0.036  10.525  20.718  0.00  0.00    +0.000 A 
ATOM     24  C   UNL     1       0.600  10.307  19.457  0.00  0.00    +0.000 A 
ATOM     25  C   UNL     1       1.353   9.153  19.191  0.00  0.00    +0.000 A 
ATOM     26  C   UNL     1       1.940   8.939  17.826  0.00  0.00    +0.000 C 
ATOM     27  C   UNL     1       1.542   8.210  20.210  0.00  0.00    +0.000 A 
ATOM     28  C   UNL     1       0.963   8.436  21.471  0.00  0.00    +0.000 A 
ENDBRANCH  20  27
ENDBRANCH  19  20
ENDBRANCH  18  19
ENDBRANCH   1  18
TORSDOF 8
ENDMDL
MODEL 2
REMARK VINA RESULT:      -7.8      5.192      7.653
REMARK  Name = 
REMARK  11 active torsions:
REMARK  status: ('A' for Active; 'I' for Inactive)
REMARK    1  A    between atoms: C_1  and  C_2
REMARK    2  A    between atoms: C_5  and  C_6
REMARK    3  A    between atoms: C_7  and  O_8
REMARK    4  A    between atoms: O_8  and  C_9
REMARK    5  A    between atoms: C_9  and  C_10
REMARK    6  A    between atoms: C_10  and  N_11
REMARK    7  A    between atoms: N_11  and  C_12
REMARK    8  A    between atoms: C_13  and  C_15
REMARK    9  A    between atoms: C_20  and  C_21
REMARK   10  A    between atoms: C_21  and  C_22
REMARK   11  A    between atoms: C_22  and  O_23
REMARK                            x       y       z     vdW  Elec       q    Type
REMARK                         _______ _______ _______ _____ _____    ______ ____
ROOT
ATOM      1  N   UNL     1       7.349   7.079  17.840  0.00  0.00    +0.000 N 
ATOM      2  C   UNL     1       7.838   6.284  18.957  0.00  0.00    +0.000 C 
ATOM      3  C   UNL     1       6.179   6.735  17.130  0.00  0.00    +0.000 C 
ATOM      4  O   UNL     1       5.836   7.305  16.096  0.00  0.00    +0.000 OA
ENDROOT
BRANCH   3   5
ATOM      5  C   UNL     1       5.314   5.644  17.614  0.00  0.00    +0.000 A 
ATOM      6  C   UNL     1       5.273   4.348  17.035  0.00  0.00    +0.000 A 
ATOM      7  C   UNL     1       4.292   3.668  17.709  0.00  0.00    +0.000 A 
ATOM      8  N   UNL     1       3.806   2.398  17.576  0.00  0.00    +0.000 NA
ATOM      9  C   UNL     1       2.830   2.084  18.374  0.00  0.00    +0.000 A 
ATOM     10  C   UNL     1       2.222   2.962  19.424  0.00  0.00    +0.000 A 
ATOM     11  C   UNL     1       2.753   4.194  19.493  0.00  0.00    +0.000 A 
ATOM     12  N   UNL     1       3.785   4.566  18.645  0.00  0.00    +0.000 N 
ATOM     13  N   UNL     1       4.407   5.763  18.596  0.00  0.00    +0.000 NA
BRANCH  10  14
ATOM     14  C   UNL     1       1.106   2.460  20.282  0.00  0.00    +0.000 C 
BRANCH  14  15
ATOM     15  C   UNL     1       1.340   2.662  21.779  0.00  0.00    +0.000 C 
BRANCH  15  16
ATOM     16  O   UNL     1       2.689   2.384  22.131  0.00  0.00    +0.000 OA
ATOM     17  H   UNL     1       2.848   1.433  21.992  0.00  0.00    +0.000 HD
ENDBRANCH  15  16
ENDBRANCH  14  15
ENDBRANCH  10  14
ENDBRANCH   3   5
BRANCH   1  18
ATOM     18  C   UNL     1       8.203   8.221  17.444  0.00  0.00    +0.000 C 
BRANCH  18  19
ATOM     19  C   UNL     1       8.641   9.160  18.565  0.00  0.00    +0.000 C 
BRANCH  19  20
ATOM     20  O   UNL     1       9.215  10.380  18.087  0.00  0.00    +0.000 OA
BRANCH  20  27
ATOM     21  C   UNL     1       8.739  12.239  22.678  0.00  0.00    +0.000 C 
ATOM     22  C   UNL     1       9.434  12.196  21.349  0.00  0.00    +0.000 A 
ATOM     23  C   UNL     1      10.531  13.009  21.072  0.00  0.00    +0.000 A 
ATOM     24  C   UNL     1      11.156  12.945  19.823  0.00  0.00    +0.000 A 
ATOM     25  C   UNL     1      10.700  12.064  18.830  0.00  0.00    +0.000 A 
ATOM     26  C   UNL     1      11.383  12.021  17.493  0.00  0.00    +0.000 C 
ATOM     27  C   UNL     1       9.603  11.236  19.102  0.00  0.00    +0.000 A 
ATOM     28  C   UNL     1       8.978  11.316  20.359  0.00  0.00    +0.000 A 
ENDBRANCH  20  27
ENDBRANCH  19  20
ENDBRANCH  18  19
ENDBRANCH   1  18
TORSDOF 8
ENDMDL
MODEL 3
REMARK VINA RESULT:      -7.6      1.570      2.665
REMARK  Name = 
REMARK  11 active torsions:
REMARK  status: ('A' for Active; 'I' for Inactive)
REMARK    1  A    between atoms: C_1  and  C_2
REMARK    2  A    between atoms: C_5  and  C_6
REMARK    3  A    between atoms: C_7  and  O_8
REMARK    4  A    between atoms: O_8  and  C_9
REMARK    5  A    between atoms: C_9  and  C_10
REMARK    6  A    between atoms: C_10  and  N_11
REMARK    7  A    between atoms: N_11  and  C_12
REMARK    8  A    between atoms: C_13  and  C_15
REMARK    9  A    between atoms: C_20  and  C_21
REMARK   10  A    between atoms: C_21  and  C_22
REMARK   11  A    between atoms: C_22  and  O_23
REMARK                            x       y       z     vdW  Elec       q    Type
REMARK                         _______ _______ _______ _____ _____    ______ ____
ROOT
ATOM      1  N   UNL     1       2.750   6.755  19.176  0.00  0.00    +0.000 N 
ATOM      2  C   UNL     1       2.639   7.653  18.036  0.00  0.00    +0.000 C 
ATOM      3  C   UNL     1       3.539   5.586  19.135  0.00  0.00    +0.000 C 
ATOM      4  O   UNL     1       3.525   4.742  20.030  0.00  0.00    +0.000 OA
ENDROOT
BRANCH   3   5
ATOM      5  C   UNL     1       4.419   5.327  17.981  0.00  0.00    +0.000 A 
ATOM      6  C   UNL     1       5.706   5.904  17.820  0.00  0.00    +0.000 A 
ATOM      7  C   UNL     1       6.153   5.486  16.593  0.00  0.00    +0.000 A 
ATOM      8  N   UNL     1       7.308   5.736  15.908  0.00  0.00    +0.000 NA
ATOM      9  C   UNL     1       7.391   5.196  14.730  0.00  0.00    +0.000 A 
ATOM     10  C   UNL     1       6.367   4.318  14.080  0.00  0.00    +0.000 A 
ATOM     11  C   UNL     1       5.260   4.119  14.814  0.00  0.00    +0.000 A 
ATOM     12  N   UNL     1       5.133   4.695  16.070  0.00  0.00    +0.000 N 
ATOM     13  N   UNL     1       4.083   4.589  16.911  0.00  0.00    +0.000 NA
BRANCH  10  14
ATOM     14  C   UNL     1       6.605   3.753  12.717  0.00  0.00    +0.000 C 
BRANCH  14  15
ATOM     15  C   UNL     1       5.369   3.102  12.096  0.00  0.00    +0.000 C 
BRANCH  15  16
ATOM     16  O   UNL     1       5.668   1.804  11.597  0.00  0.00    +0.000 OA
ATOM     17  H   UNL     1       5.650   1.181  12.345  0.00  0.00    +0.000 HD
ENDBRANCH  15  16
ENDBRANCH  14  15
ENDBRANCH  10  14
ENDBRANCH   3   5
BRANCH   1  18
ATOM     18  C   UNL     1       1.918   7.102  20.349  0.00  0.00    +0.000 C 
BRANCH  18  19
ATOM     19  C   UNL     1       1.557   8.577  20.512  0.00  0.00    +0.000 C 
BRANCH  19  20
ATOM     20  O   UNL     1       0.173   8.791  20.802  0.00  0.00    +0.000 OA
BRANCH  20  27
ATOM     21  C   UNL     1      -0.631  13.064  18.382  0.00  0.00    +0.000 C 
ATOM     22  C   UNL     1      -0.614  12.260  19.649  0.00  0.00    +0.000 A 
ATOM     23  C   UNL     1      -0.988  12.816  20.871  0.00  0.00    +0.000 A 
ATOM     24  C   UNL     1      -0.959  12.040  22.034  0.00  0.00    +0.000 A 
ATOM     25  C   UNL     1      -0.562  10.695  21.996  0.00  0.00    +0.000 A 
ATOM     26  C   UNL     1      -0.531   9.886  23.261  0.00  0.00    +0.000 C 
ATOM     27  C   UNL     1      -0.192  10.125  20.771  0.00  0.00    +0.000 A 
ATOM     28  C   UNL     1      -0.217  10.918  19.610  0.00  0.00    +0.000 A 
ENDBRANCH  20  27
ENDBRANCH  19  20
ENDBRANCH  18  19
ENDBRANCH   1  18
TORSDOF 8
ENDMDL
MODEL 4
REMARK VINA RESULT:      -7.4      4.999      7.742
REMARK  Name = 
REMARK  11 active torsions:
REMARK  status: ('A' for Active; 'I' for Inactive)
REMARK    1  A    between atoms: C_1  and  C_2
REMARK    2  A    between atoms: C_5  and  C_6
REMARK    3  A    between atoms: C_7  and  O_8
REMARK    4  A    between atoms: O_8  and  C_9
REMARK    5  A    between atoms: C_9  and  C_10
REMARK    6  A    between atoms: C_10  and  N_11
REMARK    7  A    between atoms: N_11  and  C_12
REMARK    8  A    between atoms: C_13  and  C_15
REMARK    9  A    between atoms: C_20  and  C_21
REMARK   10  A    between atoms: C_21  and  C_22
REMARK   11  A    between atoms: C_22  and  O_23
REMARK                            x       y       z     vdW  Elec       q    Type
REMARK                         _______ _______ _______ _____ _____    ______ ____
ROOT
ATOM      1  N   UNL     1       7.369   7.010  17.797  0.00  0.00    +0.000 N 
ATOM      2  C   UNL     1       7.817   6.264  18.964  0.00  0.00    +0.000 C 
ATOM      3  C   UNL     1       6.184   6.679  17.105  0.00  0.00    +0.000 C 
ATOM      4  O   UNL     1       5.871   7.200  16.036  0.00  0.00    +0.000 OA
ENDROOT
BRANCH   3   5
ATOM      5  C   UNL     1       5.267   5.663  17.652  0.00  0.00    +0.000 A 
ATOM      6  C   UNL     1       5.181   4.330  17.170  0.00  0.00    +0.000 A 
ATOM      7  C   UNL     1       4.163   3.742  17.874  0.00  0.00    +0.000 A 
ATOM      8  N   UNL     1       3.626   2.487  17.826  0.00  0.00    +0.000 NA
ATOM      9  C   UNL     1       2.626   2.272  18.627  0.00  0.00    +0.000 A 
ATOM     10  C   UNL     1       2.038   3.250  19.597  0.00  0.00    +0.000 A 
ATOM     11  C   UNL     1       2.619   4.461  19.585  0.00  0.00    +0.000 A 
ATOM     12  N   UNL     1       3.679   4.727  18.731  0.00  0.00    +0.000 N 
ATOM     13  N   UNL     1       4.350   5.891  18.606  0.00  0.00    +0.000 NA
BRANCH  10  14
ATOM     14  C   UNL     1       0.889   2.858  20.468  0.00  0.00    +0.000 C 
BRANCH  14  15
ATOM     15  C   UNL     1       1.306   2.384  21.861  0.00  0.00    +0.000 C 
BRANCH  15  16
ATOM     16  O   UNL     1       2.361   3.181  22.383  0.00  0.00    +0.000 OA
ATOM     17  H   UNL     1       3.032   3.287  21.686  0.00  0.00    +0.000 HD
ENDBRANCH  15  16
ENDBRANCH  14  15
ENDBRANCH  10  14
ENDBRANCH   3   5
BRANCH   1  18
ATOM     18  C   UNL     1       8.277   8.083  17.335  0.00  0.00    +0.000 C 
BRANCH  18  19
ATOM     19  C   UNL     1       8.058   9.466  17.946  0.00  0.00    +0.000 C 
BRANCH  19  20
ATOM     20  O   UNL     1       9.270  10.089  18.380  0.00  0.00    +0.000 OA
BRANCH  20  27
ATOM     21  C   UNL     1       6.935  14.404  17.551  0.00  0.00    +0.000 C 
ATOM     22  C   UNL     1       8.190  13.624  17.817  0.00  0.00    +0.000 A 
ATOM     23  C   UNL     1       9.428  14.252  17.933  0.00  0.00    +0.000 A 
ATOM     24  C   UNL     1      10.578  13.496  18.181  0.00  0.00    +0.000 A 
ATOM     25  C   UNL     1      10.511  12.101  18.321  0.00  0.00    +0.000 A 
ATOM     26  C   UNL     1      11.762  11.311  18.577  0.00  0.00    +0.000 C 
ATOM     27  C   UNL     1       9.268  11.462  18.214  0.00  0.00    +0.000 A 
ATOM     28  C   UNL     1       8.121  12.232  17.957  0.00  0.00    +0.000 A 
ENDBRANCH  20  27
ENDBRANCH  19  20
ENDBRANCH  18  19
ENDBRANCH   1  18
TORSDOF 8
ENDMDL
MODEL 5
REMARK VINA RESULT:      -7.2      3.699     10.297
REMARK  Name = 
REMARK  11 active torsions:
REMARK  status: ('A' for Active; 'I' for Inactive)
REMARK    1  A    between atoms: C_1  and  C_2
REMARK    2  A    between atoms: C_5  and  C_6
REMARK    3  A    between atoms: C_7  and  O_8
REMARK    4  A    between atoms: O_8  and  C_9
REMARK    5  A    between atoms: C_9  and  C_10
REMARK    6  A    between atoms: C_10  and  N_11
REMARK    7  A    between atoms: N_11  and  C_12
REMARK    8  A    between atoms: C_13  and  C_15
REMARK    9  A    between atoms: C_20  and  C_21
REMARK   10  A    between atoms: C_21  and  C_22
REMARK   11  A    between atoms: C_22  and  O_23
REMARK                            x       y       z     vdW  Elec       q    Type
REMARK                         _______ _______ _______ _____ _____    ______ ____
ROOT
ATOM      1  N   UNL     1       2.255   7.714  18.948  0.00  0.00    +0.000 N 
ATOM      2  C   UNL     1       1.874   7.026  20.174  0.00  0.00    +0.000 C 
ATOM      3  C   UNL     1       1.766   8.998  18.626  0.00  0.00    +0.000 C 
ATOM      4  O   UNL     1       1.956   9.527  17.533  0.00  0.00    +0.000 OA
ENDROOT
BRANCH   3   5
ATOM      5  C   UNL     1       0.979   9.759  19.613  0.00  0.00    +0.000 A 
ATOM      6  C   UNL     1       1.038   9.539  21.015  0.00  0.00    +0.000 A 
ATOM      7  C   UNL     1       0.105  10.378  21.566  0.00  0.00    +0.000 A 
ATOM      8  N   UNL     1      -0.286  10.586  22.858  0.00  0.00    +0.000 NA
ATOM      9  C   UNL     1      -1.242  11.450  23.023  0.00  0.00    +0.000 A 
ATOM     10  C   UNL     1      -1.921  12.242  21.949  0.00  0.00    +0.000 A 
ATOM     11  C   UNL     1      -1.482  11.981  20.706  0.00  0.00    +0.000 A 
ATOM     12  N   UNL     1      -0.473  11.053  20.494  0.00  0.00    +0.000 N 
ATOM     13  N   UNL     1       0.059  10.687  19.309  0.00  0.00    +0.000 NA
BRANCH  10  14
ATOM     14  C   UNL     1      -3.003  13.214  22.290  0.00  0.00    +0.000 C 
BRANCH  14  15
ATOM     15  C   UNL     1      -4.251  13.080  21.417  0.00  0.00    +0.000 C 
BRANCH  15  16
ATOM     16  O   UNL     1      -5.191  12.185  21.996  0.00  0.00    +0.000 OA
ATOM     17  H   UNL     1      -5.810  12.706  22.538  0.00  0.00    +0.000 HD
ENDBRANCH  15  16
ENDBRANCH  14  15
ENDBRANCH  10  14
ENDBRANCH   3   5
BRANCH   1  18
ATOM     18  C   UNL     1       3.121   6.947  18.026  0.00  0.00    +0.000 C 
BRANCH  18  19
ATOM     19  C   UNL     1       2.835   5.451  17.914  0.00  0.00    +0.000 C 
BRANCH  19  20
ATOM     20  O   UNL     1       3.936   4.634  18.322  0.00  0.00    +0.000 OA
BRANCH  20  27
ATOM     21  C   UNL     1       5.715   3.906  13.733  0.00  0.00    +0.000 C 
ATOM     22  C   UNL     1       5.919   4.280  15.172  0.00  0.00    +0.000 A 
ATOM     23  C   UNL     1       7.171   4.650  15.659  0.00  0.00    +0.000 A 
ATOM     24  C   UNL     1       7.327   4.991  17.006  0.00  0.00    +0.000 A 
ATOM     25  C   UNL     1       6.235   4.975  17.888  0.00  0.00    +0.000 A 
ATOM     26  C   UNL     1       6.431   5.337  19.332  0.00  0.00    +0.000 C 
ATOM     27  C   UNL     1       4.970   4.613  17.405  0.00  0.00    +0.000 A 
ATOM     28  C   UNL     1       4.828   4.263  16.050  0.00  0.00    +0.000 A 
ENDBRANCH  20  27
ENDBRANCH  19  20
ENDBRANCH  18  19
ENDBRANCH   1  18
TORSDOF 8
ENDMDL
MODEL 6
REMARK VINA RESULT:      -7.1      2.439      8.921
REMARK  Name = 
REMARK  11 active torsions:
REMARK  status: ('A' for Active; 'I' for Inactive)
REMARK    1  A    between atoms: C_1  and  C_2
REMARK    2  A    between atoms: C_5  and  C_6
REMARK    3  A    between atoms: C_7  and  O_8
REMARK    4  A    between atoms: O_8  and  C_9
REMARK    5  A    between atoms: C_9  and  C_10
REMARK    6  A    between atoms: C_10  and  N_11
REMARK    7  A    between atoms: N_11  and  C_12
REMARK    8  A    between atoms: C_13  and  C_15
REMARK    9  A    between atoms: C_20  and  C_21
REMARK   10  A    between atoms: C_21  and  C_22
REMARK   11  A    between atoms: C_22  and  O_23
REMARK                            x       y       z     vdW  Elec       q    Type
REMARK                         _______ _______ _______ _____ _____    ______ ____
ROOT
ATOM      1  N   UNL     1       2.617   4.538  18.728  0.00  0.00    +0.000 N 
ATOM      2  C   UNL     1       1.234   4.583  18.277  0.00  0.00    +0.000 C 
ATOM      3  C   UNL     1       3.238   5.641  19.352  0.00  0.00    +0.000 C 
ATOM      4  O   UNL     1       4.442   5.672  19.602  0.00  0.00    +0.000 OA
ENDROOT
BRANCH   3   5
ATOM      5  C   UNL     1       2.444   6.826  19.723  0.00  0.00    +0.000 A 
ATOM      6  C   UNL     1       1.700   6.938  20.927  0.00  0.00    +0.000 A 
ATOM      7  C   UNL     1       1.043   8.138  20.851  0.00  0.00    +0.000 A 
ATOM      8  N   UNL     1       0.178   8.761  21.705  0.00  0.00    +0.000 NA
ATOM      9  C   UNL     1      -0.294   9.900  21.295  0.00  0.00    +0.000 A 
ATOM     10  C   UNL     1       0.039  10.589  20.008  0.00  0.00    +0.000 A 
ATOM     11  C   UNL     1       0.894   9.915  19.223  0.00  0.00    +0.000 A 
ATOM     12  N   UNL     1       1.405   8.689  19.624  0.00  0.00    +0.000 N 
ATOM     13  N   UNL     1       2.260   7.901  18.940  0.00  0.00    +0.000 NA
BRANCH  10  14
ATOM     14  C   UNL     1      -0.575  11.910  19.673  0.00  0.00    +0.000 C 
BRANCH  14  15
ATOM     15  C   UNL     1      -0.023  12.539  18.394  0.00  0.00    +0.000 C 
BRANCH  15  16
ATOM     16  O   UNL     1      -1.061  12.803  17.460  0.00  0.00    +0.000 OA
ATOM     17  H   UNL     1      -1.057  13.757  17.266  0.00  0.00    +0.000 HD
ENDBRANCH  15  16
ENDBRANCH  14  15
ENDBRANCH  10  14
ENDBRANCH   3   5
BRANCH   1  18
ATOM     18  C   UNL     1       3.352   3.293  18.416  0.00  0.00    +0.000 C 
BRANCH  18  19
ATOM     19  C   UNL     1       4.102   3.264  17.086  0.00  0.00    +0.000 C 
BRANCH  19  20
ATOM     20  O   UNL     1       5.410   3.839  17.162  0.00  0.00    +0.000 OA
BRANCH  20  27
ATOM     21  C   UNL     1       5.731   3.173  12.242  0.00  0.00    +0.000 C 
ATOM     22  C   UNL     1       6.158   3.873  13.499  0.00  0.00    +0.000 A 
ATOM     23  C   UNL     1       7.113   4.888  13.481  0.00  0.00    +0.000 A 
ATOM     24  C   UNL     1       7.489   5.519  14.670  0.00  0.00    +0.000 A 
ATOM     25  C   UNL     1       6.915   5.153  15.897  0.00  0.00    +0.000 A 
ATOM     26  C   UNL     1       7.343   5.840  17.162  0.00  0.00    +0.000 C 
ATOM     27  C   UNL     1       5.947   4.139  15.924  0.00  0.00    +0.000 A 
ATOM     28  C   UNL     1       5.584   3.506  14.722  0.00  0.00    +0.000 A 
ENDBRANCH  20  27
ENDBRANCH  19  20
ENDBRANCH  18  19
ENDBRANCH   1  18
TORSDOF 8
ENDMDL
MODEL 7
REMARK VINA RESULT:      -7.1      2.231      9.215
REMARK  Name = 
REMARK  11 active torsions:
REMARK  status: ('A' for Active; 'I' for Inactive)
REMARK    1  A    between atoms: C_1  and  C_2
REMARK    2  A    between atoms: C_5  and  C_6
REMARK    3  A    between atoms: C_7  and  O_8
REMARK    4  A    between atoms: O_8  and  C_9
REMARK    5  A    between atoms: C_9  and  C_10
REMARK    6  A    between atoms: C_10  and  N_11
REMARK    7  A    between atoms: N_11  and  C_12
REMARK    8  A    between atoms: C_13  and  C_15
REMARK    9  A    between atoms: C_20  and  C_21
REMARK   10  A    between atoms: C_21  and  C_22
REMARK   11  A    between atoms: C_22  and  O_23
REMARK                            x       y       z     vdW  Elec       q    Type
REMARK                         _______ _______ _______ _____ _____    ______ ____
ROOT
ATOM      1  N   UNL     1       3.043   4.484  18.105  0.00  0.00    +0.000 N 
ATOM      2  C   UNL     1       1.630   4.410  17.762  0.00  0.00    +0.000 C 
ATOM      3  C   UNL     1       3.633   5.666  18.600  0.00  0.00    +0.000 C 
ATOM      4  O   UNL     1       4.847   5.791  18.751  0.00  0.00    +0.000 OA
ENDROOT
BRANCH   3   5
ATOM      5  C   UNL     1       2.791   6.824  18.950  0.00  0.00    +0.000 A 
ATOM      6  C   UNL     1       2.553   7.923  18.083  0.00  0.00    +0.000 A 
ATOM      7  C   UNL     1       1.803   8.815  18.804  0.00  0.00    +0.000 A 
ATOM      8  N   UNL     1       1.297  10.045  18.493  0.00  0.00    +0.000 NA
ATOM      9  C   UNL     1       0.647  10.643  19.446  0.00  0.00    +0.000 A 
ATOM     10  C   UNL     1       0.386  10.103  20.818  0.00  0.00    +0.000 A 
ATOM     11  C   UNL     1       0.915   8.891  21.048  0.00  0.00    +0.000 A 
ATOM     12  N   UNL     1       1.628   8.232  20.057  0.00  0.00    +0.000 N 
ATOM     13  N   UNL     1       2.218   7.021  20.148  0.00  0.00    +0.000 NA
BRANCH  10  14
ATOM     14  C   UNL     1      -0.392  10.902  21.813  0.00  0.00    +0.000 C 
BRANCH  14  15
ATOM     15  C   UNL     1      -0.846  10.097  23.031  0.00  0.00    +0.000 C 
BRANCH  15  16
ATOM     16  O   UNL     1       0.230   9.874  23.932  0.00  0.00    +0.000 OA
ATOM     17  H   UNL     1       0.607   8.996  23.741  0.00  0.00    +0.000 HD
ENDBRANCH  15  16
ENDBRANCH  14  15
ENDBRANCH  10  14
ENDBRANCH   3   5
BRANCH   1  18
ATOM     18  C   UNL     1       3.835   3.267  17.822  0.00  0.00    +0.000 C 
BRANCH  18  19
ATOM     19  C   UNL     1       4.977   3.420  16.818  0.00  0.00    +0.000 C 
BRANCH  19  20
ATOM     20  O   UNL     1       4.739   4.438  15.843  0.00  0.00    +0.000 OA
BRANCH  20  27
ATOM     21  C   UNL     1       5.479   2.488  11.326  0.00  0.00    +0.000 C 
ATOM     22  C   UNL     1       5.921   3.363  12.462  0.00  0.00    +0.000 A 
ATOM     23  C   UNL     1       7.112   4.084  12.408  0.00  0.00    +0.000 A 
ATOM     24  C   UNL     1       7.495   4.889  13.485  0.00  0.00    +0.000 A 
ATOM     25  C   UNL     1       6.693   4.993  14.632  0.00  0.00    +0.000 A 
ATOM     26  C   UNL     1       7.132   5.858  15.779  0.00  0.00    +0.000 C 
ATOM     27  C   UNL     1       5.489   4.278  14.692  0.00  0.00    +0.000 A 
ATOM     28  C   UNL     1       5.119   3.466  13.606  0.00  0.00    +0.000 A 
ENDBRANCH  20  27
ENDBRANCH  19  20
ENDBRANCH  18  19
ENDBRANCH   1  18
TORSDOF 8
ENDMDL
MODEL 8
REMARK VINA RESULT:      -7.1      4.545     11.063
REMARK  Name = 
REMARK  11 active torsions:
REMARK  status: ('A' for Active; 'I' for Inactive)
REMARK    1  A    between atoms: C_1  and  C_2
REMARK    2  A    between atoms: C_5  and  C_6
REMARK    3  A    between atoms: C_7  and  O_8
REMARK    4  A    between atoms: O_8  and  C_9
REMARK    5  A    between atoms: C_9  and  C_10
REMARK    6  A    between atoms: C_10  and  N_11
REMARK    7  A    between atoms: N_11  and  C_12
REMARK    8  A    between atoms: C_13  and  C_15
REMARK    9  A    between atoms: C_20  and  C_21
REMARK   10  A    between atoms: C_21  and  C_22
REMARK   11  A    between atoms: C_22  and  O_23
REMARK                            x       y       z     vdW  Elec       q    Type
REMARK                         _______ _______ _______ _____ _____    ______ ____
ROOT
ATOM      1  N   UNL     1       1.255   9.008  19.935  0.00  0.00    +0.000 N 
ATOM      2  C   UNL     1       1.082   8.586  21.317  0.00  0.00    +0.000 C 
ATOM      3  C   UNL     1       0.678  10.196  19.437  0.00  0.00    +0.000 C 
ATOM      4  O   UNL     1       0.687  10.490  18.242  0.00  0.00    +0.000 OA
ENDROOT
BRANCH   3   5
ATOM      5  C   UNL     1       0.020  11.142  20.356  0.00  0.00    +0.000 A 
ATOM      6  C   UNL     1       0.709  12.138  21.097  0.00  0.00    +0.000 A 
ATOM      7  C   UNL     1      -0.237  12.739  21.886  0.00  0.00    +0.000 A 
ATOM      8  N   UNL     1      -0.152  13.745  22.807  0.00  0.00    +0.000 NA
ATOM      9  C   UNL     1      -1.262  14.050  23.409  0.00  0.00    +0.000 A 
ATOM     10  C   UNL     1      -2.604  13.429  23.169  0.00  0.00    +0.000 A 
ATOM     11  C   UNL     1      -2.605  12.449  22.251  0.00  0.00    +0.000 A 
ATOM     12  N   UNL     1      -1.434  12.088  21.601  0.00  0.00    +0.000 N 
ATOM     13  N   UNL     1      -1.285  11.124  20.668  0.00  0.00    +0.000 NA
BRANCH  10  14
ATOM     14  C   UNL     1      -3.802  13.892  23.932  0.00  0.00    +0.000 C 
BRANCH  14  15
ATOM     15  C   UNL     1      -4.918  12.851  24.019  0.00  0.00    +0.000 C 
BRANCH  15  16
ATOM     16  O   UNL     1      -4.638  11.877  25.016  0.00  0.00    +0.000 OA
ATOM     17  H   UNL     1      -4.085  11.183  24.614  0.00  0.00    +0.000 HD
ENDBRANCH  15  16
ENDBRANCH  14  15
ENDBRANCH  10  14
ENDBRANCH   3   5
BRANCH   1  18
ATOM     18  C   UNL     1       2.001   8.071  19.067  0.00  0.00    +0.000 C 
BRANCH  18  19
ATOM     19  C   UNL     1       2.581   6.833  19.747  0.00  0.00    +0.000 C 
BRANCH  19  20
ATOM     20  O   UNL     1       1.757   5.673  19.607  0.00  0.00    +0.000 OA
BRANCH  20  27
ATOM     21  C   UNL     1       5.001   3.878  16.288  0.00  0.00    +0.000 C 
ATOM     22  C   UNL     1       3.974   3.666  17.362  0.00  0.00    +0.000 A 
ATOM     23  C   UNL     1       3.619   2.388  17.790  0.00  0.00    +0.000 A 
ATOM     24  C   UNL     1       2.657   2.225  18.792  0.00  0.00    +0.000 A 
ATOM     25  C   UNL     1       2.037   3.335  19.387  0.00  0.00    +0.000 A 
ATOM     26  C   UNL     1       1.000   3.132  20.454  0.00  0.00    +0.000 C 
ATOM     27  C   UNL     1       2.393   4.624  18.968  0.00  0.00    +0.000 A 
ATOM     28  C   UNL     1       3.356   4.774  17.954  0.00  0.00    +0.000 A 
ENDBRANCH  20  27
ENDBRANCH  19  20
ENDBRANCH  18  19
ENDBRANCH   1  18
TORSDOF 8
ENDMDL
MODEL 9
REMARK VINA RESULT:      -7.1      1.026      1.261
REMARK  Name = 
REMARK  11 active torsions:
REMARK  status: ('A' for Active; 'I' for Inactive)
REMARK    1  A    between atoms: C_1  and  C_2
REMARK    2  A    between atoms: C_5  and  C_6
REMARK    3  A    between atoms: C_7  and  O_8
REMARK    4  A    between atoms: O_8  and  C_9
REMARK    5  A    between atoms: C_9  and  C_10
REMARK    6  A    between atoms: C_10  and  N_11
REMARK    7  A    between atoms: N_11  and  C_12
REMARK    8  A    between atoms: C_13  and  C_15
REMARK    9  A    between atoms: C_20  and  C_21
REMARK   10  A    between atoms: C_21  and  C_22
REMARK   11  A    between atoms: C_22  and  O_23
REMARK                            x       y       z     vdW  Elec       q    Type
REMARK                         _______ _______ _______ _____ _____    ______ ____
ROOT
ATOM      1  N   UNL     1       3.484   4.583  19.406  0.00  0.00    +0.000 N 
ATOM      2  C   UNL     1       4.878   4.536  19.825  0.00  0.00    +0.000 C 
ATOM      3  C   UNL     1       3.113   4.732  18.053  0.00  0.00    +0.000 C 
ATOM      4  O   UNL     1       1.951   4.924  17.699  0.00  0.00    +0.000 OA
ENDROOT
BRANCH   3   5
ATOM      5  C   UNL     1       4.137   4.673  16.994  0.00  0.00    +0.000 A 
ATOM      6  C   UNL     1       5.273   5.523  16.940  0.00  0.00    +0.000 A 
ATOM      7  C   UNL     1       5.919   5.212  15.772  0.00  0.00    +0.000 A 
ATOM      8  N   UNL     1       7.050   5.712  15.192  0.00  0.00    +0.000 NA
ATOM      9  C   UNL     1       7.366   5.199  14.041  0.00  0.00    +0.000 A 
ATOM     10  C   UNL     1       6.631   4.112  13.321  0.00  0.00    +0.000 A 
ATOM     11  C   UNL     1       5.530   3.673  13.952  0.00  0.00    +0.000 A 
ATOM     12  N   UNL     1       5.156   4.210  15.175  0.00  0.00    +0.000 N 
ATOM     13  N   UNL     1       4.079   3.874  15.916  0.00  0.00    +0.000 NA
BRANCH  10  14
ATOM     14  C   UNL     1       7.120   3.609  12.001  0.00  0.00    +0.000 C 
BRANCH  14  15
ATOM     15  C   UNL     1       6.354   2.393  11.481  0.00  0.00    +0.000 C 
BRANCH  15  16
ATOM     16  O   UNL     1       7.228   1.299  11.239  0.00  0.00    +0.000 OA
ATOM     17  H   UNL     1       6.684   0.510  11.068  0.00  0.00    +0.000 HD
ENDBRANCH  15  16
ENDBRANCH  14  15
ENDBRANCH  10  14
ENDBRANCH   3   5
BRANCH   1  18
ATOM     18  C   UNL     1       2.486   4.549  20.497  0.00  0.00    +0.000 C 
BRANCH  18  19
ATOM     19  C   UNL     1       1.711   5.841  20.748  0.00  0.00    +0.000 C 
BRANCH  19  20
ATOM     20  O   UNL     1       2.338   6.995  20.181  0.00  0.00    +0.000 OA
BRANCH  20  27
ATOM     21  C   UNL     1      -0.444  10.144  22.846  0.00  0.00    +0.000 C 
ATOM     22  C   UNL     1       0.209   9.744  21.555  0.00  0.00    +0.000 A 
ATOM     23  C   UNL     1       0.103  10.531  20.409  0.00  0.00    +0.000 A 
ATOM     24  C   UNL     1       0.723  10.129  19.222  0.00  0.00    +0.000 A 
ATOM     25  C   UNL     1       1.463   8.939  19.159  0.00  0.00    +0.000 A 
ATOM     26  C   UNL     1       2.111   8.525  17.868  0.00  0.00    +0.000 C 
ATOM     27  C   UNL     1       1.582   8.145  20.308  0.00  0.00    +0.000 A 
ATOM     28  C   UNL     1       0.947   8.556  21.493  0.00  0.00    +0.000 A 
ENDBRANCH  20  27
ENDBRANCH  19  20
ENDBRANCH  18  19
ENDBRANCH   1  18
TORSDOF 8
ENDMDL
