MODEL 1
REMARK VINA RESULT:      -8.0      0.000      0.000
REMARK  Name = 
REMARK  0 active torsions:
REMARK  status: ('A' for Active; 'I' for Inactive)
REMARK                            x       y       z     vdW  Elec       q    Type
REMARK                         _______ _______ _______ _____ _____    ______ ____
ROOT
ATOM      1  O   UNL     1       2.749   8.681  17.375  0.00  0.00    +0.000 OA
ATOM      2  C   UNL     1       2.802   7.710  18.105  0.00  0.00    +0.000 C 
ATOM      3  C   UNL     1       3.610   6.538  17.763  0.00  0.00    +0.000 A 
ATOM      4  C   UNL     1       4.445   6.323  16.683  0.00  0.00    +0.000 A 
ATOM      5  C   UNL     1       5.106   5.092  16.623  0.00  0.00    +0.000 A 
ATOM      6  C   UNL     1       4.913   4.118  17.623  0.00  0.00    +0.000 A 
ATOM      7  C   UNL     1       4.070   4.363  18.712  0.00  0.00    +0.000 A 
ATOM      8  C   UNL     1       3.437   5.590  18.757  0.00  0.00    +0.000 A 
ATOM      9  C   UNL     1       2.547   6.163  19.766  0.00  0.00    +0.000 C 
ATOM     10  O   UNL     1       2.218   5.593  20.790  0.00  0.00    +0.000 OA
ATOM     11  N   UNL     1       2.224   7.414  19.313  0.00  0.00    +0.000 N 
ATOM     12  C   UNL     1       1.440   8.296  20.018  0.00  0.00    +0.000 A 
ATOM     13  N   UNL     1       1.057   9.500  19.651  0.00  0.00    +0.000 NA
ATOM     14  C   UNL     1       0.339  10.008  20.701  0.00  0.00    +0.000 A 
ATOM     15  C   UNL     1      -0.294  11.253  20.832  0.00  0.00    +0.000 A 
ATOM     16  C   UNL     1      -0.952  11.546  22.032  0.00  0.00    +0.000 A 
ATOM     17  C   UNL     1      -0.974  10.621  23.080  0.00  0.00    +0.000 A 
ATOM     18  C   UNL     1      -0.356   9.369  22.962  0.00  0.00    +0.000 A 
ATOM     19  C   UNL     1       0.282   9.101  21.750  0.00  0.00    +0.000 A 
ATOM     20  N   UNL     1       0.958   8.006  21.276  0.00  0.00    +0.000 N 
ATOM     21  H   UNL     1       1.113   7.132  21.763  0.00  0.00    +0.000 HD
ENDROOT
TORSDOF 0
ENDMDL
MODEL 2
REMARK VINA RESULT:      -7.8      0.588      2.423
REMARK  Name = 
REMARK  0 active torsions:
REMARK  status: ('A' for Active; 'I' for Inactive)
REMARK                            x       y       z     vdW  Elec       q    Type
REMARK                         _______ _______ _______ _____ _____    ______ ____
ROOT
ATOM      1  O   UNL     1       2.063   5.096  21.066  0.00  0.00    +0.000 OA
ATOM      2  C   UNL     1       2.427   5.696  20.073  0.00  0.00    +0.000 C 
ATOM      3  C   UNL     1       3.166   5.026  19.001  0.00  0.00    +0.000 A 
ATOM      4  C   UNL     1       3.524   3.698  18.869  0.00  0.00    +0.000 A 
ATOM      5  C   UNL     1       4.229   3.338  17.717  0.00  0.00    +0.000 A 
ATOM      6  C   UNL     1       4.563   4.302  16.744  0.00  0.00    +0.000 A 
ATOM      7  C   UNL     1       4.181   5.639  16.895  0.00  0.00    +0.000 A 
ATOM      8  C   UNL     1       3.475   5.967  18.035  0.00  0.00    +0.000 A 
ATOM      9  C   UNL     1       2.899   7.243  18.461  0.00  0.00    +0.000 C 
ATOM     10  O   UNL     1       2.967   8.273  17.814  0.00  0.00    +0.000 OA
ATOM     11  N   UNL     1       2.294   6.998  19.664  0.00  0.00    +0.000 N 
ATOM     12  C   UNL     1       1.589   7.948  20.364  0.00  0.00    +0.000 A 
ATOM     13  N   UNL     1       1.001   7.811  21.534  0.00  0.00    +0.000 NA
ATOM     14  C   UNL     1       0.385   9.006  21.793  0.00  0.00    +0.000 A 
ATOM     15  C   UNL     1      -0.377   9.397  22.904  0.00  0.00    +0.000 A 
ATOM     16  C   UNL     1      -0.926  10.684  22.920  0.00  0.00    +0.000 A 
ATOM     17  C   UNL     1      -0.724  11.561  21.850  0.00  0.00    +0.000 A 
ATOM     18  C   UNL     1       0.044  11.192  20.738  0.00  0.00    +0.000 A 
ATOM     19  C   UNL     1       0.588   9.906  20.756  0.00  0.00    +0.000 A 
ATOM     20  N   UNL     1       1.387   9.221  19.877  0.00  0.00    +0.000 N 
ATOM     21  H   UNL     1       1.755   9.564  18.998  0.00  0.00    +0.000 HD
ENDROOT
TORSDOF 0
ENDMDL
MODEL 3
REMARK VINA RESULT:      -7.6      4.310      8.135
REMARK  Name = 
REMARK  0 active torsions:
REMARK  status: ('A' for Active; 'I' for Inactive)
REMARK                            x       y       z     vdW  Elec       q    Type
REMARK                         _______ _______ _______ _____ _____    ______ ____
ROOT
ATOM      1  O   UNL     1       5.164   6.016  18.574  0.00  0.00    +0.000 OA
ATOM      2  C   UNL     1       4.327   5.194  18.255  0.00  0.00    +0.000 C 
ATOM      3  C   UNL     1       3.185   4.889  19.119  0.00  0.00    +0.000 A 
ATOM      4  C   UNL     1       2.816   5.447  20.328  0.00  0.00    +0.000 A 
ATOM      5  C   UNL     1       1.653   4.956  20.930  0.00  0.00    +0.000 A 
ATOM      6  C   UNL     1       0.905   3.928  20.322  0.00  0.00    +0.000 A 
ATOM      7  C   UNL     1       1.293   3.385  19.093  0.00  0.00    +0.000 A 
ATOM      8  C   UNL     1       2.438   3.895  18.512  0.00  0.00    +0.000 A 
ATOM      9  C   UNL     1       3.073   3.582  17.232  0.00  0.00    +0.000 C 
ATOM     10  O   UNL     1       2.643   2.766  16.437  0.00  0.00    +0.000 OA
ATOM     11  N   UNL     1       4.173   4.393  17.152  0.00  0.00    +0.000 N 
ATOM     12  C   UNL     1       5.008   4.433  16.060  0.00  0.00    +0.000 A 
ATOM     13  N   UNL     1       6.096   5.156  15.908  0.00  0.00    +0.000 NA
ATOM     14  C   UNL     1       6.551   4.897  14.642  0.00  0.00    +0.000 A 
ATOM     15  C   UNL     1       7.676   5.405  13.975  0.00  0.00    +0.000 A 
ATOM     16  C   UNL     1       7.914   4.997  12.658  0.00  0.00    +0.000 A 
ATOM     17  C   UNL     1       7.047   4.107  12.018  0.00  0.00    +0.000 A 
ATOM     18  C   UNL     1       5.924   3.581  12.672  0.00  0.00    +0.000 A 
ATOM     19  C   UNL     1       5.720   3.998  13.989  0.00  0.00    +0.000 A 
ATOM     20  N   UNL     1       4.767   3.689  14.925  0.00  0.00    +0.000 N 
ATOM     21  H   UNL     1       3.992   3.048  14.813  0.00  0.00    +0.000 HD
ENDROOT
TORSDOF 0
ENDMDL
MODEL 4
REMARK VINA RESULT:      -7.4      1.233      7.031
REMARK  Name = 
REMARK  0 active torsions:
REMARK  status: ('A' for Active; 'I' for Inactive)
REMARK                            x       y       z     vdW  Elec       q    Type
REMARK                         _______ _______ _______ _____ _____    ______ ____
ROOT
ATOM      1  O   UNL     1       1.759   6.461  20.987  0.00  0.00    +0.000 OA
ATOM      2  C   UNL     1       1.674   7.463  20.302  0.00  0.00    +0.000 C 
ATOM      3  C   UNL     1       0.911   8.631  20.747  0.00  0.00    +0.000 A 
ATOM      4  C   UNL     1       0.240   8.850  21.935  0.00  0.00    +0.000 A 
ATOM      5  C   UNL     1      -0.401  10.083  22.087  0.00  0.00    +0.000 A 
ATOM      6  C   UNL     1      -0.365  11.048  21.060  0.00  0.00    +0.000 A 
ATOM      7  C   UNL     1       0.329  10.807  19.870  0.00  0.00    +0.000 A 
ATOM      8  C   UNL     1       0.965   9.587  19.748  0.00  0.00    +0.000 A 
ATOM      9  C   UNL     1       1.799   9.055  18.670  0.00  0.00    +0.000 C 
ATOM     10  O   UNL     1       2.071   9.665  17.652  0.00  0.00    +0.000 OA
ATOM     11  N   UNL     1       2.183   7.805  19.076  0.00  0.00    +0.000 N 
ATOM     12  C   UNL     1       3.027   6.999  18.350  0.00  0.00    +0.000 A 
ATOM     13  N   UNL     1       3.425   5.781  18.647  0.00  0.00    +0.000 NA
ATOM     14  C   UNL     1       4.296   5.412  17.655  0.00  0.00    +0.000 A 
ATOM     15  C   UNL     1       5.005   4.214  17.487  0.00  0.00    +0.000 A 
ATOM     16  C   UNL     1       5.861   4.091  16.387  0.00  0.00    +0.000 A 
ATOM     17  C   UNL     1       6.012   5.142  15.478  0.00  0.00    +0.000 A 
ATOM     18  C   UNL     1       5.303   6.342  15.624  0.00  0.00    +0.000 A 
ATOM     19  C   UNL     1       4.448   6.430  16.724  0.00  0.00    +0.000 A 
ATOM     20  N   UNL     1       3.602   7.413  17.168  0.00  0.00    +0.000 N 
ATOM     21  H   UNL     1       3.435   8.312  16.733  0.00  0.00    +0.000 HD
ENDROOT
TORSDOF 0
ENDMDL
MODEL 5
REMARK VINA RESULT:      -7.4      1.374      6.434
REMARK  Name = 
REMARK  0 active torsions:
REMARK  status: ('A' for Active; 'I' for Inactive)
REMARK                            x       y       z     vdW  Elec       q    Type
REMARK                         _______ _______ _______ _____ _____    ______ ____
ROOT
ATOM      1  O   UNL     1       1.840   9.696  17.396  0.00  0.00    +0.000 OA
ATOM      2  C   UNL     1       1.498   9.514  18.548  0.00  0.00    +0.000 C 
ATOM      3  C   UNL     1       0.672  10.488  19.265  0.00  0.00    +0.000 A 
ATOM      4  C   UNL     1       0.114  11.672  18.821  0.00  0.00    +0.000 A 
ATOM      5  C   UNL     1      -0.647  12.403  19.739  0.00  0.00    +0.000 A 
ATOM      6  C   UNL     1      -0.820  11.944  21.060  0.00  0.00    +0.000 A 
ATOM      7  C   UNL     1      -0.253  10.738  21.484  0.00  0.00    +0.000 A 
ATOM      8  C   UNL     1       0.484  10.028  20.556  0.00  0.00    +0.000 A 
ATOM      9  C   UNL     1       1.154   8.732  20.666  0.00  0.00    +0.000 C 
ATOM     10  O   UNL     1       1.151   8.044  21.671  0.00  0.00    +0.000 OA
ATOM     11  N   UNL     1       1.719   8.498  19.442  0.00  0.00    +0.000 N 
ATOM     12  C   UNL     1       2.398   7.344  19.129  0.00  0.00    +0.000 A 
ATOM     13  N   UNL     1       2.994   7.046  17.995  0.00  0.00    +0.000 NA
ATOM     14  C   UNL     1       3.481   5.774  18.143  0.00  0.00    +0.000 A 
ATOM     15  C   UNL     1       4.198   4.980  17.236  0.00  0.00    +0.000 A 
ATOM     16  C   UNL     1       4.566   3.687  17.624  0.00  0.00    +0.000 A 
ATOM     17  C   UNL     1       4.221   3.193  18.886  0.00  0.00    +0.000 A 
ATOM     18  C   UNL     1       3.514   3.976  19.809  0.00  0.00    +0.000 A 
ATOM     19  C   UNL     1       3.172   5.266  19.397  0.00  0.00    +0.000 A 
ATOM     20  N   UNL     1       2.515   6.297  20.018  0.00  0.00    +0.000 N 
ATOM     21  H   UNL     1       2.145   6.300  20.960  0.00  0.00    +0.000 HD
ENDROOT
TORSDOF 0
ENDMDL
MODEL 6
REMARK VINA RESULT:      -7.3      1.307      6.675
REMARK  Name = 
REMARK  0 active torsions:
REMARK  status: ('A' for Active; 'I' for Inactive)
REMARK                            x       y       z     vdW  Elec       q    Type
REMARK                         _______ _______ _______ _____ _____    ______ ____
ROOT
ATOM      1  O   UNL     1       2.257   9.767  17.586  0.00  0.00    +0.000 OA
ATOM      2  C   UNL     1       2.004   9.045  18.532  0.00  0.00    +0.000 C 
ATOM      3  C   UNL     1       1.073   9.460  19.584  0.00  0.00    +0.000 A 
ATOM      4  C   UNL     1       0.317  10.611  19.693  0.00  0.00    +0.000 A 
ATOM      5  C   UNL     1      -0.502  10.733  20.819  0.00  0.00    +0.000 A 
ATOM      6  C   UNL     1      -0.538   9.720  21.799  0.00  0.00    +0.000 A 
ATOM      7  C   UNL     1       0.230   8.559  21.662  0.00  0.00    +0.000 A 
ATOM      8  C   UNL     1       1.022   8.456  20.535  0.00  0.00    +0.000 A 
ATOM      9  C   UNL     1       1.890   7.370  20.080  0.00  0.00    +0.000 C 
ATOM     10  O   UNL     1       2.043   6.321  20.679  0.00  0.00    +0.000 OA
ATOM     11  N   UNL     1       2.424   7.791  18.892  0.00  0.00    +0.000 N 
ATOM     12  C   UNL     1       3.258   7.017  18.120  0.00  0.00    +0.000 A 
ATOM     13  N   UNL     1       3.837   7.346  16.986  0.00  0.00    +0.000 NA
ATOM     14  C   UNL     1       4.522   6.235  16.570  0.00  0.00    +0.000 A 
ATOM     15  C   UNL     1       5.309   6.046  15.425  0.00  0.00    +0.000 A 
ATOM     16  C   UNL     1       5.892   4.792  15.213  0.00  0.00    +0.000 A 
ATOM     17  C   UNL     1       5.690   3.747  16.119  0.00  0.00    +0.000 A 
ATOM     18  C   UNL     1       4.916   3.921  17.275  0.00  0.00    +0.000 A 
ATOM     19  C   UNL     1       4.357   5.187  17.465  0.00  0.00    +0.000 A 
ATOM     20  N   UNL     1       3.580   5.720  18.460  0.00  0.00    +0.000 N 
ATOM     21  H   UNL     1       3.260   5.251  19.298  0.00  0.00    +0.000 HD
ENDROOT
TORSDOF 0
ENDMDL
MODEL 7
REMARK VINA RESULT:      -7.1      4.401      8.190
REMARK  Name = 
REMARK  0 active torsions:
REMARK  status: ('A' for Active; 'I' for Inactive)
REMARK                            x       y       z     vdW  Elec       q    Type
REMARK                         _______ _______ _______ _____ _____    ______ ____
ROOT
ATOM      1  O   UNL     1       2.499   2.617  16.536  0.00  0.00    +0.000 OA
ATOM      2  C   UNL     1       2.974   3.493  17.231  0.00  0.00    +0.000 C 
ATOM      3  C   UNL     1       2.468   3.759  18.580  0.00  0.00    +0.000 A 
ATOM      4  C   UNL     1       1.487   3.107  19.301  0.00  0.00    +0.000 A 
ATOM      5  C   UNL     1       1.218   3.583  20.589  0.00  0.00    +0.000 A 
ATOM      6  C   UNL     1       1.921   4.687  21.112  0.00  0.00    +0.000 A 
ATOM      7  C   UNL     1       2.917   5.325  20.366  0.00  0.00    +0.000 A 
ATOM      8  C   UNL     1       3.173   4.830  19.102  0.00  0.00    +0.000 A 
ATOM      9  C   UNL     1       4.166   5.234  18.106  0.00  0.00    +0.000 C 
ATOM     10  O   UNL     1       4.970   6.133  18.270  0.00  0.00    +0.000 OA
ATOM     11  N   UNL     1       3.989   4.395  17.039  0.00  0.00    +0.000 N 
ATOM     12  C   UNL     1       4.777   4.425  15.914  0.00  0.00    +0.000 A 
ATOM     13  N   UNL     1       4.664   3.681  14.835  0.00  0.00    +0.000 NA
ATOM     14  C   UNL     1       5.703   4.036  14.015  0.00  0.00    +0.000 A 
ATOM     15  C   UNL     1       6.046   3.552  12.745  0.00  0.00    +0.000 A 
ATOM     16  C   UNL     1       7.184   4.069  12.116  0.00  0.00    +0.000 A 
ATOM     17  C   UNL     1       7.967   5.043  12.743  0.00  0.00    +0.000 A 
ATOM     18  C   UNL     1       7.633   5.546  14.008  0.00  0.00    +0.000 A 
ATOM     19  C   UNL     1       6.485   5.020  14.604  0.00  0.00    +0.000 A 
ATOM     20  N   UNL     1       5.855   5.276  15.794  0.00  0.00    +0.000 N 
ATOM     21  H   UNL     1       6.133   5.952  16.495  0.00  0.00    +0.000 HD
ENDROOT
TORSDOF 0
ENDMDL
MODEL 8
REMARK VINA RESULT:      -7.1      1.393      6.843
REMARK  Name = 
REMARK  0 active torsions:
REMARK  status: ('A' for Active; 'I' for Inactive)
REMARK                            x       y       z     vdW  Elec       q    Type
REMARK                         _______ _______ _______ _____ _____    ______ ____
ROOT
ATOM      1  O   UNL     1       0.945   8.209  21.640  0.00  0.00    +0.000 OA
ATOM      2  C   UNL     1       1.082   8.862  20.624  0.00  0.00    +0.000 C 
ATOM      3  C   UNL     1       0.583  10.236  20.524  0.00  0.00    +0.000 A 
ATOM      4  C   UNL     1      -0.033  11.025  21.476  0.00  0.00    +0.000 A 
ATOM      5  C   UNL     1      -0.397  12.320  21.094  0.00  0.00    +0.000 A 
ATOM      6  C   UNL     1      -0.147  12.784  19.786  0.00  0.00    +0.000 A 
ATOM      7  C   UNL     1       0.487  11.969  18.843  0.00  0.00    +0.000 A 
ATOM      8  C   UNL     1       0.848  10.699  19.247  0.00  0.00    +0.000 A 
ATOM      9  C   UNL     1       1.556   9.639  18.529  0.00  0.00    +0.000 C 
ATOM     10  O   UNL     1       1.961   9.741  17.385  0.00  0.00    +0.000 OA
ATOM     11  N   UNL     1       1.661   8.596  19.410  0.00  0.00    +0.000 N 
ATOM     12  C   UNL     1       2.317   7.424  19.120  0.00  0.00    +0.000 A 
ATOM     13  N   UNL     1       2.443   6.364  19.890  0.00  0.00    +0.000 NA
ATOM     14  C   UNL     1       3.222   5.477  19.193  0.00  0.00    +0.000 A 
ATOM     15  C   UNL     1       3.659   4.195  19.554  0.00  0.00    +0.000 A 
ATOM     16  C   UNL     1       4.477   3.490  18.663  0.00  0.00    +0.000 A 
ATOM     17  C   UNL     1       4.856   4.055  17.442  0.00  0.00    +0.000 A 
ATOM     18  C   UNL     1       4.420   5.331  17.060  0.00  0.00    +0.000 A 
ATOM     19  C   UNL     1       3.595   6.004  17.964  0.00  0.00    +0.000 A 
ATOM     20  N   UNL     1       2.977   7.226  17.927  0.00  0.00    +0.000 N 
ATOM     21  H   UNL     1       3.010   7.900  17.171  0.00  0.00    +0.000 HD
ENDROOT
TORSDOF 0
ENDMDL
MODEL 9
REMARK VINA RESULT:      -6.9      1.623      6.806
REMARK  Name = 
REMARK  0 active torsions:
REMARK  status: ('A' for Active; 'I' for Inactive)
REMARK                            x       y       z     vdW  Elec       q    Type
REMARK                         _______ _______ _______ _____ _____    ______ ____
ROOT
ATOM      1  O   UNL     1       0.199  11.137  18.697  0.00  0.00    +0.000 OA
ATOM      2  C   UNL     1       0.067  10.737  19.838  0.00  0.00    +0.000 C 
ATOM      3  C   UNL     1      -0.786  11.437  20.801  0.00  0.00    +0.000 A 
ATOM      4  C   UNL     1      -1.586  12.550  20.629  0.00  0.00    +0.000 A 
ATOM      5  C   UNL     1      -2.307  12.996  21.741  0.00  0.00    +0.000 A 
ATOM      6  C   UNL     1      -2.204  12.334  22.981  0.00  0.00    +0.000 A 
ATOM      7  C   UNL     1      -1.395  11.203  23.128  0.00  0.00    +0.000 A 
ATOM      8  C   UNL     1      -0.703  10.774  22.013  0.00  0.00    +0.000 A 
ATOM      9  C   UNL     1       0.174   9.618  21.825  0.00  0.00    +0.000 C 
ATOM     10  O   UNL     1       0.431   8.807  22.697  0.00  0.00    +0.000 OA
ATOM     11  N   UNL     1       0.579   9.663  20.519  0.00  0.00    +0.000 N 
ATOM     12  C   UNL     1       1.378   8.705  19.940  0.00  0.00    +0.000 A 
ATOM     13  N   UNL     1       1.837   8.682  18.707  0.00  0.00    +0.000 NA
ATOM     14  C   UNL     1       2.537   7.510  18.584  0.00  0.00    +0.000 A 
ATOM     15  C   UNL     1       3.227   6.994  17.478  0.00  0.00    +0.000 A 
ATOM     16  C   UNL     1       3.851   5.747  17.601  0.00  0.00    +0.000 A 
ATOM     17  C   UNL     1       3.782   5.028  18.797  0.00  0.00    +0.000 A 
ATOM     18  C   UNL     1       3.106   5.533  19.916  0.00  0.00    +0.000 A 
ATOM     19  C   UNL     1       2.504   6.785  19.767  0.00  0.00    +0.000 A 
ATOM     20  N   UNL     1       1.793   7.583  20.624  0.00  0.00    +0.000 N 
ATOM     21  H   UNL     1       1.573   7.388  21.593  0.00  0.00    +0.000 HD
ENDROOT
TORSDOF 0
ENDMDL
