MODEL 1
REMARK VINA RESULT:      -8.0      0.000      0.000
REMARK  Name = 
REMARK  6 active torsions:
REMARK  status: ('A' for Active; 'I' for Inactive)
REMARK    1  A    between atoms: C_2  and  C_4
REMARK    2  A    between atoms: C_8  and  S_9
REMARK    3  A    between atoms: S_9  and  N_12
REMARK    4  A    between atoms: N_12  and  C_13
REMARK    5  A    between atoms: C_13  and  C_14
REMARK    6  A    between atoms: N_16  and  C_17
REMARK                            x       y       z     vdW  Elec       q    Type
REMARK                         _______ _______ _______ _____ _____    ______ ____
ROOT
ATOM      1  S   UNL     1       6.414   5.075  16.167  0.00  0.00    +0.000 S 
ATOM      2  O   UNL     1       5.679   3.957  16.707  0.00  0.00    +0.000 OA
ATOM      3  O   UNL     1       7.645   5.548  16.760  0.00  0.00    +0.000 OA
ENDROOT
BRANCH   1   8
ATOM      4  C   UNL     1       6.231   3.523  12.434  0.00  0.00    +0.000 A 
ATOM      5  C   UNL     1       7.252   4.222  11.771  0.00  0.00    +0.000 A 
ATOM      6  C   UNL     1       7.977   5.221  12.427  0.00  0.00    +0.000 A 
ATOM      7  C   UNL     1       7.709   5.511  13.765  0.00  0.00    +0.000 A 
ATOM      8  C   UNL     1       6.744   4.765  14.444  0.00  0.00    +0.000 A 
ATOM      9  C   UNL     1       5.994   3.784  13.786  0.00  0.00    +0.000 A 
BRANCH   4  11
ATOM     10  N   UNL     1       5.829   1.370  11.397  0.00  0.00    +0.000 NA
ATOM     11  C   UNL     1       5.376   2.555  11.672  0.00  0.00    +0.000 C 
ATOM     12  N   UNL     1       4.143   2.900  11.201  0.00  0.00    +0.000 N 
ATOM     13  H   UNL     1       5.068   0.821  10.972  0.00  0.00    +0.000 HD
ATOM     14  H   UNL     1       3.740   2.306  10.484  0.00  0.00    +0.000 HD
ATOM     15  H   UNL     1       3.977   3.877  10.983  0.00  0.00    +0.000 HD
ENDBRANCH   4  11
ENDBRANCH   1   8
BRANCH   1  16
ATOM     16  N   UNL     1       5.372   6.405  16.093  0.00  0.00    +0.000 NA
ATOM     17  H   UNL     1       4.542   6.183  15.538  0.00  0.00    +0.000 HD
BRANCH  16  18
ATOM     18  C   UNL     1       5.083   7.056  17.384  0.00  0.00    +0.000 C 
BRANCH  18  19
ATOM     19  C   UNL     1       3.768   6.555  17.947  0.00  0.00    +0.000 C 
ATOM     20  O   UNL     1       2.752   7.238  17.844  0.00  0.00    +0.000 OA
ATOM     21  N   UNL     1       3.872   5.319  18.563  0.00  0.00    +0.000 N 
ATOM     22  H   UNL     1       4.816   4.988  18.743  0.00  0.00    +0.000 HD
BRANCH  21  23
ATOM     23  C   UNL     1       2.805   4.560  19.085  0.00  0.00    +0.000 A 
ATOM     24  C   UNL     1       2.421   4.613  20.428  0.00  0.00    +0.000 A 
ATOM     25  C   UNL     1       1.369   3.827  20.902  0.00  0.00    +0.000 A 
ATOM     26  C   UNL     1       0.685   2.981  20.034  0.00  0.00    +0.000 A 
ATOM     27  C   UNL     1       1.043   2.937  18.689  0.00  0.00    +0.000 A 
ATOM     28  C   UNL     1       2.092   3.731  18.212  0.00  0.00    +0.000 A 
ENDBRANCH  21  23
ENDBRANCH  18  19
ENDBRANCH  16  18
ENDBRANCH   1  16
TORSDOF 6
ENDMDL
MODEL 2
REMARK VINA RESULT:      -8.0      0.082      1.211
REMARK  Name = 
REMARK  6 active torsions:
REMARK  status: ('A' for Active; 'I' for Inactive)
REMARK    1  A    between atoms: C_2  and  C_4
REMARK    2  A    between atoms: C_8  and  S_9
REMARK    3  A    between atoms: S_9  and  N_12
REMARK    4  A    between atoms: N_12  and  C_13
REMARK    5  A    between atoms: C_13  and  C_14
REMARK    6  A    between atoms: N_16  and  C_17
REMARK                            x       y       z     vdW  Elec       q    Type
REMARK                         _______ _______ _______ _____ _____    ______ ____
ROOT
ATOM      1  S   UNL     1       6.376   5.042  16.150  0.00  0.00    +0.000 S 
ATOM      2  O   UNL     1       5.570   3.955  16.651  0.00  0.00    +0.000 OA
ATOM      3  O   UNL     1       7.618   5.435  16.777  0.00  0.00    +0.000 OA
ENDROOT
BRANCH   1   8
ATOM      4  C   UNL     1       6.254   3.509  12.407  0.00  0.00    +0.000 A 
ATOM      5  C   UNL     1       7.262   4.236  11.755  0.00  0.00    +0.000 A 
ATOM      6  C   UNL     1       7.959   5.248  12.422  0.00  0.00    +0.000 A 
ATOM      7  C   UNL     1       7.676   5.523  13.759  0.00  0.00    +0.000 A 
ATOM      8  C   UNL     1       6.724   4.750  14.428  0.00  0.00    +0.000 A 
ATOM      9  C   UNL     1       6.002   3.756  13.759  0.00  0.00    +0.000 A 
BRANCH   4  11
ATOM     10  N   UNL     1       4.228   2.848  11.253  0.00  0.00    +0.000 NA
ATOM     11  C   UNL     1       5.427   2.526  11.634  0.00  0.00    +0.000 C 
ATOM     12  N   UNL     1       5.874   1.265  11.363  0.00  0.00    +0.000 N 
ATOM     13  H   UNL     1       3.866   2.096  10.649  0.00  0.00    +0.000 HD
ATOM     14  H   UNL     1       5.181   0.582  11.079  0.00  0.00    +0.000 HD
ATOM     15  H   UNL     1       6.534   0.849  12.012  0.00  0.00    +0.000 HD
ENDBRANCH   4  11
ENDBRANCH   1   8
BRANCH   1  16
ATOM     16  N   UNL     1       5.409   6.429  16.084  0.00  0.00    +0.000 NA
ATOM     17  H   UNL     1       4.593   6.272  15.490  0.00  0.00    +0.000 HD
BRANCH  16  18
ATOM     18  C   UNL     1       5.102   7.049  17.387  0.00  0.00    +0.000 C 
BRANCH  18  19
ATOM     19  C   UNL     1       3.785   6.526  17.924  0.00  0.00    +0.000 C 
ATOM     20  O   UNL     1       2.761   7.194  17.806  0.00  0.00    +0.000 OA
ATOM     21  N   UNL     1       3.898   5.290  18.538  0.00  0.00    +0.000 N 
ATOM     22  H   UNL     1       4.843   4.972  18.734  0.00  0.00    +0.000 HD
BRANCH  21  23
ATOM     23  C   UNL     1       2.833   4.513  19.039  0.00  0.00    +0.000 A 
ATOM     24  C   UNL     1       2.051   3.682  18.232  0.00  0.00    +0.000 A 
ATOM     25  C   UNL     1       0.996   2.947  18.773  0.00  0.00    +0.000 A 
ATOM     26  C   UNL     1       0.713   3.030  20.132  0.00  0.00    +0.000 A 
ATOM     27  C   UNL     1       1.499   3.836  20.953  0.00  0.00    +0.000 A 
ATOM     28  C   UNL     1       2.563   4.567  20.411  0.00  0.00    +0.000 A 
ENDBRANCH  21  23
ENDBRANCH  18  19
ENDBRANCH  16  18
ENDBRANCH   1  16
TORSDOF 6
ENDMDL
MODEL 3
REMARK VINA RESULT:      -8.0      1.535      2.081
REMARK  Name = 
REMARK  6 active torsions:
REMARK  status: ('A' for Active; 'I' for Inactive)
REMARK    1  A    between atoms: C_2  and  C_4
REMARK    2  A    between atoms: C_8  and  S_9
REMARK    3  A    between atoms: S_9  and  N_12
REMARK    4  A    between atoms: N_12  and  C_13
REMARK    5  A    between atoms: C_13  and  C_14
REMARK    6  A    between atoms: N_16  and  C_17
REMARK                            x       y       z     vdW  Elec       q    Type
REMARK                         _______ _______ _______ _____ _____    ______ ____
ROOT
ATOM      1  S   UNL     1       5.942   5.297  16.057  0.00  0.00    +0.000 S 
ATOM      2  O   UNL     1       6.377   6.642  16.350  0.00  0.00    +0.000 OA
ATOM      3  O   UNL     1       4.559   4.892  16.169  0.00  0.00    +0.000 OA
ENDROOT
BRANCH   1   8
ATOM      4  C   UNL     1       6.209   3.499  12.441  0.00  0.00    +0.000 A 
ATOM      5  C   UNL     1       7.330   4.129  11.878  0.00  0.00    +0.000 A 
ATOM      6  C   UNL     1       7.992   5.154  12.561  0.00  0.00    +0.000 A 
ATOM      7  C   UNL     1       7.559   5.539  13.829  0.00  0.00    +0.000 A 
ATOM      8  C   UNL     1       6.488   4.863  14.418  0.00  0.00    +0.000 A 
ATOM      9  C   UNL     1       5.803   3.856  13.730  0.00  0.00    +0.000 A 
BRANCH   4  11
ATOM     10  N   UNL     1       4.251   2.807  11.193  0.00  0.00    +0.000 NA
ATOM     11  C   UNL     1       5.433   2.501  11.636  0.00  0.00    +0.000 C 
ATOM     12  N   UNL     1       5.907   1.245  11.396  0.00  0.00    +0.000 N 
ATOM     13  H   UNL     1       3.928   2.046  10.577  0.00  0.00    +0.000 HD
ATOM     14  H   UNL     1       5.237   0.551  11.083  0.00  0.00    +0.000 HD
ATOM     15  H   UNL     1       6.539   0.840  12.080  0.00  0.00    +0.000 HD
ENDBRANCH   4  11
ENDBRANCH   1   8
BRANCH   1  16
ATOM     16  N   UNL     1       6.836   4.232  17.021  0.00  0.00    +0.000 NA
ATOM     17  H   UNL     1       7.759   4.065  16.613  0.00  0.00    +0.000 HD
BRANCH  16  18
ATOM     18  C   UNL     1       6.856   4.547  18.461  0.00  0.00    +0.000 C 
BRANCH  18  19
ATOM     19  C   UNL     1       5.447   4.577  19.017  0.00  0.00    +0.000 C 
ATOM     20  O   UNL     1       5.010   5.601  19.536  0.00  0.00    +0.000 OA
ATOM     21  N   UNL     1       4.780   3.371  18.881  0.00  0.00    +0.000 N 
ATOM     22  H   UNL     1       5.350   2.572  18.620  0.00  0.00    +0.000 HD
BRANCH  21  23
ATOM     23  C   UNL     1       3.430   3.128  19.210  0.00  0.00    +0.000 A 
ATOM     24  C   UNL     1       2.424   3.002  18.249  0.00  0.00    +0.000 A 
ATOM     25  C   UNL     1       1.098   2.780  18.627  0.00  0.00    +0.000 A 
ATOM     26  C   UNL     1       0.765   2.677  19.973  0.00  0.00    +0.000 A 
ATOM     27  C   UNL     1       1.762   2.778  20.941  0.00  0.00    +0.000 A 
ATOM     28  C   UNL     1       3.093   2.992  20.562  0.00  0.00    +0.000 A 
ENDBRANCH  21  23
ENDBRANCH  18  19
ENDBRANCH  16  18
ENDBRANCH   1  16
TORSDOF 6
ENDMDL
MODEL 4
REMARK VINA RESULT:      -8.0      1.576      1.751
REMARK  Name = 
REMARK  6 active torsions:
REMARK  status: ('A' for Active; 'I' for Inactive)
REMARK    1  A    between atoms: C_2  and  C_4
REMARK    2  A    between atoms: C_8  and  S_9
REMARK    3  A    between atoms: S_9  and  N_12
REMARK    4  A    between atoms: N_12  and  C_13
REMARK    5  A    between atoms: C_13  and  C_14
REMARK    6  A    between atoms: N_16  and  C_17
REMARK                            x       y       z     vdW  Elec       q    Type
REMARK                         _______ _______ _______ _____ _____    ______ ____
ROOT
ATOM      1  S   UNL     1       5.939   5.261  16.116  0.00  0.00    +0.000 S 
ATOM      2  O   UNL     1       6.316   6.627  16.393  0.00  0.00    +0.000 OA
ATOM      3  O   UNL     1       4.580   4.791  16.267  0.00  0.00    +0.000 OA
ENDROOT
BRANCH   1   8
ATOM      4  C   UNL     1       6.141   3.517  12.470  0.00  0.00    +0.000 A 
ATOM      5  C   UNL     1       7.261   4.144  11.903  0.00  0.00    +0.000 A 
ATOM      6  C   UNL     1       7.943   5.152  12.592  0.00  0.00    +0.000 A 
ATOM      7  C   UNL     1       7.529   5.522  13.871  0.00  0.00    +0.000 A 
ATOM      8  C   UNL     1       6.459   4.847  14.464  0.00  0.00    +0.000 A 
ATOM      9  C   UNL     1       5.755   3.859  13.768  0.00  0.00    +0.000 A 
BRANCH   4  11
ATOM     10  N   UNL     1       5.853   1.383  11.359  0.00  0.00    +0.000 NA
ATOM     11  C   UNL     1       5.345   2.540  11.659  0.00  0.00    +0.000 C 
ATOM     12  N   UNL     1       4.110   2.849  11.168  0.00  0.00    +0.000 N 
ATOM     13  H   UNL     1       5.126   0.817  10.899  0.00  0.00    +0.000 HD
ATOM     14  H   UNL     1       3.749   2.262  10.424  0.00  0.00    +0.000 HD
ATOM     15  H   UNL     1       3.909   3.825  10.975  0.00  0.00    +0.000 HD
ENDBRANCH   4  11
ENDBRANCH   1   8
BRANCH   1  16
ATOM     16  N   UNL     1       6.909   4.244  17.057  0.00  0.00    +0.000 NA
ATOM     17  H   UNL     1       7.820   4.106  16.616  0.00  0.00    +0.000 HD
BRANCH  16  18
ATOM     18  C   UNL     1       6.973   4.581  18.492  0.00  0.00    +0.000 C 
BRANCH  18  19
ATOM     19  C   UNL     1       5.582   4.608  19.093  0.00  0.00    +0.000 C 
ATOM     20  O   UNL     1       5.139   5.646  19.575  0.00  0.00    +0.000 OA
ATOM     21  N   UNL     1       4.940   3.383  19.039  0.00  0.00    +0.000 N 
ATOM     22  H   UNL     1       5.520   2.584  18.799  0.00  0.00    +0.000 HD
BRANCH  21  23
ATOM     23  C   UNL     1       3.608   3.127  19.426  0.00  0.00    +0.000 A 
ATOM     24  C   UNL     1       3.190   3.126  20.759  0.00  0.00    +0.000 A 
ATOM     25  C   UNL     1       1.863   2.848  21.093  0.00  0.00    +0.000 A 
ATOM     26  C   UNL     1       0.937   2.572  20.093  0.00  0.00    +0.000 A 
ATOM     27  C   UNL     1       1.335   2.592  18.758  0.00  0.00    +0.000 A 
ATOM     28  C   UNL     1       2.664   2.879  18.423  0.00  0.00    +0.000 A 
ENDBRANCH  21  23
ENDBRANCH  18  19
ENDBRANCH  16  18
ENDBRANCH   1  16
TORSDOF 6
ENDMDL
MODEL 5
REMARK VINA RESULT:      -7.8      4.361      5.676
REMARK  Name = 
REMARK  6 active torsions:
REMARK  status: ('A' for Active; 'I' for Inactive)
REMARK    1  A    between atoms: C_2  and  C_4
REMARK    2  A    between atoms: C_8  and  S_9
REMARK    3  A    between atoms: S_9  and  N_12
REMARK    4  A    between atoms: N_12  and  C_13
REMARK    5  A    between atoms: C_13  and  C_14
REMARK    6  A    between atoms: N_16  and  C_17
REMARK                            x       y       z     vdW  Elec       q    Type
REMARK                         _______ _______ _______ _____ _____    ______ ____
ROOT
ATOM      1  S   UNL     1       3.545   2.270  19.205  0.00  0.00    +0.000 S 
ATOM      2  O   UNL     1       2.178   2.261  18.742  0.00  0.00    +0.000 OA
ATOM      3  O   UNL     1       4.369   1.081  19.201  0.00  0.00    +0.000 OA
ENDROOT
BRANCH   1   8
ATOM      4  C   UNL     1       6.187   5.206  18.324  0.00  0.00    +0.000 A 
ATOM      5  C   UNL     1       5.833   5.538  17.007  0.00  0.00    +0.000 A 
ATOM      6  C   UNL     1       4.824   4.837  16.339  0.00  0.00    +0.000 A 
ATOM      7  C   UNL     1       4.137   3.815  16.992  0.00  0.00    +0.000 A 
ATOM      8  C   UNL     1       4.440   3.534  18.326  0.00  0.00    +0.000 A 
ATOM      9  C   UNL     1       5.467   4.212  18.991  0.00  0.00    +0.000 A 
BRANCH   4  11
ATOM     10  N   UNL     1       7.787   5.462  20.125  0.00  0.00    +0.000 NA
ATOM     11  C   UNL     1       7.361   5.877  18.971  0.00  0.00    +0.000 C 
ATOM     12  N   UNL     1       7.970   6.960  18.409  0.00  0.00    +0.000 N 
ATOM     13  H   UNL     1       8.656   5.967  20.352  0.00  0.00    +0.000 HD
ATOM     14  H   UNL     1       8.570   7.516  19.010  0.00  0.00    +0.000 HD
ATOM     15  H   UNL     1       7.409   7.563  17.817  0.00  0.00    +0.000 HD
ENDBRANCH   4  11
ENDBRANCH   1   8
BRANCH   1  16
ATOM     16  N   UNL     1       3.561   2.862  20.790  0.00  0.00    +0.000 NA
ATOM     17  H   UNL     1       4.262   3.599  20.892  0.00  0.00    +0.000 HD
BRANCH  16  18
ATOM     18  C   UNL     1       2.241   3.197  21.354  0.00  0.00    +0.000 C 
BRANCH  18  19
ATOM     19  C   UNL     1       1.635   4.378  20.622  0.00  0.00    +0.000 C 
ATOM     20  O   UNL     1       0.480   4.323  20.210  0.00  0.00    +0.000 OA
ATOM     21  N   UNL     1       2.513   5.440  20.479  0.00  0.00    +0.000 N 
ATOM     22  H   UNL     1       3.488   5.246  20.691  0.00  0.00    +0.000 HD
BRANCH  21  23
ATOM     23  C   UNL     1       2.204   6.703  19.935  0.00  0.00    +0.000 A 
ATOM     24  C   UNL     1       1.551   7.705  20.660  0.00  0.00    +0.000 A 
ATOM     25  C   UNL     1       1.250   8.934  20.070  0.00  0.00    +0.000 A 
ATOM     26  C   UNL     1       1.604   9.177  18.747  0.00  0.00    +0.000 A 
ATOM     27  C   UNL     1       2.276   8.196  18.021  0.00  0.00    +0.000 A 
ATOM     28  C   UNL     1       2.585   6.967  18.615  0.00  0.00    +0.000 A 
ENDBRANCH  21  23
ENDBRANCH  18  19
ENDBRANCH  16  18
ENDBRANCH   1  16
TORSDOF 6
ENDMDL
MODEL 6
REMARK VINA RESULT:      -7.7      1.878      2.747
REMARK  Name = 
REMARK  6 active torsions:
REMARK  status: ('A' for Active; 'I' for Inactive)
REMARK    1  A    between atoms: C_2  and  C_4
REMARK    2  A    between atoms: C_8  and  S_9
REMARK    3  A    between atoms: S_9  and  N_12
REMARK    4  A    between atoms: N_12  and  C_13
REMARK    5  A    between atoms: C_13  and  C_14
REMARK    6  A    between atoms: N_16  and  C_17
REMARK                            x       y       z     vdW  Elec       q    Type
REMARK                         _______ _______ _______ _____ _____    ______ ____
ROOT
ATOM      1  S   UNL     1       6.571   5.105  16.234  0.00  0.00    +0.000 S 
ATOM      2  O   UNL     1       7.575   4.387  16.981  0.00  0.00    +0.000 OA
ATOM      3  O   UNL     1       6.346   6.523  16.409  0.00  0.00    +0.000 OA
ENDROOT
BRANCH   1   8
ATOM      4  C   UNL     1       6.278   3.597  12.490  0.00  0.00    +0.000 A 
ATOM      5  C   UNL     1       7.257   4.328  11.798  0.00  0.00    +0.000 A 
ATOM      6  C   UNL     1       7.985   5.335  12.440  0.00  0.00    +0.000 A 
ATOM      7  C   UNL     1       7.763   5.601  13.790  0.00  0.00    +0.000 A 
ATOM      8  C   UNL     1       6.841   4.824  14.496  0.00  0.00    +0.000 A 
ATOM      9  C   UNL     1       6.089   3.835  13.853  0.00  0.00    +0.000 A 
BRANCH   4  11
ATOM     10  N   UNL     1       5.874   1.438  11.468  0.00  0.00    +0.000 NA
ATOM     11  C   UNL     1       5.417   2.620  11.748  0.00  0.00    +0.000 C 
ATOM     12  N   UNL     1       4.172   2.954  11.300  0.00  0.00    +0.000 N 
ATOM     13  H   UNL     1       5.109   0.881  11.060  0.00  0.00    +0.000 HD
ATOM     14  H   UNL     1       3.760   2.354  10.593  0.00  0.00    +0.000 HD
ATOM     15  H   UNL     1       3.995   3.929  11.082  0.00  0.00    +0.000 HD
ENDBRANCH   4  11
ENDBRANCH   1   8
BRANCH   1  16
ATOM     16  N   UNL     1       5.081   4.346  16.487  0.00  0.00    +0.000 NA
ATOM     17  H   UNL     1       4.975   3.543  15.863  0.00  0.00    +0.000 HD
BRANCH  16  18
ATOM     18  C   UNL     1       4.743   4.068  17.895  0.00  0.00    +0.000 C 
BRANCH  18  19
ATOM     19  C   UNL     1       3.548   4.895  18.326  0.00  0.00    +0.000 C 
ATOM     20  O   UNL     1       2.539   4.344  18.757  0.00  0.00    +0.000 OA
ATOM     21  N   UNL     1       3.738   6.257  18.160  0.00  0.00    +0.000 N 
ATOM     22  H   UNL     1       4.542   6.532  17.603  0.00  0.00    +0.000 HD
BRANCH  21  23
ATOM     23  C   UNL     1       2.849   7.274  18.565  0.00  0.00    +0.000 A 
ATOM     24  C   UNL     1       2.286   7.328  19.843  0.00  0.00    +0.000 A 
ATOM     25  C   UNL     1       1.395   8.345  20.189  0.00  0.00    +0.000 A 
ATOM     26  C   UNL     1       1.060   9.324  19.260  0.00  0.00    +0.000 A 
ATOM     27  C   UNL     1       1.632   9.295  17.990  0.00  0.00    +0.000 A 
ATOM     28  C   UNL     1       2.531   8.280  17.646  0.00  0.00    +0.000 A 
ENDBRANCH  21  23
ENDBRANCH  18  19
ENDBRANCH  16  18
ENDBRANCH   1  16
TORSDOF 6
ENDMDL
MODEL 7
REMARK VINA RESULT:      -7.7      4.331      7.542
REMARK  Name = 
REMARK  6 active torsions:
REMARK  status: ('A' for Active; 'I' for Inactive)
REMARK    1  A    between atoms: C_2  and  C_4
REMARK    2  A    between atoms: C_8  and  S_9
REMARK    3  A    between atoms: S_9  and  N_12
REMARK    4  A    between atoms: N_12  and  C_13
REMARK    5  A    between atoms: C_13  and  C_14
REMARK    6  A    between atoms: N_16  and  C_17
REMARK                            x       y       z     vdW  Elec       q    Type
REMARK                         _______ _______ _______ _____ _____    ______ ____
ROOT
ATOM      1  S   UNL     1       6.952   5.052  16.960  0.00  0.00    +0.000 S 
ATOM      2  O   UNL     1       7.623   4.357  18.033  0.00  0.00    +0.000 OA
ATOM      3  O   UNL     1       7.022   4.602  15.587  0.00  0.00    +0.000 OA
ENDROOT
BRANCH   1   8
ATOM      4  C   UNL     1       3.110   4.157  17.860  0.00  0.00    +0.000 A 
ATOM      5  C   UNL     1       2.529   5.429  17.981  0.00  0.00    +0.000 A 
ATOM      6  C   UNL     1       3.305   6.585  17.851  0.00  0.00    +0.000 A 
ATOM      7  C   UNL     1       4.666   6.481  17.567  0.00  0.00    +0.000 A 
ATOM      8  C   UNL     1       5.228   5.217  17.374  0.00  0.00    +0.000 A 
ATOM      9  C   UNL     1       4.464   4.056  17.532  0.00  0.00    +0.000 A 
BRANCH   4  11
ATOM     10  N   UNL     1       2.717   1.768  17.763  0.00  0.00    +0.000 NA
ATOM     11  C   UNL     1       2.288   2.935  18.140  0.00  0.00    +0.000 C 
ATOM     12  N   UNL     1       1.062   3.011  18.733  0.00  0.00    +0.000 N 
ATOM     13  H   UNL     1       2.078   1.051  18.136  0.00  0.00    +0.000 HD
ATOM     14  H   UNL     1       0.459   2.200  18.652  0.00  0.00    +0.000 HD
ATOM     15  H   UNL     1       0.526   3.863  18.600  0.00  0.00    +0.000 HD
ENDBRANCH   4  11
ENDBRANCH   1   8
BRANCH   1  16
ATOM     16  N   UNL     1       7.473   6.661  16.968  0.00  0.00    +0.000 NA
ATOM     17  H   UNL     1       6.767   7.270  16.547  0.00  0.00    +0.000 HD
BRANCH  16  18
ATOM     18  C   UNL     1       8.007   7.148  18.253  0.00  0.00    +0.000 C 
BRANCH  18  19
ATOM     19  C   UNL     1       8.175   8.654  18.221  0.00  0.00    +0.000 C 
ATOM     20  O   UNL     1       7.472   9.338  17.482  0.00  0.00    +0.000 OA
ATOM     21  N   UNL     1       9.171   9.110  19.069  0.00  0.00    +0.000 N 
ATOM     22  H   UNL     1       9.792   8.403  19.451  0.00  0.00    +0.000 HD
BRANCH  21  23
ATOM     23  C   UNL     1       9.485  10.460  19.327  0.00  0.00    +0.000 A 
ATOM     24  C   UNL     1       9.944  11.337  18.340  0.00  0.00    +0.000 A 
ATOM     25  C   UNL     1      10.260  12.661  18.650  0.00  0.00    +0.000 A 
ATOM     26  C   UNL     1      10.117  13.124  19.953  0.00  0.00    +0.000 A 
ATOM     27  C   UNL     1       9.639  12.268  20.942  0.00  0.00    +0.000 A 
ATOM     28  C   UNL     1       9.314  10.943  20.629  0.00  0.00    +0.000 A 
ENDBRANCH  21  23
ENDBRANCH  18  19
ENDBRANCH  16  18
ENDBRANCH   1  16
TORSDOF 6
ENDMDL
MODEL 8
REMARK VINA RESULT:      -7.7      4.186      5.675
REMARK  Name = 
REMARK  6 active torsions:
REMARK  status: ('A' for Active; 'I' for Inactive)
REMARK    1  A    between atoms: C_2  and  C_4
REMARK    2  A    between atoms: C_8  and  S_9
REMARK    3  A    between atoms: S_9  and  N_12
REMARK    4  A    between atoms: N_12  and  C_13
REMARK    5  A    between atoms: C_13  and  C_14
REMARK    6  A    between atoms: N_16  and  C_17
REMARK                            x       y       z     vdW  Elec       q    Type
REMARK                         _______ _______ _______ _____ _____    ______ ____
ROOT
ATOM      1  S   UNL     1       4.038   2.344  19.844  0.00  0.00    +0.000 S 
ATOM      2  O   UNL     1       2.814   1.710  19.416  0.00  0.00    +0.000 OA
ATOM      3  O   UNL     1       5.216   1.585  20.201  0.00  0.00    +0.000 OA
ENDROOT
BRANCH   1   8
ATOM      4  C   UNL     1       6.023   5.307  17.933  0.00  0.00    +0.000 A 
ATOM      5  C   UNL     1       5.304   5.421  16.733  0.00  0.00    +0.000 A 
ATOM      6  C   UNL     1       4.238   4.560  16.454  0.00  0.00    +0.000 A 
ATOM      7  C   UNL     1       3.860   3.596  17.386  0.00  0.00    +0.000 A 
ATOM      8  C   UNL     1       4.529   3.531  18.610  0.00  0.00    +0.000 A 
ATOM      9  C   UNL     1       5.615   4.369  18.884  0.00  0.00    +0.000 A 
BRANCH   4  11
ATOM     10  N   UNL     1       7.690   6.903  17.191  0.00  0.00    +0.000 NA
ATOM     11  C   UNL     1       7.246   6.147  18.150  0.00  0.00    +0.000 C 
ATOM     12  N   UNL     1       7.953   6.101  19.316  0.00  0.00    +0.000 N 
ATOM     13  H   UNL     1       8.461   7.478  17.560  0.00  0.00    +0.000 HD
ATOM     14  H   UNL     1       8.894   6.480  19.299  0.00  0.00    +0.000 HD
ATOM     15  H   UNL     1       7.930   5.238  19.848  0.00  0.00    +0.000 HD
ENDBRANCH   4  11
ENDBRANCH   1   8
BRANCH   1  16
ATOM     16  N   UNL     1       3.683   3.336  21.167  0.00  0.00    +0.000 NA
ATOM     17  H   UNL     1       4.219   4.206  21.120  0.00  0.00    +0.000 HD
BRANCH  16  18
ATOM     18  C   UNL     1       2.249   3.520  21.454  0.00  0.00    +0.000 C 
BRANCH  18  19
ATOM     19  C   UNL     1       1.672   4.619  20.584  0.00  0.00    +0.000 C 
ATOM     20  O   UNL     1       0.571   4.476  20.059  0.00  0.00    +0.000 OA
ATOM     21  N   UNL     1       2.509   5.715  20.461  0.00  0.00    +0.000 N 
ATOM     22  H   UNL     1       3.464   5.587  20.785  0.00  0.00    +0.000 HD
BRANCH  21  23
ATOM     23  C   UNL     1       2.202   6.923  19.802  0.00  0.00    +0.000 A 
ATOM     24  C   UNL     1       2.544   7.172  18.470  0.00  0.00    +0.000 A 
ATOM     25  C   UNL     1       2.234   8.393  17.868  0.00  0.00    +0.000 A 
ATOM     26  C   UNL     1       1.573   9.379  18.593  0.00  0.00    +0.000 A 
ATOM     27  C   UNL     1       1.205   9.135  19.915  0.00  0.00    +0.000 A 
ATOM     28  C   UNL     1       1.509   7.908  20.515  0.00  0.00    +0.000 A 
ENDBRANCH  21  23
ENDBRANCH  18  19
ENDBRANCH  16  18
ENDBRANCH   1  16
TORSDOF 6
ENDMDL
MODEL 9
REMARK VINA RESULT:      -7.6      4.205      7.882
REMARK  Name = 
REMARK  6 active torsions:
REMARK  status: ('A' for Active; 'I' for Inactive)
REMARK    1  A    between atoms: C_2  and  C_4
REMARK    2  A    between atoms: C_8  and  S_9
REMARK    3  A    between atoms: S_9  and  N_12
REMARK    4  A    between atoms: N_12  and  C_13
REMARK    5  A    between atoms: C_13  and  C_14
REMARK    6  A    between atoms: N_16  and  C_17
REMARK                            x       y       z     vdW  Elec       q    Type
REMARK                         _______ _______ _______ _____ _____    ______ ____
ROOT
ATOM      1  S   UNL     1       6.057   5.555  16.051  0.00  0.00    +0.000 S 
ATOM      2  O   UNL     1       6.546   4.251  15.673  0.00  0.00    +0.000 OA
ATOM      3  O   UNL     1       5.499   6.479  15.089  0.00  0.00    +0.000 OA
ENDROOT
BRANCH   1   8
ATOM      4  C   UNL     1       3.931   3.998  19.123  0.00  0.00    +0.000 A 
ATOM      5  C   UNL     1       2.980   5.003  19.365  0.00  0.00    +0.000 A 
ATOM      6  C   UNL     1       3.003   6.199  18.641  0.00  0.00    +0.000 A 
ATOM      7  C   UNL     1       3.958   6.390  17.643  0.00  0.00    +0.000 A 
ATOM      8  C   UNL     1       4.857   5.361  17.353  0.00  0.00    +0.000 A 
ATOM      9  C   UNL     1       4.859   4.174  18.094  0.00  0.00    +0.000 A 
BRANCH   4  11
ATOM     10  N   UNL     1       3.049   2.603  20.896  0.00  0.00    +0.000 NA
ATOM     11  C   UNL     1       3.973   2.786  20.003  0.00  0.00    +0.000 C 
ATOM     12  N   UNL     1       4.995   1.884  19.937  0.00  0.00    +0.000 N 
ATOM     13  H   UNL     1       3.185   1.674  21.321  0.00  0.00    +0.000 HD
ATOM     14  H   UNL     1       5.100   1.249  20.721  0.00  0.00    +0.000 HD
ATOM     15  H   UNL     1       5.903   2.221  19.633  0.00  0.00    +0.000 HD
ENDBRANCH   4  11
ENDBRANCH   1   8
BRANCH   1  16
ATOM     16  N   UNL     1       7.306   6.378  16.841  0.00  0.00    +0.000 NA
ATOM     17  H   UNL     1       8.199   6.214  16.372  0.00  0.00    +0.000 HD
BRANCH  16  18
ATOM     18  C   UNL     1       7.035   7.794  17.151  0.00  0.00    +0.000 C 
BRANCH  18  19
ATOM     19  C   UNL     1       8.103   8.350  18.070  0.00  0.00    +0.000 C 
ATOM     20  O   UNL     1       8.688   7.610  18.856  0.00  0.00    +0.000 OA
ATOM     21  N   UNL     1       8.299   9.713  17.918  0.00  0.00    +0.000 N 
ATOM     22  H   UNL     1       7.595  10.208  17.377  0.00  0.00    +0.000 HD
BRANCH  21  23
ATOM     23  C   UNL     1       9.289  10.485  18.559  0.00  0.00    +0.000 A 
ATOM     24  C   UNL     1      10.364  11.062  17.877  0.00  0.00    +0.000 A 
ATOM     25  C   UNL     1      11.330  11.803  18.561  0.00  0.00    +0.000 A 
ATOM     26  C   UNL     1      11.228  11.979  19.937  0.00  0.00    +0.000 A 
ATOM     27  C   UNL     1      10.150  11.429  20.625  0.00  0.00    +0.000 A 
ATOM     28  C   UNL     1       9.177  10.693  19.939  0.00  0.00    +0.000 A 
ENDBRANCH  21  23
ENDBRANCH  18  19
ENDBRANCH  16  18
ENDBRANCH   1  16
TORSDOF 6
ENDMDL
