MODEL 1
REMARK VINA RESULT:      -6.6      0.000      0.000
REMARK  Name = 
REMARK  7 active torsions:
REMARK  status: ('A' for Active; 'I' for Inactive)
REMARK    1  A    between atoms: C_1  and  O_2
REMARK    2  A    between atoms: O_2  and  C_3
REMARK    3  A    between atoms: C_11  and  O_12
REMARK    4  A    between atoms: O_12  and  C_13
REMARK    5  A    between atoms: C_14  and  O_15
REMARK    6  A    between atoms: O_15  and  C_16
REMARK    7  A    between atoms: N_24  and  C_25
REMARK                            x       y       z     vdW  Elec       q    Type
REMARK                         _______ _______ _______ _____ _____    ______ ____
ROOT
ATOM      1  C   UNL     1      -4.745  13.040  22.957  0.00  0.00    +0.000 A 
ATOM      2  C   UNL     1      -3.495  12.901  23.529  0.00  0.00    +0.000 A 
ATOM      3  C   UNL     1      -2.428  13.273  22.776  0.00  0.00    +0.000 A 
ATOM      4  C   UNL     1      -2.524  13.188  21.414  0.00  0.00    +0.000 A 
ATOM      5  C   UNL     1      -1.372  13.499  20.668  0.00  0.00    +0.000 A 
ATOM      6  C   UNL     1      -1.187  12.763  19.545  0.00  0.00    +0.000 A 
ATOM      7  C   UNL     1      -2.034  11.686  19.506  0.00  0.00    +0.000 A 
ATOM      8  C   UNL     1      -1.631  10.361  19.277  0.00  0.00    +0.000 A 
ATOM      9  C   UNL     1      -1.247  10.228  17.990  0.00  0.00    +0.000 A 
ATOM     10  C   UNL     1      -2.249  10.696  17.135  0.00  0.00    +0.000 A 
ATOM     11  C   UNL     1      -3.410  11.425  17.794  0.00  0.00    +0.000 A 
ATOM     12  C   UNL     1      -3.297  12.008  19.273  0.00  0.00    +0.000 A 
ATOM     13  C   UNL     1      -3.672  12.714  20.711  0.00  0.00    +0.000 A 
ATOM     14  C   UNL     1      -4.868  12.999  21.544  0.00  0.00    +0.000 A 
ATOM     15  C   UNL     1      -0.446  13.318  18.374  0.00  0.00    +0.000 C 
ATOM     16  C   UNL     1       0.649  14.313  18.763  0.00  0.00    +0.000 C 
ATOM     17  C   UNL     1       2.035  13.750  18.402  0.00  0.00    +0.000 C 
ATOM     18  N   UNL     1       2.829  13.720  19.640  0.00  0.00    +0.000 NA
ATOM     19  C   UNL     1       3.844  14.768  19.629  0.00  0.00    +0.000 C 
ATOM     20  C   UNL     1       1.866  13.912  20.717  0.00  0.00    +0.000 C 
ATOM     21  N   UNL     1       0.779  14.707  20.175  0.00  0.00    +0.000 NA
ATOM     22  C   UNL     1      -0.430  14.613  21.001  0.00  0.00    +0.000 C 
ENDROOT
BRANCH   1  24
ATOM     23  C   UNL     1      -6.936  12.680  24.034  0.00  0.00    +0.000 C 
ATOM     24  O   UNL     1      -5.612  13.146  23.994  0.00  0.00    +0.000 OA
ENDBRANCH   1  24
BRANCH   9  25
ATOM     25  O   UNL     1       0.039   9.889  17.713  0.00  0.00    +0.000 OA
ATOM     26  C   UNL     1       0.837   9.628  18.896  0.00  0.00    +0.000 C 
ENDBRANCH   9  25
BRANCH  10  27
ATOM     27  O   UNL     1      -2.189  10.624  15.760  0.00  0.00    +0.000 OA
ATOM     28  C   UNL     1      -3.442  10.587  15.037  0.00  0.00    +0.000 C 
ENDBRANCH  10  27
TORSDOF 3
ENDMDL
MODEL 2
REMARK VINA RESULT:      -6.5      2.666      6.213
REMARK  Name = 
REMARK  7 active torsions:
REMARK  status: ('A' for Active; 'I' for Inactive)
REMARK    1  A    between atoms: C_1  and  O_2
REMARK    2  A    between atoms: O_2  and  C_3
REMARK    3  A    between atoms: C_11  and  O_12
REMARK    4  A    between atoms: O_12  and  C_13
REMARK    5  A    between atoms: C_14  and  O_15
REMARK    6  A    between atoms: O_15  and  C_16
REMARK    7  A    between atoms: N_24  and  C_25
REMARK                            x       y       z     vdW  Elec       q    Type
REMARK                         _______ _______ _______ _____ _____    ______ ____
ROOT
ATOM      1  C   UNL     1      -3.374  10.506  15.778  0.00  0.00    +0.000 A 
ATOM      2  C   UNL     1      -4.273  10.096  16.742  0.00  0.00    +0.000 A 
ATOM      3  C   UNL     1      -4.390  10.875  17.849  0.00  0.00    +0.000 A 
ATOM      4  C   UNL     1      -3.308  11.609  18.251  0.00  0.00    +0.000 A 
ATOM      5  C   UNL     1      -3.435  12.337  19.448  0.00  0.00    +0.000 A 
ATOM      6  C   UNL     1      -2.315  12.415  20.207  0.00  0.00    +0.000 A 
ATOM      7  C   UNL     1      -1.352  11.543  19.769  0.00  0.00    +0.000 A 
ATOM      8  C   UNL     1      -0.675  10.624  20.586  0.00  0.00    +0.000 A 
ATOM      9  C   UNL     1       0.164  11.290  21.407  0.00  0.00    +0.000 A 
ATOM     10  C   UNL     1       0.990  12.141  20.667  0.00  0.00    +0.000 A 
ATOM     11  C   UNL     1       0.645  12.302  19.195  0.00  0.00    +0.000 A 
ATOM     12  C   UNL     1      -0.789  11.900  18.625  0.00  0.00    +0.000 A 
ATOM     13  C   UNL     1      -2.039  11.607  17.597  0.00  0.00    +0.000 A 
ATOM     14  C   UNL     1      -2.265  11.306  16.161  0.00  0.00    +0.000 A 
ATOM     15  C   UNL     1      -2.076  13.578  21.111  0.00  0.00    +0.000 C 
ATOM     16  C   UNL     1      -3.362  14.183  21.676  0.00  0.00    +0.000 C 
ATOM     17  C   UNL     1      -3.421  13.988  23.201  0.00  0.00    +0.000 C 
ATOM     18  N   UNL     1      -4.662  13.257  23.499  0.00  0.00    +0.000 NA
ATOM     19  C   UNL     1      -5.648  14.139  24.113  0.00  0.00    +0.000 C 
ATOM     20  C   UNL     1      -5.121  12.743  22.214  0.00  0.00    +0.000 C 
ATOM     21  N   UNL     1      -4.656  13.671  21.198  0.00  0.00    +0.000 NA
ATOM     22  C   UNL     1      -4.675  13.067  19.860  0.00  0.00    +0.000 C 
ENDROOT
BRANCH   1  24
ATOM     23  C   UNL     1      -3.045   9.749  13.452  0.00  0.00    +0.000 C 
ATOM     24  O   UNL     1      -3.802   9.951  14.618  0.00  0.00    +0.000 OA
ENDBRANCH   1  24
BRANCH   9  25
ATOM     25  O   UNL     1      -0.028  11.222  22.750  0.00  0.00    +0.000 OA
ATOM     26  C   UNL     1      -0.764  10.044  23.171  0.00  0.00    +0.000 C 
ENDBRANCH   9  25
BRANCH  10  27
ATOM     27  O   UNL     1       2.006  12.899  21.210  0.00  0.00    +0.000 OA
ATOM     28  C   UNL     1       2.763  13.743  20.312  0.00  0.00    +0.000 C 
ENDBRANCH  10  27
TORSDOF 3
ENDMDL
MODEL 3
REMARK VINA RESULT:      -6.4      2.609      4.900
REMARK  Name = 
REMARK  7 active torsions:
REMARK  status: ('A' for Active; 'I' for Inactive)
REMARK    1  A    between atoms: C_1  and  O_2
REMARK    2  A    between atoms: O_2  and  C_3
REMARK    3  A    between atoms: C_11  and  O_12
REMARK    4  A    between atoms: O_12  and  C_13
REMARK    5  A    between atoms: C_14  and  O_15
REMARK    6  A    between atoms: O_15  and  C_16
REMARK    7  A    between atoms: N_24  and  C_25
REMARK                            x       y       z     vdW  Elec       q    Type
REMARK                         _______ _______ _______ _____ _____    ______ ____
ROOT
ATOM      1  C   UNL     1      -6.081  14.356  22.320  0.00  0.00    +0.000 A 
ATOM      2  C   UNL     1      -6.243  14.690  20.990  0.00  0.00    +0.000 A 
ATOM      3  C   UNL     1      -5.763  13.812  20.071  0.00  0.00    +0.000 A 
ATOM      4  C   UNL     1      -4.698  13.024  20.410  0.00  0.00    +0.000 A 
ATOM      5  C   UNL     1      -4.172  12.189  19.408  0.00  0.00    +0.000 A 
ATOM      6  C   UNL     1      -2.828  12.020  19.433  0.00  0.00    +0.000 A 
ATOM      7  C   UNL     1      -2.227  12.912  20.283  0.00  0.00    +0.000 A 
ATOM      8  C   UNL     1      -1.145  13.737  19.940  0.00  0.00    +0.000 A 
ATOM      9  C   UNL     1      -0.036  12.982  19.793  0.00  0.00    +0.000 A 
ATOM     10  C   UNL     1       0.163  12.190  20.928  0.00  0.00    +0.000 A 
ATOM     11  C   UNL     1      -0.967  12.175  21.945  0.00  0.00    +0.000 A 
ATOM     12  C   UNL     1      -2.439  12.654  21.564  0.00  0.00    +0.000 A 
ATOM     13  C   UNL     1      -4.028  13.066  21.670  0.00  0.00    +0.000 A 
ATOM     14  C   UNL     1      -5.009  13.504  22.695  0.00  0.00    +0.000 A 
ATOM     15  C   UNL     1      -2.198  10.772  18.909  0.00  0.00    +0.000 C 
ATOM     16  C   UNL     1      -2.974  10.139  17.753  0.00  0.00    +0.000 C 
ATOM     17  C   UNL     1      -2.143  10.190  16.459  0.00  0.00    +0.000 C 
ATOM     18  N   UNL     1      -2.941  10.912  15.457  0.00  0.00    +0.000 NA
ATOM     19  C   UNL     1      -3.462   9.993  14.450  0.00  0.00    +0.000 C 
ATOM     20  C   UNL     1      -4.013  11.552  16.210  0.00  0.00    +0.000 C 
ATOM     21  N   UNL     1      -4.271  10.717  17.369  0.00  0.00    +0.000 NA
ATOM     22  C   UNL     1      -5.005  11.445  18.411  0.00  0.00    +0.000 C 
ENDROOT
BRANCH   1  24
ATOM     23  C   UNL     1      -7.773  16.141  22.528  0.00  0.00    +0.000 C 
ATOM     24  O   UNL     1      -7.052  15.026  22.987  0.00  0.00    +0.000 OA
ENDBRANCH   1  24
BRANCH   9  25
ATOM     25  O   UNL     1       0.574  12.927  18.581  0.00  0.00    +0.000 OA
ATOM     26  C   UNL     1       1.782  13.726  18.503  0.00  0.00    +0.000 C 
ENDBRANCH   9  25
BRANCH  10  27
ATOM     27  O   UNL     1       1.253  11.366  21.116  0.00  0.00    +0.000 OA
ATOM     28  C   UNL     1       1.060   9.947  20.911  0.00  0.00    +0.000 C 
ENDBRANCH  10  27
TORSDOF 3
ENDMDL
MODEL 4
REMARK VINA RESULT:      -6.3      2.469      3.574
REMARK  Name = 
REMARK  7 active torsions:
REMARK  status: ('A' for Active; 'I' for Inactive)
REMARK    1  A    between atoms: C_1  and  O_2
REMARK    2  A    between atoms: O_2  and  C_3
REMARK    3  A    between atoms: C_11  and  O_12
REMARK    4  A    between atoms: O_12  and  C_13
REMARK    5  A    between atoms: C_14  and  O_15
REMARK    6  A    between atoms: O_15  and  C_16
REMARK    7  A    between atoms: N_24  and  C_25
REMARK                            x       y       z     vdW  Elec       q    Type
REMARK                         _______ _______ _______ _____ _____    ______ ____
ROOT
ATOM      1  C   UNL     1      -5.251  11.649  18.444  0.00  0.00    +0.000 A 
ATOM      2  C   UNL     1      -5.094  12.174  19.711  0.00  0.00    +0.000 A 
ATOM      3  C   UNL     1      -3.906  12.772  19.988  0.00  0.00    +0.000 A 
ATOM      4  C   UNL     1      -2.788  12.346  19.327  0.00  0.00    +0.000 A 
ATOM      5  C   UNL     1      -1.561  12.926  19.700  0.00  0.00    +0.000 A 
ATOM      6  C   UNL     1      -0.489  12.098  19.668  0.00  0.00    +0.000 A 
ATOM      7  C   UNL     1      -0.871  10.789  19.523  0.00  0.00    +0.000 A 
ATOM      8  C   UNL     1      -0.441   9.736  20.345  0.00  0.00    +0.000 A 
ATOM      9  C   UNL     1       0.862   9.484  20.102  0.00  0.00    +0.000 A 
ATOM     10  C   UNL     1       1.069   9.285  18.734  0.00  0.00    +0.000 A 
ATOM     11  C   UNL     1      -0.108   9.598  17.823  0.00  0.00    +0.000 A 
ATOM     12  C   UNL     1      -1.328  10.497  18.316  0.00  0.00    +0.000 A 
ATOM     13  C   UNL     1      -2.768  11.292  18.364  0.00  0.00    +0.000 A 
ATOM     14  C   UNL     1      -4.103  11.239  17.717  0.00  0.00    +0.000 A 
ATOM     15  C   UNL     1       0.885  12.625  19.420  0.00  0.00    +0.000 C 
ATOM     16  C   UNL     1       1.096  14.044  19.953  0.00  0.00    +0.000 C 
ATOM     17  C   UNL     1       2.131  14.039  21.092  0.00  0.00    +0.000 C 
ATOM     18  N   UNL     1       1.480  14.625  22.274  0.00  0.00    +0.000 NA
ATOM     19  C   UNL     1       1.992  15.965  22.536  0.00  0.00    +0.000 C 
ATOM     20  C   UNL     1       0.057  14.641  21.958  0.00  0.00    +0.000 C 
ATOM     21  N   UNL     1      -0.054  14.768  20.515  0.00  0.00    +0.000 NA
ATOM     22  C   UNL     1      -1.383  14.374  20.035  0.00  0.00    +0.000 C 
ENDROOT
BRANCH   1  24
ATOM     23  C   UNL     1      -7.526  12.593  18.605  0.00  0.00    +0.000 C 
ATOM     24  O   UNL     1      -6.588  11.621  18.221  0.00  0.00    +0.000 OA
ENDBRANCH   1  24
BRANCH   9  25
ATOM     25  O   UNL     1       1.768   9.653  21.099  0.00  0.00    +0.000 OA
ATOM     26  C   UNL     1       1.276   9.255  22.405  0.00  0.00    +0.000 C 
ENDBRANCH   9  25
BRANCH  10  27
ATOM     27  O   UNL     1       2.280   8.932  18.177  0.00  0.00    +0.000 OA
ATOM     28  C   UNL     1       2.637   7.530  18.187  0.00  0.00    +0.000 C 
ENDBRANCH  10  27
TORSDOF 3
ENDMDL
MODEL 5
REMARK VINA RESULT:      -6.2      2.607      4.769
REMARK  Name = 
REMARK  7 active torsions:
REMARK  status: ('A' for Active; 'I' for Inactive)
REMARK    1  A    between atoms: C_1  and  O_2
REMARK    2  A    between atoms: O_2  and  C_3
REMARK    3  A    between atoms: C_11  and  O_12
REMARK    4  A    between atoms: O_12  and  C_13
REMARK    5  A    between atoms: C_14  and  O_15
REMARK    6  A    between atoms: O_15  and  C_16
REMARK    7  A    between atoms: N_24  and  C_25
REMARK                            x       y       z     vdW  Elec       q    Type
REMARK                         _______ _______ _______ _____ _____    ______ ____
ROOT
ATOM      1  C   UNL     1      -4.947  14.387  22.689  0.00  0.00    +0.000 A 
ATOM      2  C   UNL     1      -5.112  14.829  21.391  0.00  0.00    +0.000 A 
ATOM      3  C   UNL     1      -4.865  13.935  20.398  0.00  0.00    +0.000 A 
ATOM      4  C   UNL     1      -3.958  12.937  20.626  0.00  0.00    +0.000 A 
ATOM      5  C   UNL     1      -3.661  12.081  19.549  0.00  0.00    +0.000 A 
ATOM      6  C   UNL     1      -2.377  11.655  19.477  0.00  0.00    +0.000 A 
ATOM      7  C   UNL     1      -1.567  12.360  20.331  0.00  0.00    +0.000 A 
ATOM      8  C   UNL     1      -0.365  12.981  19.960  0.00  0.00    +0.000 A 
ATOM      9  C   UNL     1       0.564  12.037  19.703  0.00  0.00    +0.000 A 
ATOM     10  C   UNL     1       0.666  11.152  20.780  0.00  0.00    +0.000 A 
ATOM     11  C   UNL     1      -0.388  11.290  21.867  0.00  0.00    +0.000 A 
ATOM     12  C   UNL     1      -1.756  12.067  21.608  0.00  0.00    +0.000 A 
ATOM     13  C   UNL     1      -3.225  12.769  21.839  0.00  0.00    +0.000 A 
ATOM     14  C   UNL     1      -4.044  13.323  22.948  0.00  0.00    +0.000 A 
ATOM     15  C   UNL     1      -2.033  10.346  18.849  0.00  0.00    +0.000 C 
ATOM     16  C   UNL     1      -2.980   9.948  17.715  0.00  0.00    +0.000 C 
ATOM     17  C   UNL     1      -2.226   9.921  16.374  0.00  0.00    +0.000 C 
ATOM     18  N   UNL     1      -2.921  10.845  15.465  0.00  0.00    +0.000 NA
ATOM     19  C   UNL     1      -3.666  10.109  14.449  0.00  0.00    +0.000 C 
ATOM     20  C   UNL     1      -3.803  11.631  16.319  0.00  0.00    +0.000 C 
ATOM     21  N   UNL     1      -4.157  10.789  17.448  0.00  0.00    +0.000 NA
ATOM     22  C   UNL     1      -4.677  11.576  18.572  0.00  0.00    +0.000 C 
ENDROOT
BRANCH   1  24
ATOM     23  C   UNL     1      -5.323  16.317  24.181  0.00  0.00    +0.000 C 
ATOM     24  O   UNL     1      -5.731  15.188  23.451  0.00  0.00    +0.000 OA
ENDBRANCH   1  24
BRANCH   9  25
ATOM     25  O   UNL     1       1.085  11.943  18.452  0.00  0.00    +0.000 OA
ATOM     26  C   UNL     1       2.349  12.638  18.296  0.00  0.00    +0.000 C 
ENDBRANCH   9  25
BRANCH  10  27
ATOM     27  O   UNL     1       1.582  10.123  20.853  0.00  0.00    +0.000 OA
ATOM     28  C   UNL     1       1.067   8.771  20.870  0.00  0.00    +0.000 C 
ENDBRANCH  10  27
TORSDOF 3
ENDMDL
MODEL 6
REMARK VINA RESULT:      -6.1      1.061      1.216
REMARK  Name = 
REMARK  7 active torsions:
REMARK  status: ('A' for Active; 'I' for Inactive)
REMARK    1  A    between atoms: C_1  and  O_2
REMARK    2  A    between atoms: O_2  and  C_3
REMARK    3  A    between atoms: C_11  and  O_12
REMARK    4  A    between atoms: O_12  and  C_13
REMARK    5  A    between atoms: C_14  and  O_15
REMARK    6  A    between atoms: O_15  and  C_16
REMARK    7  A    between atoms: N_24  and  C_25
REMARK                            x       y       z     vdW  Elec       q    Type
REMARK                         _______ _______ _______ _____ _____    ______ ____
ROOT
ATOM      1  C   UNL     1      -6.062  12.844  21.776  0.00  0.00    +0.000 A 
ATOM      2  C   UNL     1      -4.944  12.579  22.542  0.00  0.00    +0.000 A 
ATOM      3  C   UNL     1      -3.738  12.893  22.002  0.00  0.00    +0.000 A 
ATOM      4  C   UNL     1      -3.603  12.872  20.641  0.00  0.00    +0.000 A 
ATOM      5  C   UNL     1      -2.320  13.117  20.119  0.00  0.00    +0.000 A 
ATOM      6  C   UNL     1      -1.998  12.416  19.004  0.00  0.00    +0.000 A 
ATOM      7  C   UNL     1      -2.904  11.414  18.764  0.00  0.00    +0.000 A 
ATOM      8  C   UNL     1      -2.567  10.072  18.534  0.00  0.00    +0.000 A 
ATOM      9  C   UNL     1      -1.977   9.960  17.326  0.00  0.00    +0.000 A 
ATOM     10  C   UNL     1      -2.779  10.544  16.341  0.00  0.00    +0.000 A 
ATOM     11  C   UNL     1      -3.979  11.338  16.833  0.00  0.00    +0.000 A 
ATOM     12  C   UNL     1      -4.080  11.848  18.339  0.00  0.00    +0.000 A 
ATOM     13  C   UNL     1      -4.645  12.523  19.729  0.00  0.00    +0.000 A 
ATOM     14  C   UNL     1      -5.942  12.872  20.362  0.00  0.00    +0.000 A 
ATOM     15  C   UNL     1      -1.028  12.956  18.008  0.00  0.00    +0.000 C 
ATOM     16  C   UNL     1       0.055  13.839  18.630  0.00  0.00    +0.000 C 
ATOM     17  C   UNL     1       1.436  13.180  18.478  0.00  0.00    +0.000 C 
ATOM     18  N   UNL     1       2.000  13.034  19.829  0.00  0.00    +0.000 NA
ATOM     19  C   UNL     1       3.077  13.993  20.047  0.00  0.00    +0.000 C 
ATOM     20  C   UNL     1       0.882  13.260  20.737  0.00  0.00    +0.000 C 
ATOM     21  N   UNL     1      -0.033  14.164  20.062  0.00  0.00    +0.000 NA
ATOM     22  C   UNL     1      -1.370  14.135  20.667  0.00  0.00    +0.000 C 
ENDROOT
BRANCH   1  24
ATOM     23  C   UNL     1      -7.005  13.460  23.972  0.00  0.00    +0.000 C 
ATOM     24  O   UNL     1      -7.085  12.978  22.655  0.00  0.00    +0.000 OA
ENDBRANCH   1  24
BRANCH   9  25
ATOM     25  O   UNL     1      -0.691   9.528  17.252  0.00  0.00    +0.000 OA
ATOM     26  C   UNL     1       0.054   9.712  18.484  0.00  0.00    +0.000 C 
ENDBRANCH   9  25
BRANCH  10  27
ATOM     27  O   UNL     1      -2.488  10.524  14.993  0.00  0.00    +0.000 OA
ATOM     28  C   UNL     1      -3.524  10.068  14.092  0.00  0.00    +0.000 C 
ENDBRANCH  10  27
TORSDOF 3
ENDMDL
MODEL 7
REMARK VINA RESULT:      -6.1      2.524      6.069
REMARK  Name = 
REMARK  7 active torsions:
REMARK  status: ('A' for Active; 'I' for Inactive)
REMARK    1  A    between atoms: C_1  and  O_2
REMARK    2  A    between atoms: O_2  and  C_3
REMARK    3  A    between atoms: C_11  and  O_12
REMARK    4  A    between atoms: O_12  and  C_13
REMARK    5  A    between atoms: C_14  and  O_15
REMARK    6  A    between atoms: O_15  and  C_16
REMARK    7  A    between atoms: N_24  and  C_25
REMARK                            x       y       z     vdW  Elec       q    Type
REMARK                         _______ _______ _______ _____ _____    ______ ____
ROOT
ATOM      1  C   UNL     1       1.625   8.541  19.257  0.00  0.00    +0.000 A 
ATOM      2  C   UNL     1       1.546   9.467  18.236  0.00  0.00    +0.000 A 
ATOM      3  C   UNL     1       1.588  10.779  18.588  0.00  0.00    +0.000 A 
ATOM      4  C   UNL     1       1.121  11.141  19.822  0.00  0.00    +0.000 A 
ATOM      5  C   UNL     1       1.098  12.516  20.121  0.00  0.00    +0.000 A 
ATOM      6  C   UNL     1       0.056  12.932  20.880  0.00  0.00    +0.000 A 
ATOM      7  C   UNL     1      -0.907  11.960  20.985  0.00  0.00    +0.000 A 
ATOM      8  C   UNL     1      -2.271  12.158  20.724  0.00  0.00    +0.000 A 
ATOM      9  C   UNL     1      -2.805  12.927  21.695  0.00  0.00    +0.000 A 
ATOM     10  C   UNL     1      -2.518  12.388  22.953  0.00  0.00    +0.000 A 
ATOM     11  C   UNL     1      -1.528  11.233  22.979  0.00  0.00    +0.000 A 
ATOM     12  C   UNL     1      -0.555  10.940  21.752  0.00  0.00    +0.000 A 
ATOM     13  C   UNL     1       0.568  10.236  20.777  0.00  0.00    +0.000 A 
ATOM     14  C   UNL     1       1.188   8.905  20.557  0.00  0.00    +0.000 A 
ATOM     15  C   UNL     1       0.179  14.120  21.774  0.00  0.00    +0.000 C 
ATOM     16  C   UNL     1       1.142  15.184  21.242  0.00  0.00    +0.000 C 
ATOM     17  C   UNL     1       0.377  16.475  20.903  0.00  0.00    +0.000 C 
ATOM     18  N   UNL     1       0.636  16.775  19.486  0.00  0.00    +0.000 NA
ATOM     19  C   UNL     1       1.541  17.912  19.354  0.00  0.00    +0.000 C 
ATOM     20  C   UNL     1       1.217  15.556  18.937  0.00  0.00    +0.000 C 
ATOM     21  N   UNL     1       1.915  14.894  20.025  0.00  0.00    +0.000 NA
ATOM     22  C   UNL     1       2.172  13.480  19.726  0.00  0.00    +0.000 C 
ENDROOT
BRANCH   1  24
ATOM     23  C   UNL     1       2.762   6.352  19.338  0.00  0.00    +0.000 C 
ATOM     24  O   UNL     1       2.103   7.408  18.687  0.00  0.00    +0.000 OA
ENDBRANCH   1  24
BRANCH   9  25
ATOM     25  O   UNL     1      -3.323  14.140  21.371  0.00  0.00    +0.000 OA
ATOM     26  C   UNL     1      -4.707  14.082  20.937  0.00  0.00    +0.000 C 
ENDBRANCH   9  25
BRANCH  10  27
ATOM     27  O   UNL     1      -2.989  12.902  24.142  0.00  0.00    +0.000 OA
ATOM     28  C   UNL     1      -4.366  12.625  24.489  0.00  0.00    +0.000 C 
ENDBRANCH  10  27
TORSDOF 3
ENDMDL
MODEL 8
REMARK VINA RESULT:      -6.0     10.078     12.572
REMARK  Name = 
REMARK  7 active torsions:
REMARK  status: ('A' for Active; 'I' for Inactive)
REMARK    1  A    between atoms: C_1  and  O_2
REMARK    2  A    between atoms: O_2  and  C_3
REMARK    3  A    between atoms: C_11  and  O_12
REMARK    4  A    between atoms: O_12  and  C_13
REMARK    5  A    between atoms: C_14  and  O_15
REMARK    6  A    between atoms: O_15  and  C_16
REMARK    7  A    between atoms: N_24  and  C_25
REMARK                            x       y       z     vdW  Elec       q    Type
REMARK                         _______ _______ _______ _____ _____    ______ ____
ROOT
ATOM      1  C   UNL     1       8.986   9.986  19.122  0.00  0.00    +0.000 A 
ATOM      2  C   UNL     1       8.824  10.837  18.048  0.00  0.00    +0.000 A 
ATOM      3  C   UNL     1       9.476  12.028  18.100  0.00  0.00    +0.000 A 
ATOM      4  C   UNL     1       9.733  12.581  19.324  0.00  0.00    +0.000 A 
ATOM      5  C   UNL     1      10.331  13.854  19.341  0.00  0.00    +0.000 A 
ATOM      6  C   UNL     1       9.928  14.677  20.339  0.00  0.00    +0.000 A 
ATOM      7  C   UNL     1       8.821  14.182  20.980  0.00  0.00    +0.000 A 
ATOM      8  C   UNL     1       7.644  14.908  21.215  0.00  0.00    +0.000 A 
ATOM      9  C   UNL     1       7.881  15.854  22.148  0.00  0.00    +0.000 A 
ATOM     10  C   UNL     1       8.454  15.277  23.285  0.00  0.00    +0.000 A 
ATOM     11  C   UNL     1       8.878  13.822  23.161  0.00  0.00    +0.000 A 
ATOM     12  C   UNL     1       9.071  13.128  21.740  0.00  0.00    +0.000 A 
ATOM     13  C   UNL     1       9.348  12.003  20.572  0.00  0.00    +0.000 A 
ATOM     14  C   UNL     1       9.297  10.530  20.396  0.00  0.00    +0.000 A 
ATOM     15  C   UNL     1      10.831  15.737  20.876  0.00  0.00    +0.000 C 
ATOM     16  C   UNL     1      11.792  16.305  19.830  0.00  0.00    +0.000 C 
ATOM     17  C   UNL     1      11.473  17.786  19.559  0.00  0.00    +0.000 C 
ATOM     18  N   UNL     1      11.204  17.917  18.119  0.00  0.00    +0.000 NA
ATOM     19  C   UNL     1      12.310  18.586  17.444  0.00  0.00    +0.000 C 
ATOM     20  C   UNL     1      11.021  16.553  17.638  0.00  0.00    +0.000 C 
ATOM     21  N   UNL     1      11.823  15.694  18.492  0.00  0.00    +0.000 NA
ATOM     22  C   UNL     1      11.407  14.290  18.396  0.00  0.00    +0.000 C 
ENDROOT
BRANCH   1  24
ATOM     23  C   UNL     1       7.793   8.384  17.671  0.00  0.00    +0.000 C 
ATOM     24  O   UNL     1       8.742   8.741  18.644  0.00  0.00    +0.000 OA
ENDBRANCH   1  24
BRANCH   9  25
ATOM     25  O   UNL     1       7.746  17.163  21.815  0.00  0.00    +0.000 OA
ATOM     26  C   UNL     1       6.376  17.555  21.544  0.00  0.00    +0.000 C 
ENDBRANCH   9  25
BRANCH  10  27
ATOM     27  O   UNL     1       8.743  15.970  24.442  0.00  0.00    +0.000 OA
ATOM     28  C   UNL     1       7.645  16.259  25.339  0.00  0.00    +0.000 C 
ENDBRANCH  10  27
TORSDOF 3
ENDMDL
MODEL 9
REMARK VINA RESULT:      -5.9      3.409      6.649
REMARK  Name = 
REMARK  7 active torsions:
REMARK  status: ('A' for Active; 'I' for Inactive)
REMARK    1  A    between atoms: C_1  and  O_2
REMARK    2  A    between atoms: O_2  and  C_3
REMARK    3  A    between atoms: C_11  and  O_12
REMARK    4  A    between atoms: O_12  and  C_13
REMARK    5  A    between atoms: C_14  and  O_15
REMARK    6  A    between atoms: O_15  and  C_16
REMARK    7  A    between atoms: N_24  and  C_25
REMARK                            x       y       z     vdW  Elec       q    Type
REMARK                         _______ _______ _______ _____ _____    ______ ____
ROOT
ATOM      1  C   UNL     1       1.959   8.454  18.631  0.00  0.00    +0.000 A 
ATOM      2  C   UNL     1       1.715   8.443  19.990  0.00  0.00    +0.000 A 
ATOM      3  C   UNL     1       0.896   9.411  20.478  0.00  0.00    +0.000 A 
ATOM      4  C   UNL     1       0.841  10.612  19.826  0.00  0.00    +0.000 A 
ATOM      5  C   UNL     1       0.051  11.621  20.406  0.00  0.00    +0.000 A 
ATOM      6  C   UNL     1       0.527  12.884  20.277  0.00  0.00    +0.000 A 
ATOM      7  C   UNL     1       1.821  12.887  19.825  0.00  0.00    +0.000 A 
ATOM      8  C   UNL     1       2.876  13.586  20.430  0.00  0.00    +0.000 A 
ATOM      9  C   UNL     1       2.703  14.910  20.236  0.00  0.00    +0.000 A 
ATOM     10  C   UNL     1       2.521  15.180  18.877  0.00  0.00    +0.000 A 
ATOM     11  C   UNL     1       2.340  13.974  17.970  0.00  0.00    +0.000 A 
ATOM     12  C   UNL     1       1.943  12.544  18.552  0.00  0.00    +0.000 A 
ATOM     13  C   UNL     1       1.601  10.939  18.663  0.00  0.00    +0.000 A 
ATOM     14  C   UNL     1       1.865   9.680  17.922  0.00  0.00    +0.000 A 
ATOM     15  C   UNL     1      -0.396  14.057  20.252  0.00  0.00    +0.000 C 
ATOM     16  C   UNL     1      -1.658  13.854  21.092  0.00  0.00    +0.000 C 
ATOM     17  C   UNL     1      -1.675  14.835  22.278  0.00  0.00    +0.000 C 
ATOM     18  N   UNL     1      -1.776  14.033  23.506  0.00  0.00    +0.000 NA
ATOM     19  C   UNL     1      -3.109  14.143  24.089  0.00  0.00    +0.000 C 
ATOM     20  C   UNL     1      -1.477  12.666  23.095  0.00  0.00    +0.000 C 
ATOM     21  N   UNL     1      -1.895  12.540  21.710  0.00  0.00    +0.000 NA
ATOM     22  C   UNL     1      -1.275  11.381  21.058  0.00  0.00    +0.000 C 
ENDROOT
BRANCH   1  24
ATOM     23  C   UNL     1       2.692   6.166  19.195  0.00  0.00    +0.000 C 
ATOM     24  O   UNL     1       2.298   7.182  18.309  0.00  0.00    +0.000 OA
ENDBRANCH   1  24
BRANCH   9  25
ATOM     25  O   UNL     1       2.526  15.721  21.312  0.00  0.00    +0.000 OA
ATOM     26  C   UNL     1       3.422  15.425  22.415  0.00  0.00    +0.000 C 
ENDBRANCH   9  25
BRANCH  10  27
ATOM     27  O   UNL     1       2.395  16.448  18.350  0.00  0.00    +0.000 OA
ATOM     28  C   UNL     1       1.084  17.058  18.383  0.00  0.00    +0.000 C 
ENDBRANCH  10  27
TORSDOF 3
ENDMDL
