MODEL 1
REMARK VINA RESULT:      -7.7      0.000      0.000
REMARK  Name = 
REMARK  11 active torsions:
REMARK  status: ('A' for Active; 'I' for Inactive)
REMARK    1  A    between atoms: C_1  and  O_2
REMARK    2  A    between atoms: O_2  and  C_3
REMARK    3  A    between atoms: C_3  and  C_5
REMARK    4  A    between atoms: C_5  and  C_6
REMARK    5  A    between atoms: C_5  and  N_22
REMARK    6  A    between atoms: C_6  and  C_7
REMARK    7  A    between atoms: C_10  and  O_11
REMARK    8  A    between atoms: O_11  and  C_12
REMARK    9  A    between atoms: C_12  and  C_13
REMARK   10  A    between atoms: C_13  and  C_14
REMARK   11  A    between atoms: C_23  and  C_24
REMARK                            x       y       z     vdW  Elec       q    Type
REMARK                         _______ _______ _______ _____ _____    ______ ____
ROOT
ATOM      1  C   UNL     1       2.491   6.355  18.964  0.00  0.00    +0.000 A 
ATOM      2  C   UNL     1       2.485   7.343  17.983  0.00  0.00    +0.000 A 
ATOM      3  C   UNL     1       2.021   8.626  18.268  0.00  0.00    +0.000 A 
ATOM      4  C   UNL     1       1.517   8.953  19.529  0.00  0.00    +0.000 A 
ATOM      5  C   UNL     1       1.523   7.972  20.522  0.00  0.00    +0.000 A 
ATOM      6  C   UNL     1       2.006   6.681  20.238  0.00  0.00    +0.000 A 
ENDROOT
BRANCH   1   7
ATOM      7  C   UNL     1       2.915   4.935  18.647  0.00  0.00    +0.000 C 
BRANCH   7   8
ATOM      8  C   UNL     1       4.191   4.411  19.340  0.00  0.00    +0.000 C 
BRANCH   8   9
ATOM      9  N   UNL     1       5.324   4.326  18.408  0.00  0.00    +0.000 N 
ATOM     10  C   UNL     1       6.560   4.832  18.714  0.00  0.00    +0.000 C 
ATOM     11  C   UNL     1       7.595   4.647  17.639  0.00  0.00    +0.000 C 
ATOM     12  O   UNL     1       6.811   5.409  19.768  0.00  0.00    +0.000 OA
ATOM     13  H   UNL     1       5.157   3.902  17.501  0.00  0.00    +0.000 HD
ENDBRANCH   8   9
BRANCH   8  14
ATOM     14  C   UNL     1       3.955   3.003  19.890  0.00  0.00    +0.000 C 
ATOM     15  O   UNL     1       4.860   2.208  20.142  0.00  0.00    +0.000 OA
BRANCH  14  17
ATOM     16  C   UNL     1       2.269   2.824  21.511  0.00  0.00    +0.000 C 
ATOM     17  O   UNL     1       2.633   2.780  20.128  0.00  0.00    +0.000 OA
ENDBRANCH  14  17
ENDBRANCH   8  14
ENDBRANCH   7   8
ENDBRANCH   1   7
BRANCH   4  18
ATOM     18  O   UNL     1       0.994  10.187  19.856  0.00  0.00    +0.000 OA
BRANCH  18  19
ATOM     19  C   UNL     1       0.117  10.714  18.850  0.00  0.00    +0.000 C 
BRANCH  19  20
ATOM     20  C   UNL     1      -1.338  10.796  19.300  0.00  0.00    +0.000 C 
BRANCH  20  21
ATOM     21  C   UNL     1      -2.244  10.714  18.087  0.00  0.00    +0.000 A 
ATOM     22  C   UNL     1      -1.887   9.922  16.985  0.00  0.00    +0.000 A 
ATOM     23  C   UNL     1      -2.691   9.893  15.840  0.00  0.00    +0.000 A 
ATOM     24  C   UNL     1      -3.851  10.660  15.781  0.00  0.00    +0.000 A 
ATOM     25  C   UNL     1      -4.207  11.463  16.862  0.00  0.00    +0.000 A 
ATOM     26  C   UNL     1      -3.406  11.494  18.007  0.00  0.00    +0.000 A 
ENDBRANCH  20  21
ENDBRANCH  19  20
ENDBRANCH  18  19
ENDBRANCH   4  18
TORSDOF 9
ENDMDL
MODEL 2
REMARK VINA RESULT:      -7.5      4.475      8.330
REMARK  Name = 
REMARK  11 active torsions:
REMARK  status: ('A' for Active; 'I' for Inactive)
REMARK    1  A    between atoms: C_1  and  O_2
REMARK    2  A    between atoms: O_2  and  C_3
REMARK    3  A    between atoms: C_3  and  C_5
REMARK    4  A    between atoms: C_5  and  C_6
REMARK    5  A    between atoms: C_5  and  N_22
REMARK    6  A    between atoms: C_6  and  C_7
REMARK    7  A    between atoms: C_10  and  O_11
REMARK    8  A    between atoms: O_11  and  C_12
REMARK    9  A    between atoms: C_12  and  C_13
REMARK   10  A    between atoms: C_13  and  C_14
REMARK   11  A    between atoms: C_23  and  C_24
REMARK                            x       y       z     vdW  Elec       q    Type
REMARK                         _______ _______ _______ _____ _____    ______ ____
ROOT
ATOM      1  C   UNL     1       5.220   5.162  18.671  0.00  0.00    +0.000 A 
ATOM      2  C   UNL     1       4.878   5.907  17.546  0.00  0.00    +0.000 A 
ATOM      3  C   UNL     1       5.771   6.828  17.004  0.00  0.00    +0.000 A 
ATOM      4  C   UNL     1       7.019   7.060  17.587  0.00  0.00    +0.000 A 
ATOM      5  C   UNL     1       7.375   6.315  18.713  0.00  0.00    +0.000 A 
ATOM      6  C   UNL     1       6.478   5.374  19.251  0.00  0.00    +0.000 A 
ENDROOT
BRANCH   1   7
ATOM      7  C   UNL     1       4.228   4.217  19.319  0.00  0.00    +0.000 C 
BRANCH   7   8
ATOM      8  C   UNL     1       2.735   4.598  19.235  0.00  0.00    +0.000 C 
BRANCH   8   9
ATOM      9  N   UNL     1       2.373   5.617  20.231  0.00  0.00    +0.000 N 
ATOM     10  C   UNL     1       2.100   6.914  19.881  0.00  0.00    +0.000 C 
ATOM     11  C   UNL     1       1.744   7.810  21.035  0.00  0.00    +0.000 C 
ATOM     12  O   UNL     1       2.156   7.328  18.727  0.00  0.00    +0.000 OA
ATOM     13  H   UNL     1       2.361   5.338  21.207  0.00  0.00    +0.000 HD
ENDBRANCH   8   9
BRANCH   8  14
ATOM     14  C   UNL     1       1.859   3.373  19.508  0.00  0.00    +0.000 C 
ATOM     15  O   UNL     1       0.857   3.092  18.853  0.00  0.00    +0.000 OA
BRANCH  14  17
ATOM     16  C   UNL     1       1.585   2.598  21.705  0.00  0.00    +0.000 C 
ATOM     17  O   UNL     1       2.374   2.611  20.511  0.00  0.00    +0.000 OA
ENDBRANCH  14  17
ENDBRANCH   8  14
ENDBRANCH   7   8
ENDBRANCH   1   7
BRANCH   4  18
ATOM     18  O   UNL     1       7.924   7.996  17.131  0.00  0.00    +0.000 OA
BRANCH  18  19
ATOM     19  C   UNL     1       8.522   8.765  18.185  0.00  0.00    +0.000 C 
BRANCH  19  20
ATOM     20  C   UNL     1       8.465  10.269  17.943  0.00  0.00    +0.000 C 
BRANCH  20  21
ATOM     21  C   UNL     1       9.652  10.931  18.615  0.00  0.00    +0.000 A 
ATOM     22  C   UNL     1       9.658  11.144  20.001  0.00  0.00    +0.000 A 
ATOM     23  C   UNL     1      10.725  11.808  20.615  0.00  0.00    +0.000 A 
ATOM     24  C   UNL     1      11.791  12.274  19.850  0.00  0.00    +0.000 A 
ATOM     25  C   UNL     1      11.790  12.084  18.470  0.00  0.00    +0.000 A 
ATOM     26  C   UNL     1      10.725  11.419  17.854  0.00  0.00    +0.000 A 
ENDBRANCH  20  21
ENDBRANCH  19  20
ENDBRANCH  18  19
ENDBRANCH   4  18
TORSDOF 9
ENDMDL
MODEL 3
REMARK VINA RESULT:      -7.4      5.094      8.444
REMARK  Name = 
REMARK  11 active torsions:
REMARK  status: ('A' for Active; 'I' for Inactive)
REMARK    1  A    between atoms: C_1  and  O_2
REMARK    2  A    between atoms: O_2  and  C_3
REMARK    3  A    between atoms: C_3  and  C_5
REMARK    4  A    between atoms: C_5  and  C_6
REMARK    5  A    between atoms: C_5  and  N_22
REMARK    6  A    between atoms: C_6  and  C_7
REMARK    7  A    between atoms: C_10  and  O_11
REMARK    8  A    between atoms: O_11  and  C_12
REMARK    9  A    between atoms: C_12  and  C_13
REMARK   10  A    between atoms: C_13  and  C_14
REMARK   11  A    between atoms: C_23  and  C_24
REMARK                            x       y       z     vdW  Elec       q    Type
REMARK                         _______ _______ _______ _____ _____    ______ ____
ROOT
ATOM      1  C   UNL     1       5.651   4.867  18.793  0.00  0.00    +0.000 A 
ATOM      2  C   UNL     1       6.970   5.150  19.138  0.00  0.00    +0.000 A 
ATOM      3  C   UNL     1       7.612   6.278  18.633  0.00  0.00    +0.000 A 
ATOM      4  C   UNL     1       6.970   7.141  17.742  0.00  0.00    +0.000 A 
ATOM      5  C   UNL     1       5.646   6.871  17.393  0.00  0.00    +0.000 A 
ATOM      6  C   UNL     1       4.993   5.739  17.915  0.00  0.00    +0.000 A 
ENDROOT
BRANCH   1   7
ATOM      7  C   UNL     1       4.968   3.601  19.269  0.00  0.00    +0.000 C 
BRANCH   7   8
ATOM      8  C   UNL     1       3.438   3.515  19.082  0.00  0.00    +0.000 C 
BRANCH   8   9
ATOM      9  N   UNL     1       2.783   2.858  20.223  0.00  0.00    +0.000 N 
ATOM     10  C   UNL     1       1.909   3.522  21.043  0.00  0.00    +0.000 C 
ATOM     11  C   UNL     1       1.335   2.685  22.153  0.00  0.00    +0.000 C 
ATOM     12  O   UNL     1       1.623   4.707  20.907  0.00  0.00    +0.000 OA
ATOM     13  H   UNL     1       3.024   1.890  20.410  0.00  0.00    +0.000 HD
ENDBRANCH   8   9
BRANCH   8  14
ATOM     14  C   UNL     1       3.102   2.691  17.837  0.00  0.00    +0.000 C 
ATOM     15  O   UNL     1       3.360   1.495  17.720  0.00  0.00    +0.000 OA
BRANCH  14  17
ATOM     16  C   UNL     1       1.420   4.287  17.481  0.00  0.00    +0.000 C 
ATOM     17  O   UNL     1       2.424   3.436  16.920  0.00  0.00    +0.000 OA
ENDBRANCH  14  17
ENDBRANCH   8  14
ENDBRANCH   7   8
ENDBRANCH   1   7
BRANCH   4  18
ATOM     18  O   UNL     1       7.569   8.243  17.165  0.00  0.00    +0.000 OA
BRANCH  18  19
ATOM     19  C   UNL     1       8.494   8.906  18.040  0.00  0.00    +0.000 C 
BRANCH  19  20
ATOM     20  C   UNL     1       8.396  10.426  17.981  0.00  0.00    +0.000 C 
BRANCH  20  21
ATOM     21  C   UNL     1       9.630  11.033  18.620  0.00  0.00    +0.000 A 
ATOM     22  C   UNL     1       9.685  11.239  20.007  0.00  0.00    +0.000 A 
ATOM     23  C   UNL     1      10.797  11.854  20.592  0.00  0.00    +0.000 A 
ATOM     24  C   UNL     1      11.859  12.277  19.797  0.00  0.00    +0.000 A 
ATOM     25  C   UNL     1      11.810  12.093  18.417  0.00  0.00    +0.000 A 
ATOM     26  C   UNL     1      10.700  11.478  17.830  0.00  0.00    +0.000 A 
ENDBRANCH  20  21
ENDBRANCH  19  20
ENDBRANCH  18  19
ENDBRANCH   4  18
TORSDOF 9
ENDMDL
MODEL 4
REMARK VINA RESULT:      -7.4      4.594      8.386
REMARK  Name = 
REMARK  11 active torsions:
REMARK  status: ('A' for Active; 'I' for Inactive)
REMARK    1  A    between atoms: C_1  and  O_2
REMARK    2  A    between atoms: O_2  and  C_3
REMARK    3  A    between atoms: C_3  and  C_5
REMARK    4  A    between atoms: C_5  and  C_6
REMARK    5  A    between atoms: C_5  and  N_22
REMARK    6  A    between atoms: C_6  and  C_7
REMARK    7  A    between atoms: C_10  and  O_11
REMARK    8  A    between atoms: O_11  and  C_12
REMARK    9  A    between atoms: C_12  and  C_13
REMARK   10  A    between atoms: C_13  and  C_14
REMARK   11  A    between atoms: C_23  and  C_24
REMARK                            x       y       z     vdW  Elec       q    Type
REMARK                         _______ _______ _______ _____ _____    ______ ____
ROOT
ATOM      1  C   UNL     1       5.406   5.263  18.437  0.00  0.00    +0.000 A 
ATOM      2  C   UNL     1       5.123   6.114  17.373  0.00  0.00    +0.000 A 
ATOM      3  C   UNL     1       6.052   7.063  16.953  0.00  0.00    +0.000 A 
ATOM      4  C   UNL     1       7.278   7.216  17.603  0.00  0.00    +0.000 A 
ATOM      5  C   UNL     1       7.577   6.365  18.668  0.00  0.00    +0.000 A 
ATOM      6  C   UNL     1       6.644   5.396  19.083  0.00  0.00    +0.000 A 
ENDROOT
BRANCH   1   7
ATOM      7  C   UNL     1       4.374   4.282  18.957  0.00  0.00    +0.000 C 
BRANCH   7   8
ATOM      8  C   UNL     1       2.889   4.661  18.773  0.00  0.00    +0.000 C 
BRANCH   8   9
ATOM      9  N   UNL     1       2.442   5.629  19.785  0.00  0.00    +0.000 N 
ATOM     10  C   UNL     1       2.176   6.937  19.476  0.00  0.00    +0.000 C 
ATOM     11  C   UNL     1       1.725   7.775  20.641  0.00  0.00    +0.000 C 
ATOM     12  O   UNL     1       2.308   7.405  18.350  0.00  0.00    +0.000 OA
ATOM     13  H   UNL     1       2.364   5.305  20.744  0.00  0.00    +0.000 HD
ENDBRANCH   8   9
BRANCH   8  14
ATOM     14  C   UNL     1       2.004   3.421  18.916  0.00  0.00    +0.000 C 
ATOM     15  O   UNL     1       1.076   3.154  18.154  0.00  0.00    +0.000 OA
BRANCH  14  17
ATOM     16  C   UNL     1       1.561   2.637  21.082  0.00  0.00    +0.000 C 
ATOM     17  O   UNL     1       2.424   2.630  19.941  0.00  0.00    +0.000 OA
ENDBRANCH  14  17
ENDBRANCH   8  14
ENDBRANCH   7   8
ENDBRANCH   1   7
BRANCH   4  18
ATOM     18  O   UNL     1       8.216   8.172  17.271  0.00  0.00    +0.000 OA
BRANCH  18  19
ATOM     19  C   UNL     1       8.393   9.169  18.288  0.00  0.00    +0.000 C 
BRANCH  19  20
ATOM     20  C   UNL     1       8.644  10.565  17.728  0.00  0.00    +0.000 C 
BRANCH  20  21
ATOM     21  C   UNL     1       9.791  11.209  18.481  0.00  0.00    +0.000 A 
ATOM     22  C   UNL     1      10.930  11.657  17.796  0.00  0.00    +0.000 A 
ATOM     23  C   UNL     1      12.016  12.196  18.495  0.00  0.00    +0.000 A 
ATOM     24  C   UNL     1      11.978  12.283  19.883  0.00  0.00    +0.000 A 
ATOM     25  C   UNL     1      10.860  11.826  20.577  0.00  0.00    +0.000 A 
ATOM     26  C   UNL     1       9.774  11.288  19.881  0.00  0.00    +0.000 A 
ENDBRANCH  20  21
ENDBRANCH  19  20
ENDBRANCH  18  19
ENDBRANCH   4  18
TORSDOF 9
ENDMDL
MODEL 5
REMARK VINA RESULT:      -7.3      3.517      8.490
REMARK  Name = 
REMARK  11 active torsions:
REMARK  status: ('A' for Active; 'I' for Inactive)
REMARK    1  A    between atoms: C_1  and  O_2
REMARK    2  A    between atoms: O_2  and  C_3
REMARK    3  A    between atoms: C_3  and  C_5
REMARK    4  A    between atoms: C_5  and  C_6
REMARK    5  A    between atoms: C_5  and  N_22
REMARK    6  A    between atoms: C_6  and  C_7
REMARK    7  A    between atoms: C_10  and  O_11
REMARK    8  A    between atoms: O_11  and  C_12
REMARK    9  A    between atoms: C_12  and  C_13
REMARK   10  A    between atoms: C_13  and  C_14
REMARK   11  A    between atoms: C_23  and  C_24
REMARK                            x       y       z     vdW  Elec       q    Type
REMARK                         _______ _______ _______ _____ _____    ______ ____
ROOT
ATOM      1  C   UNL     1       1.460   8.803  19.263  0.00  0.00    +0.000 A 
ATOM      2  C   UNL     1       1.682   7.766  20.166  0.00  0.00    +0.000 A 
ATOM      3  C   UNL     1       2.571   6.737  19.862  0.00  0.00    +0.000 A 
ATOM      4  C   UNL     1       3.238   6.691  18.637  0.00  0.00    +0.000 A 
ATOM      5  C   UNL     1       3.028   7.728  17.726  0.00  0.00    +0.000 A 
ATOM      6  C   UNL     1       2.142   8.775  18.039  0.00  0.00    +0.000 A 
ENDROOT
BRANCH   1   7
ATOM      7  C   UNL     1       0.436   9.885  19.545  0.00  0.00    +0.000 C 
BRANCH   7   8
ATOM      8  C   UNL     1       0.739  10.854  20.707  0.00  0.00    +0.000 C 
BRANCH   8   9
ATOM      9  N   UNL     1      -0.490  11.330  21.357  0.00  0.00    +0.000 N 
ATOM     10  C   UNL     1      -0.784  11.039  22.664  0.00  0.00    +0.000 C 
ATOM     11  C   UNL     1      -2.082  11.617  23.156  0.00  0.00    +0.000 C 
ATOM     12  O   UNL     1      -0.065  10.350  23.380  0.00  0.00    +0.000 OA
ATOM     13  H   UNL     1      -1.145  11.863  20.794  0.00  0.00    +0.000 HD
ENDBRANCH   8   9
BRANCH   8  14
ATOM     14  C   UNL     1       1.480  12.089  20.189  0.00  0.00    +0.000 C 
ATOM     15  O   UNL     1       1.546  12.395  19.000  0.00  0.00    +0.000 OA
BRANCH  14  17
ATOM     16  C   UNL     1       1.743  14.234  21.100  0.00  0.00    +0.000 C 
ATOM     17  O   UNL     1       1.984  12.829  21.214  0.00  0.00    +0.000 OA
ENDBRANCH  14  17
ENDBRANCH   8  14
ENDBRANCH   7   8
ENDBRANCH   1   7
BRANCH   4  18
ATOM     18  O   UNL     1       4.087   5.672  18.255  0.00  0.00    +0.000 OA
BRANCH  18  19
ATOM     19  C   UNL     1       3.503   4.779  17.296  0.00  0.00    +0.000 C 
BRANCH  19  20
ATOM     20  C   UNL     1       3.575   3.314  17.713  0.00  0.00    +0.000 C 
BRANCH  20  21
ATOM     21  C   UNL     1       2.783   3.117  18.991  0.00  0.00    +0.000 A 
ATOM     22  C   UNL     1       1.402   3.358  19.017  0.00  0.00    +0.000 A 
ATOM     23  C   UNL     1       0.679   3.236  20.209  0.00  0.00    +0.000 A 
ATOM     24  C   UNL     1       1.331   2.881  21.387  0.00  0.00    +0.000 A 
ATOM     25  C   UNL     1       2.705   2.654  21.378  0.00  0.00    +0.000 A 
ATOM     26  C   UNL     1       3.430   2.775  20.188  0.00  0.00    +0.000 A 
ENDBRANCH  20  21
ENDBRANCH  19  20
ENDBRANCH  18  19
ENDBRANCH   4  18
TORSDOF 9
ENDMDL
MODEL 6
REMARK VINA RESULT:      -7.2      0.676      1.322
REMARK  Name = 
REMARK  11 active torsions:
REMARK  status: ('A' for Active; 'I' for Inactive)
REMARK    1  A    between atoms: C_1  and  O_2
REMARK    2  A    between atoms: O_2  and  C_3
REMARK    3  A    between atoms: C_3  and  C_5
REMARK    4  A    between atoms: C_5  and  C_6
REMARK    5  A    between atoms: C_5  and  N_22
REMARK    6  A    between atoms: C_6  and  C_7
REMARK    7  A    between atoms: C_10  and  O_11
REMARK    8  A    between atoms: O_11  and  C_12
REMARK    9  A    between atoms: C_12  and  C_13
REMARK   10  A    between atoms: C_13  and  C_14
REMARK   11  A    between atoms: C_23  and  C_24
REMARK                            x       y       z     vdW  Elec       q    Type
REMARK                         _______ _______ _______ _____ _____    ______ ____
ROOT
ATOM      1  C   UNL     1       2.673   5.791  18.840  0.00  0.00    +0.000 A 
ATOM      2  C   UNL     1       2.115   6.086  20.081  0.00  0.00    +0.000 A 
ATOM      3  C   UNL     1       1.656   7.370  20.368  0.00  0.00    +0.000 A 
ATOM      4  C   UNL     1       1.770   8.406  19.439  0.00  0.00    +0.000 A 
ATOM      5  C   UNL     1       2.321   8.121  18.189  0.00  0.00    +0.000 A 
ATOM      6  C   UNL     1       2.772   6.821  17.895  0.00  0.00    +0.000 A 
ENDROOT
BRANCH   1   7
ATOM      7  C   UNL     1       3.251   4.422  18.543  0.00  0.00    +0.000 C 
BRANCH   7   8
ATOM      8  C   UNL     1       4.451   3.965  19.400  0.00  0.00    +0.000 C 
BRANCH   8   9
ATOM      9  N   UNL     1       5.669   3.803  18.593  0.00  0.00    +0.000 N 
ATOM     10  C   UNL     1       6.496   4.856  18.301  0.00  0.00    +0.000 C 
ATOM     11  C   UNL     1       7.695   4.496  17.469  0.00  0.00    +0.000 C 
ATOM     12  O   UNL     1       6.278   6.006  18.667  0.00  0.00    +0.000 OA
ATOM     13  H   UNL     1       5.869   2.879  18.223  0.00  0.00    +0.000 HD
ENDBRANCH   8   9
BRANCH   8  14
ATOM     14  C   UNL     1       4.156   2.608  20.045  0.00  0.00    +0.000 C 
ATOM     15  O   UNL     1       5.027   1.809  20.380  0.00  0.00    +0.000 OA
BRANCH  14  17
ATOM     16  C   UNL     1       2.403   2.720  21.600  0.00  0.00    +0.000 C 
ATOM     17  O   UNL     1       2.822   2.444  20.260  0.00  0.00    +0.000 OA
ENDBRANCH  14  17
ENDBRANCH   8  14
ENDBRANCH   7   8
ENDBRANCH   1   7
BRANCH   4  18
ATOM     18  O   UNL     1       1.384   9.709  19.682  0.00  0.00    +0.000 OA
BRANCH  18  19
ATOM     19  C   UNL     1       0.003   9.955  19.381  0.00  0.00    +0.000 C 
BRANCH  19  20
ATOM     20  C   UNL     1      -0.287  10.017  17.885  0.00  0.00    +0.000 C 
BRANCH  20  21
ATOM     21  C   UNL     1      -1.728  10.441  17.671  0.00  0.00    +0.000 A 
ATOM     22  C   UNL     1      -2.382  10.155  16.464  0.00  0.00    +0.000 A 
ATOM     23  C   UNL     1      -3.690  10.597  16.240  0.00  0.00    +0.000 A 
ATOM     24  C   UNL     1      -4.352  11.337  17.215  0.00  0.00    +0.000 A 
ATOM     25  C   UNL     1      -3.709  11.643  18.412  0.00  0.00    +0.000 A 
ATOM     26  C   UNL     1      -2.401  11.201  18.638  0.00  0.00    +0.000 A 
ENDBRANCH  20  21
ENDBRANCH  19  20
ENDBRANCH  18  19
ENDBRANCH   4  18
TORSDOF 9
ENDMDL
MODEL 7
REMARK VINA RESULT:      -7.2      1.447      2.036
REMARK  Name = 
REMARK  11 active torsions:
REMARK  status: ('A' for Active; 'I' for Inactive)
REMARK    1  A    between atoms: C_1  and  O_2
REMARK    2  A    between atoms: O_2  and  C_3
REMARK    3  A    between atoms: C_3  and  C_5
REMARK    4  A    between atoms: C_5  and  C_6
REMARK    5  A    between atoms: C_5  and  N_22
REMARK    6  A    between atoms: C_6  and  C_7
REMARK    7  A    between atoms: C_10  and  O_11
REMARK    8  A    between atoms: O_11  and  C_12
REMARK    9  A    between atoms: C_12  and  C_13
REMARK   10  A    between atoms: C_13  and  C_14
REMARK   11  A    between atoms: C_23  and  C_24
REMARK                            x       y       z     vdW  Elec       q    Type
REMARK                         _______ _______ _______ _____ _____    ______ ____
ROOT
ATOM      1  C   UNL     1       2.304   6.685  18.412  0.00  0.00    +0.000 A 
ATOM      2  C   UNL     1       2.097   6.894  19.773  0.00  0.00    +0.000 A 
ATOM      3  C   UNL     1       1.694   8.140  20.248  0.00  0.00    +0.000 A 
ATOM      4  C   UNL     1       1.520   9.224  19.386  0.00  0.00    +0.000 A 
ATOM      5  C   UNL     1       1.719   9.026  18.019  0.00  0.00    +0.000 A 
ATOM      6  C   UNL     1       2.111   7.763  17.538  0.00  0.00    +0.000 A 
ENDROOT
BRANCH   1   7
ATOM      7  C   UNL     1       2.821   5.359  17.890  0.00  0.00    +0.000 C 
BRANCH   7   8
ATOM      8  C   UNL     1       4.344   5.122  17.957  0.00  0.00    +0.000 C 
BRANCH   8   9
ATOM      9  N   UNL     1       4.894   4.723  16.653  0.00  0.00    +0.000 N 
ATOM     10  C   UNL     1       5.561   5.604  15.842  0.00  0.00    +0.000 C 
ATOM     11  C   UNL     1       6.055   5.013  14.551  0.00  0.00    +0.000 C 
ATOM     12  O   UNL     1       5.733   6.785  16.126  0.00  0.00    +0.000 OA
ATOM     13  H   UNL     1       4.736   3.768  16.348  0.00  0.00    +0.000 HD
ENDBRANCH   8   9
BRANCH   8  14
ATOM     14  C   UNL     1       4.663   3.995  18.942  0.00  0.00    +0.000 C 
ATOM     15  O   UNL     1       5.727   3.903  19.551  0.00  0.00    +0.000 OA
BRANCH  14  17
ATOM     16  C   UNL     1       3.392   2.727  20.451  0.00  0.00    +0.000 C 
ATOM     17  O   UNL     1       3.597   3.165  19.104  0.00  0.00    +0.000 OA
ENDBRANCH  14  17
ENDBRANCH   8  14
ENDBRANCH   7   8
ENDBRANCH   1   7
BRANCH   4  18
ATOM     18  O   UNL     1       1.176  10.495  19.801  0.00  0.00    +0.000 OA
BRANCH  18  19
ATOM     19  C   UNL     1       0.169  11.104  18.980  0.00  0.00    +0.000 C 
BRANCH  19  20
ATOM     20  C   UNL     1      -1.251  10.714  19.377  0.00  0.00    +0.000 C 
BRANCH  20  21
ATOM     21  C   UNL     1      -2.139  10.734  18.148  0.00  0.00    +0.000 A 
ATOM     22  C   UNL     1      -3.303  11.516  18.123  0.00  0.00    +0.000 A 
ATOM     23  C   UNL     1      -4.155  11.491  17.014  0.00  0.00    +0.000 A 
ATOM     24  C   UNL     1      -3.858  10.677  15.924  0.00  0.00    +0.000 A 
ATOM     25  C   UNL     1      -2.714   9.882  15.943  0.00  0.00    +0.000 A 
ATOM     26  C   UNL     1      -1.860   9.907  17.050  0.00  0.00    +0.000 A 
ENDBRANCH  20  21
ENDBRANCH  19  20
ENDBRANCH  18  19
ENDBRANCH   4  18
TORSDOF 9
ENDMDL
MODEL 8
REMARK VINA RESULT:      -7.2      3.288      8.298
REMARK  Name = 
REMARK  11 active torsions:
REMARK  status: ('A' for Active; 'I' for Inactive)
REMARK    1  A    between atoms: C_1  and  O_2
REMARK    2  A    between atoms: O_2  and  C_3
REMARK    3  A    between atoms: C_3  and  C_5
REMARK    4  A    between atoms: C_5  and  C_6
REMARK    5  A    between atoms: C_5  and  N_22
REMARK    6  A    between atoms: C_6  and  C_7
REMARK    7  A    between atoms: C_10  and  O_11
REMARK    8  A    between atoms: O_11  and  C_12
REMARK    9  A    between atoms: C_12  and  C_13
REMARK   10  A    between atoms: C_13  and  C_14
REMARK   11  A    between atoms: C_23  and  C_24
REMARK                            x       y       z     vdW  Elec       q    Type
REMARK                         _______ _______ _______ _____ _____    ______ ____
ROOT
ATOM      1  C   UNL     1       1.755   8.562  18.774  0.00  0.00    +0.000 A 
ATOM      2  C   UNL     1       1.838   7.610  19.787  0.00  0.00    +0.000 A 
ATOM      3  C   UNL     1       2.738   6.551  19.697  0.00  0.00    +0.000 A 
ATOM      4  C   UNL     1       3.559   6.389  18.579  0.00  0.00    +0.000 A 
ATOM      5  C   UNL     1       3.489   7.340  17.559  0.00  0.00    +0.000 A 
ATOM      6  C   UNL     1       2.590   8.418  17.658  0.00  0.00    +0.000 A 
ENDROOT
BRANCH   1   7
ATOM      7  C   UNL     1       0.724   9.672  18.821  0.00  0.00    +0.000 C 
BRANCH   7   8
ATOM      8  C   UNL     1       0.907  10.757  19.903  0.00  0.00    +0.000 C 
BRANCH   8   9
ATOM      9  N   UNL     1      -0.062  10.608  20.997  0.00  0.00    +0.000 N 
ATOM     10  C   UNL     1       0.294  10.114  22.225  0.00  0.00    +0.000 C 
ATOM     11  C   UNL     1      -0.832  10.040  23.219  0.00  0.00    +0.000 C 
ATOM     12  O   UNL     1       1.430   9.742  22.499  0.00  0.00    +0.000 OA
ATOM     13  H   UNL     1      -1.029  10.855  20.808  0.00  0.00    +0.000 HD
ENDBRANCH   8   9
BRANCH   8  14
ATOM     14  C   UNL     1       0.694  12.148  19.301  0.00  0.00    +0.000 C 
ATOM     15  O   UNL     1       1.536  12.734  18.624  0.00  0.00    +0.000 OA
BRANCH  14  17
ATOM     16  C   UNL     1      -0.671  14.033  19.594  0.00  0.00    +0.000 C 
ATOM     17  O   UNL     1      -0.563  12.607  19.552  0.00  0.00    +0.000 OA
ENDBRANCH  14  17
ENDBRANCH   8  14
ENDBRANCH   7   8
ENDBRANCH   1   7
BRANCH   4  18
ATOM     18  O   UNL     1       4.431   5.333  18.405  0.00  0.00    +0.000 OA
BRANCH  18  19
ATOM     19  C   UNL     1       4.094   4.500  17.287  0.00  0.00    +0.000 C 
BRANCH  19  20
ATOM     20  C   UNL     1       3.880   3.038  17.666  0.00  0.00    +0.000 C 
BRANCH  20  21
ATOM     21  C   UNL     1       2.942   2.960  18.855  0.00  0.00    +0.000 A 
ATOM     22  C   UNL     1       1.566   3.177  18.692  0.00  0.00    +0.000 A 
ATOM     23  C   UNL     1       0.707   3.165  19.796  0.00  0.00    +0.000 A 
ATOM     24  C   UNL     1       1.216   2.948  21.074  0.00  0.00    +0.000 A 
ATOM     25  C   UNL     1       2.583   2.748  21.251  0.00  0.00    +0.000 A 
ATOM     26  C   UNL     1       3.443   2.758  20.149  0.00  0.00    +0.000 A 
ENDBRANCH  20  21
ENDBRANCH  19  20
ENDBRANCH  18  19
ENDBRANCH   4  18
TORSDOF 9
ENDMDL
MODEL 9
REMARK VINA RESULT:      -7.1      1.656      2.678
REMARK  Name = 
REMARK  11 active torsions:
REMARK  status: ('A' for Active; 'I' for Inactive)
REMARK    1  A    between atoms: C_1  and  O_2
REMARK    2  A    between atoms: O_2  and  C_3
REMARK    3  A    between atoms: C_3  and  C_5
REMARK    4  A    between atoms: C_5  and  C_6
REMARK    5  A    between atoms: C_5  and  N_22
REMARK    6  A    between atoms: C_6  and  C_7
REMARK    7  A    between atoms: C_10  and  O_11
REMARK    8  A    between atoms: O_11  and  C_12
REMARK    9  A    between atoms: C_12  and  C_13
REMARK   10  A    between atoms: C_13  and  C_14
REMARK   11  A    between atoms: C_23  and  C_24
REMARK                            x       y       z     vdW  Elec       q    Type
REMARK                         _______ _______ _______ _____ _____    ______ ____
ROOT
ATOM      1  C   UNL     1       2.883   6.523  18.549  0.00  0.00    +0.000 A 
ATOM      2  C   UNL     1       2.210   6.843  19.725  0.00  0.00    +0.000 A 
ATOM      3  C   UNL     1       1.650   8.106  19.903  0.00  0.00    +0.000 A 
ATOM      4  C   UNL     1       1.773   9.099  18.929  0.00  0.00    +0.000 A 
ATOM      5  C   UNL     1       2.441   8.788  17.743  0.00  0.00    +0.000 A 
ATOM      6  C   UNL     1       2.994   7.508  17.558  0.00  0.00    +0.000 A 
ENDROOT
BRANCH   1   7
ATOM      7  C   UNL     1       3.568   5.182  18.375  0.00  0.00    +0.000 C 
BRANCH   7   8
ATOM      8  C   UNL     1       5.024   5.197  17.863  0.00  0.00    +0.000 C 
BRANCH   8   9
ATOM      9  N   UNL     1       5.151   4.545  16.552  0.00  0.00    +0.000 N 
ATOM     10  C   UNL     1       5.537   5.232  15.430  0.00  0.00    +0.000 C 
ATOM     11  C   UNL     1       5.615   4.397  14.182  0.00  0.00    +0.000 C 
ATOM     12  O   UNL     1       5.784   6.434  15.427  0.00  0.00    +0.000 OA
ATOM     13  H   UNL     1       4.910   3.561  16.490  0.00  0.00    +0.000 HD
ENDBRANCH   8   9
BRANCH   8  14
ATOM     14  C   UNL     1       5.934   4.437  18.832  0.00  0.00    +0.000 C 
ATOM     15  O   UNL     1       5.526   3.606  19.641  0.00  0.00    +0.000 OA
BRANCH  14  17
ATOM     16  C   UNL     1       7.521   6.152  18.624  0.00  0.00    +0.000 C 
ATOM     17  O   UNL     1       7.243   4.749  18.626  0.00  0.00    +0.000 OA
ENDBRANCH  14  17
ENDBRANCH   8  14
ENDBRANCH   7   8
ENDBRANCH   1   7
BRANCH   4  18
ATOM     18  O   UNL     1       1.289  10.384  19.069  0.00  0.00    +0.000 OA
BRANCH  18  19
ATOM     19  C   UNL     1      -0.141  10.463  18.963  0.00  0.00    +0.000 C 
BRANCH  19  20
ATOM     20  C   UNL     1      -0.694   9.772  17.721  0.00  0.00    +0.000 C 
BRANCH  20  21
ATOM     21  C   UNL     1      -2.055  10.352  17.389  0.00  0.00    +0.000 A 
ATOM     22  C   UNL     1      -2.545  10.311  16.075  0.00  0.00    +0.000 A 
ATOM     23  C   UNL     1      -3.773  10.898  15.754  0.00  0.00    +0.000 A 
ATOM     24  C   UNL     1      -4.518  11.541  16.740  0.00  0.00    +0.000 A 
ATOM     25  C   UNL     1      -4.035  11.603  18.045  0.00  0.00    +0.000 A 
ATOM     26  C   UNL     1      -2.808  11.016  18.368  0.00  0.00    +0.000 A 
ENDBRANCH  20  21
ENDBRANCH  19  20
ENDBRANCH  18  19
ENDBRANCH   4  18
TORSDOF 9
ENDMDL
