MODEL 1
REMARK VINA RESULT:      -8.5      0.000      0.000
REMARK  Name = 
REMARK  6 active torsions:
REMARK  status: ('A' for Active; 'I' for Inactive)
REMARK    1  A    between atoms: O_1  and  C_2
REMARK    2  A    between atoms: C_2  and  C_3
REMARK    3  A    between atoms: C_3  and  C_4
REMARK    4  A    between atoms: C_4  and  C_5
REMARK    5  A    between atoms: N_13  and  C_14
REMARK    6  A    between atoms: C_14  and  C_15
REMARK                            x       y       z     vdW  Elec       q    Type
REMARK                         _______ _______ _______ _____ _____    ______ ____
ROOT
ATOM      1  C   UNL     1       6.663   5.845  16.709  0.00  0.00    +0.000 C 
ATOM      2  C   UNL     1       5.452   6.601  16.113  0.00  0.00    +0.000 C 
ATOM      3  C   UNL     1       4.367   6.901  17.149  0.00  0.00    +0.000 C 
ATOM      4  N   UNL     1       3.896   5.677  17.822  0.00  0.00    +0.000 NA
ATOM      5  C   UNL     1       5.011   4.984  18.486  0.00  0.00    +0.000 C 
ATOM      6  C   UNL     1       6.128   4.626  17.493  0.00  0.00    +0.000 C 
ENDROOT
BRANCH   1   7
ATOM      7  C   UNL     1       7.452   6.761  17.689  0.00  0.00    +0.000 C 
BRANCH   7   8
ATOM      8  O   UNL     1       7.770   8.013  17.093  0.00  0.00    +0.000 OA
ATOM      9  H   UNL     1       8.139   8.579  17.791  0.00  0.00    +0.000 HD
ENDBRANCH   7   8
ENDBRANCH   1   7
BRANCH   1  10
ATOM     10  C   UNL     1       7.656   5.407  15.584  0.00  0.00    +0.000 C 
BRANCH  10  11
ATOM     11  C   UNL     1       7.090   4.821  14.307  0.00  0.00    +0.000 A 
ATOM     12  C   UNL     1       7.710   5.068  13.073  0.00  0.00    +0.000 A 
ATOM     13  C   UNL     1       7.227   4.483  11.901  0.00  0.00    +0.000 A 
ATOM     14  C   UNL     1       6.120   3.637  11.948  0.00  0.00    +0.000 A 
ATOM     15  C   UNL     1       5.489   3.390  13.165  0.00  0.00    +0.000 A 
ATOM     16  C   UNL     1       5.970   3.978  14.336  0.00  0.00    +0.000 A 
ENDBRANCH  10  11
ENDBRANCH   1  10
BRANCH   4  17
ATOM     17  C   UNL     1       2.818   6.036  18.769  0.00  0.00    +0.000 C 
BRANCH  17  18
ATOM     18  C   UNL     1       2.198   4.866  19.496  0.00  0.00    +0.000 A 
ATOM     19  C   UNL     1       2.376   4.682  20.877  0.00  0.00    +0.000 A 
ATOM     20  C   UNL     1       1.787   3.594  21.532  0.00  0.00    +0.000 A 
ATOM     21  C   UNL     1       1.017   2.678  20.815  0.00  0.00    +0.000 A 
ATOM     22  C   UNL     1       0.848   2.852  19.446  0.00  0.00    +0.000 A 
ATOM     23  F   UNL     1       0.108   1.971  18.759  0.00  0.00    +0.000 F 
ATOM     24  C   UNL     1       1.437   3.929  18.792  0.00  0.00    +0.000 A 
ATOM     25  F   UNL     1       1.260   4.067  17.468  0.00  0.00    +0.000 F 
ENDBRANCH  17  18
ENDBRANCH   4  17
TORSDOF 6
ENDMDL
MODEL 2
REMARK VINA RESULT:      -8.2      1.030      1.030
REMARK  Name = 
REMARK  6 active torsions:
REMARK  status: ('A' for Active; 'I' for Inactive)
REMARK    1  A    between atoms: O_1  and  C_2
REMARK    2  A    between atoms: C_2  and  C_3
REMARK    3  A    between atoms: C_3  and  C_4
REMARK    4  A    between atoms: C_4  and  C_5
REMARK    5  A    between atoms: N_13  and  C_14
REMARK    6  A    between atoms: C_14  and  C_15
REMARK                            x       y       z     vdW  Elec       q    Type
REMARK                         _______ _______ _______ _____ _____    ______ ____
ROOT
ATOM      1  C   UNL     1       6.468   5.253  16.531  0.00  0.00    +0.000 C 
ATOM      2  C   UNL     1       5.775   6.630  16.403  0.00  0.00    +0.000 C 
ATOM      3  C   UNL     1       4.737   6.880  17.498  0.00  0.00    +0.000 C 
ATOM      4  N   UNL     1       3.713   5.819  17.536  0.00  0.00    +0.000 NA
ATOM      5  C   UNL     1       4.333   4.503  17.758  0.00  0.00    +0.000 C 
ATOM      6  C   UNL     1       5.371   4.175  16.673  0.00  0.00    +0.000 C 
ENDROOT
BRANCH   1   7
ATOM      7  C   UNL     1       7.375   5.211  17.796  0.00  0.00    +0.000 C 
BRANCH   7   8
ATOM      8  O   UNL     1       8.257   4.095  17.770  0.00  0.00    +0.000 OA
ATOM      9  H   UNL     1       8.571   3.997  16.856  0.00  0.00    +0.000 HD
ENDBRANCH   7   8
ENDBRANCH   1   7
BRANCH   1  10
ATOM     10  C   UNL     1       7.386   4.972  15.296  0.00  0.00    +0.000 C 
BRANCH  10  11
ATOM     11  C   UNL     1       6.747   4.453  14.024  0.00  0.00    +0.000 A 
ATOM     12  C   UNL     1       7.479   4.402  12.828  0.00  0.00    +0.000 A 
ATOM     13  C   UNL     1       6.915   3.870  11.667  0.00  0.00    +0.000 A 
ATOM     14  C   UNL     1       5.611   3.378  11.687  0.00  0.00    +0.000 A 
ATOM     15  C   UNL     1       4.869   3.431  12.866  0.00  0.00    +0.000 A 
ATOM     16  C   UNL     1       5.432   3.966  14.025  0.00  0.00    +0.000 A 
ENDBRANCH  10  11
ENDBRANCH   1  10
BRANCH   4  17
ATOM     17  C   UNL     1       2.719   6.151  18.580  0.00  0.00    +0.000 C 
BRANCH  17  18
ATOM     18  C   UNL     1       2.189   4.965  19.350  0.00  0.00    +0.000 A 
ATOM     19  C   UNL     1       2.496   4.774  20.707  0.00  0.00    +0.000 A 
ATOM     20  C   UNL     1       1.988   3.671  21.404  0.00  0.00    +0.000 A 
ATOM     21  C   UNL     1       1.171   2.747  20.752  0.00  0.00    +0.000 A 
ATOM     22  C   UNL     1       0.874   2.927  19.406  0.00  0.00    +0.000 A 
ATOM     23  F   UNL     1       0.090   2.039  18.782  0.00  0.00    +0.000 F 
ATOM     24  C   UNL     1       1.383   4.020  18.710  0.00  0.00    +0.000 A 
ATOM     25  F   UNL     1       1.083   4.164  17.410  0.00  0.00    +0.000 F 
ENDBRANCH  17  18
ENDBRANCH   4  17
TORSDOF 6
ENDMDL
MODEL 3
REMARK VINA RESULT:      -8.0      0.859      1.304
REMARK  Name = 
REMARK  6 active torsions:
REMARK  status: ('A' for Active; 'I' for Inactive)
REMARK    1  A    between atoms: O_1  and  C_2
REMARK    2  A    between atoms: C_2  and  C_3
REMARK    3  A    between atoms: C_3  and  C_4
REMARK    4  A    between atoms: C_4  and  C_5
REMARK    5  A    between atoms: N_13  and  C_14
REMARK    6  A    between atoms: C_14  and  C_15
REMARK                            x       y       z     vdW  Elec       q    Type
REMARK                         _______ _______ _______ _____ _____    ______ ____
ROOT
ATOM      1  C   UNL     1       6.525   5.495  16.711  0.00  0.00    +0.000 C 
ATOM      2  C   UNL     1       5.657   6.734  16.388  0.00  0.00    +0.000 C 
ATOM      3  C   UNL     1       4.548   6.970  17.416  0.00  0.00    +0.000 C 
ATOM      4  N   UNL     1       3.679   5.788  17.567  0.00  0.00    +0.000 NA
ATOM      5  C   UNL     1       4.462   4.612  17.973  0.00  0.00    +0.000 C 
ATOM      6  C   UNL     1       5.580   4.300  16.965  0.00  0.00    +0.000 C 
ENDROOT
BRANCH   1   7
ATOM      7  C   UNL     1       7.374   5.740  17.993  0.00  0.00    +0.000 C 
BRANCH   7   8
ATOM      8  O   UNL     1       8.001   4.544  18.441  0.00  0.00    +0.000 OA
ATOM      9  H   UNL     1       8.949   4.734  18.536  0.00  0.00    +0.000 HD
ENDBRANCH   7   8
ENDBRANCH   1   7
BRANCH   1  10
ATOM     10  C   UNL     1       7.524   5.194  15.547  0.00  0.00    +0.000 C 
BRANCH  10  11
ATOM     11  C   UNL     1       6.978   4.616  14.258  0.00  0.00    +0.000 A 
ATOM     12  C   UNL     1       5.751   3.935  14.245  0.00  0.00    +0.000 A 
ATOM     13  C   UNL     1       5.215   3.452  13.049  0.00  0.00    +0.000 A 
ATOM     14  C   UNL     1       5.896   3.648  11.849  0.00  0.00    +0.000 A 
ATOM     15  C   UNL     1       7.120   4.315  11.849  0.00  0.00    +0.000 A 
ATOM     16  C   UNL     1       7.657   4.794  13.044  0.00  0.00    +0.000 A 
ENDBRANCH  10  11
ENDBRANCH   1  10
BRANCH   4  17
ATOM     17  C   UNL     1       2.604   6.105  18.533  0.00  0.00    +0.000 C 
BRANCH  17  18
ATOM     18  C   UNL     1       2.110   4.928  19.339  0.00  0.00    +0.000 A 
ATOM     19  C   UNL     1       2.371   4.817  20.715  0.00  0.00    +0.000 A 
ATOM     20  C   UNL     1       1.897   3.720  21.444  0.00  0.00    +0.000 A 
ATOM     21  C   UNL     1       1.161   2.721  20.807  0.00  0.00    +0.000 A 
ATOM     22  C   UNL     1       0.910   2.822  19.444  0.00  0.00    +0.000 A 
ATOM     23  F   UNL     1       0.202   1.863  18.834  0.00  0.00    +0.000 F 
ATOM     24  C   UNL     1       1.385   3.909  18.716  0.00  0.00    +0.000 A 
ATOM     25  F   UNL     1       1.130   3.976  17.399  0.00  0.00    +0.000 F 
ENDBRANCH  17  18
ENDBRANCH   4  17
TORSDOF 6
ENDMDL
MODEL 4
REMARK VINA RESULT:      -8.0      1.205      1.584
REMARK  Name = 
REMARK  6 active torsions:
REMARK  status: ('A' for Active; 'I' for Inactive)
REMARK    1  A    between atoms: O_1  and  C_2
REMARK    2  A    between atoms: C_2  and  C_3
REMARK    3  A    between atoms: C_3  and  C_4
REMARK    4  A    between atoms: C_4  and  C_5
REMARK    5  A    between atoms: N_13  and  C_14
REMARK    6  A    between atoms: C_14  and  C_15
REMARK                            x       y       z     vdW  Elec       q    Type
REMARK                         _______ _______ _______ _____ _____    ______ ____
ROOT
ATOM      1  C   UNL     1       6.358   5.141  15.760  0.00  0.00    +0.000 C 
ATOM      2  C   UNL     1       5.499   6.414  15.577  0.00  0.00    +0.000 C 
ATOM      3  C   UNL     1       4.635   6.733  16.799  0.00  0.00    +0.000 C 
ATOM      4  N   UNL     1       3.762   5.602  17.163  0.00  0.00    +0.000 NA
ATOM      5  C   UNL     1       4.557   4.396  17.443  0.00  0.00    +0.000 C 
ATOM      6  C   UNL     1       5.431   4.002  16.242  0.00  0.00    +0.000 C 
ENDROOT
BRANCH   1   7
ATOM      7  C   UNL     1       7.460   5.373  16.835  0.00  0.00    +0.000 C 
BRANCH   7   8
ATOM      8  O   UNL     1       8.065   4.149  17.236  0.00  0.00    +0.000 OA
ATOM      9  H   UNL     1       7.854   4.018  18.175  0.00  0.00    +0.000 HD
ENDBRANCH   7   8
ENDBRANCH   1   7
BRANCH   1  10
ATOM     10  C   UNL     1       7.083   4.759  14.429  0.00  0.00    +0.000 C 
BRANCH  10  11
ATOM     11  C   UNL     1       6.312   3.981  13.383  0.00  0.00    +0.000 A 
ATOM     12  C   UNL     1       4.941   4.210  13.191  0.00  0.00    +0.000 A 
ATOM     13  C   UNL     1       4.238   3.538  12.189  0.00  0.00    +0.000 A 
ATOM     14  C   UNL     1       4.898   2.631  11.361  0.00  0.00    +0.000 A 
ATOM     15  C   UNL     1       6.258   2.387  11.547  0.00  0.00    +0.000 A 
ATOM     16  C   UNL     1       6.959   3.056  12.551  0.00  0.00    +0.000 A 
ENDBRANCH  10  11
ENDBRANCH   1  10
BRANCH   4  17
ATOM     17  C   UNL     1       2.923   5.998  18.316  0.00  0.00    +0.000 C 
BRANCH  17  18
ATOM     18  C   UNL     1       2.361   4.847  19.116  0.00  0.00    +0.000 A 
ATOM     19  C   UNL     1       2.713   4.645  20.460  0.00  0.00    +0.000 A 
ATOM     20  C   UNL     1       2.175   3.575  21.185  0.00  0.00    +0.000 A 
ATOM     21  C   UNL     1       1.283   2.694  20.573  0.00  0.00    +0.000 A 
ATOM     22  C   UNL     1       0.941   2.884  19.240  0.00  0.00    +0.000 A 
ATOM     23  F   UNL     1       0.084   2.037  18.654  0.00  0.00    +0.000 F 
ATOM     24  C   UNL     1       1.479   3.944  18.516  0.00  0.00    +0.000 A 
ATOM     25  F   UNL     1       1.134   4.099  17.228  0.00  0.00    +0.000 F 
ENDBRANCH  17  18
ENDBRANCH   4  17
TORSDOF 6
ENDMDL
MODEL 5
REMARK VINA RESULT:      -8.0      1.211      1.848
REMARK  Name = 
REMARK  6 active torsions:
REMARK  status: ('A' for Active; 'I' for Inactive)
REMARK    1  A    between atoms: O_1  and  C_2
REMARK    2  A    between atoms: C_2  and  C_3
REMARK    3  A    between atoms: C_3  and  C_4
REMARK    4  A    between atoms: C_4  and  C_5
REMARK    5  A    between atoms: N_13  and  C_14
REMARK    6  A    between atoms: C_14  and  C_15
REMARK                            x       y       z     vdW  Elec       q    Type
REMARK                         _______ _______ _______ _____ _____    ______ ____
ROOT
ATOM      1  C   UNL     1       6.639   5.892  16.686  0.00  0.00    +0.000 C 
ATOM      2  C   UNL     1       5.387   6.602  16.119  0.00  0.00    +0.000 C 
ATOM      3  C   UNL     1       4.285   6.791  17.163  0.00  0.00    +0.000 C 
ATOM      4  N   UNL     1       3.886   5.512  17.779  0.00  0.00    +0.000 NA
ATOM      5  C   UNL     1       5.039   4.856  18.416  0.00  0.00    +0.000 C 
ATOM      6  C   UNL     1       6.176   4.610  17.412  0.00  0.00    +0.000 C 
ENDROOT
BRANCH   1   7
ATOM      7  C   UNL     1       7.372   6.808  17.710  0.00  0.00    +0.000 C 
BRANCH   7   8
ATOM      8  O   UNL     1       7.619   8.101  17.171  0.00  0.00    +0.000 OA
ATOM      9  H   UNL     1       7.113   8.737  17.703  0.00  0.00    +0.000 HD
ENDBRANCH   7   8
ENDBRANCH   1   7
BRANCH   1  10
ATOM     10  C   UNL     1       7.659   5.564  15.547  0.00  0.00    +0.000 C 
BRANCH  10  11
ATOM     11  C   UNL     1       7.153   4.864  14.303  0.00  0.00    +0.000 A 
ATOM     12  C   UNL     1       6.040   4.012  14.367  0.00  0.00    +0.000 A 
ATOM     13  C   UNL     1       5.533   3.411  13.213  0.00  0.00    +0.000 A 
ATOM     14  C   UNL     1       6.129   3.658  11.978  0.00  0.00    +0.000 A 
ATOM     15  C   UNL     1       7.241   4.495  11.901  0.00  0.00    +0.000 A 
ATOM     16  C   UNL     1       7.750   5.093  13.055  0.00  0.00    +0.000 A 
ENDBRANCH  10  11
ENDBRANCH   1  10
BRANCH   4  17
ATOM     17  C   UNL     1       2.786   5.764  18.736  0.00  0.00    +0.000 C 
BRANCH  17  18
ATOM     18  C   UNL     1       2.020   4.533  19.159  0.00  0.00    +0.000 A 
ATOM     19  C   UNL     1       1.398   3.696  18.218  0.00  0.00    +0.000 A 
ATOM     20  C   UNL     1       0.698   2.556  18.632  0.00  0.00    +0.000 A 
ATOM     21  C   UNL     1       0.611   2.242  19.989  0.00  0.00    +0.000 A 
ATOM     22  C   UNL     1       1.217   3.075  20.923  0.00  0.00    +0.000 A 
ATOM     23  F   UNL     1       1.131   2.772  22.225  0.00  0.00    +0.000 F 
ATOM     24  C   UNL     1       1.907   4.211  20.514  0.00  0.00    +0.000 A 
ATOM     25  F   UNL     1       2.477   4.999  21.440  0.00  0.00    +0.000 F 
ENDBRANCH  17  18
ENDBRANCH   4  17
TORSDOF 6
ENDMDL
MODEL 6
REMARK VINA RESULT:      -7.8      1.421      1.730
REMARK  Name = 
REMARK  6 active torsions:
REMARK  status: ('A' for Active; 'I' for Inactive)
REMARK    1  A    between atoms: O_1  and  C_2
REMARK    2  A    between atoms: C_2  and  C_3
REMARK    3  A    between atoms: C_3  and  C_4
REMARK    4  A    between atoms: C_4  and  C_5
REMARK    5  A    between atoms: N_13  and  C_14
REMARK    6  A    between atoms: C_14  and  C_15
REMARK                            x       y       z     vdW  Elec       q    Type
REMARK                         _______ _______ _______ _____ _____    ______ ____
ROOT
ATOM      1  C   UNL     1       6.540   5.622  16.707  0.00  0.00    +0.000 C 
ATOM      2  C   UNL     1       5.499   6.690  16.297  0.00  0.00    +0.000 C 
ATOM      3  C   UNL     1       4.368   6.845  17.316  0.00  0.00    +0.000 C 
ATOM      4  N   UNL     1       3.682   5.566  17.573  0.00  0.00    +0.000 NA
ATOM      5  C   UNL     1       4.629   4.553  18.063  0.00  0.00    +0.000 C 
ATOM      6  C   UNL     1       5.780   4.326  17.069  0.00  0.00    +0.000 C 
ENDROOT
BRANCH   1   7
ATOM      7  C   UNL     1       7.345   6.092  17.954  0.00  0.00    +0.000 C 
BRANCH   7   8
ATOM      8  O   UNL     1       7.895   4.990  18.667  0.00  0.00    +0.000 OA
ATOM      9  H   UNL     1       8.127   5.308  19.555  0.00  0.00    +0.000 HD
ENDBRANCH   7   8
ENDBRANCH   1   7
BRANCH   1  10
ATOM     10  C   UNL     1       7.570   5.374  15.558  0.00  0.00    +0.000 C 
BRANCH  10  11
ATOM     11  C   UNL     1       7.069   4.805  14.247  0.00  0.00    +0.000 A 
ATOM     12  C   UNL     1       7.731   5.094  13.044  0.00  0.00    +0.000 A 
ATOM     13  C   UNL     1       7.309   4.525  11.842  0.00  0.00    +0.000 A 
ATOM     14  C   UNL     1       6.220   3.655  11.825  0.00  0.00    +0.000 A 
ATOM     15  C   UNL     1       5.547   3.366  13.011  0.00  0.00    +0.000 A 
ATOM     16  C   UNL     1       5.967   3.938  14.213  0.00  0.00    +0.000 A 
ENDBRANCH  10  11
ENDBRANCH   1  10
BRANCH   4  17
ATOM     17  C   UNL     1       2.574   5.801  18.525  0.00  0.00    +0.000 C 
BRANCH  17  18
ATOM     18  C   UNL     1       1.915   4.549  19.052  0.00  0.00    +0.000 A 
ATOM     19  C   UNL     1       1.329   3.608  18.190  0.00  0.00    +0.000 A 
ATOM     20  C   UNL     1       0.729   2.450  18.700  0.00  0.00    +0.000 A 
ATOM     21  C   UNL     1       0.707   2.221  20.076  0.00  0.00    +0.000 A 
ATOM     22  C   UNL     1       1.277   3.156  20.933  0.00  0.00    +0.000 A 
ATOM     23  F   UNL     1       1.255   2.934  22.254  0.00  0.00    +0.000 F 
ATOM     24  C   UNL     1       1.868   4.310  20.428  0.00  0.00    +0.000 A 
ATOM     25  F   UNL     1       2.406   5.196  21.282  0.00  0.00    +0.000 F 
ENDBRANCH  17  18
ENDBRANCH   4  17
TORSDOF 6
ENDMDL
MODEL 7
REMARK VINA RESULT:      -7.6      1.745      2.263
REMARK  Name = 
REMARK  6 active torsions:
REMARK  status: ('A' for Active; 'I' for Inactive)
REMARK    1  A    between atoms: O_1  and  C_2
REMARK    2  A    between atoms: C_2  and  C_3
REMARK    3  A    between atoms: C_3  and  C_4
REMARK    4  A    between atoms: C_4  and  C_5
REMARK    5  A    between atoms: N_13  and  C_14
REMARK    6  A    between atoms: C_14  and  C_15
REMARK                            x       y       z     vdW  Elec       q    Type
REMARK                         _______ _______ _______ _____ _____    ______ ____
ROOT
ATOM      1  C   UNL     1       6.399   4.983  15.369  0.00  0.00    +0.000 C 
ATOM      2  C   UNL     1       5.413   6.174  15.325  0.00  0.00    +0.000 C 
ATOM      3  C   UNL     1       4.666   6.380  16.644  0.00  0.00    +0.000 C 
ATOM      4  N   UNL     1       3.946   5.164  17.063  0.00  0.00    +0.000 NA
ATOM      5  C   UNL     1       4.874   4.032  17.212  0.00  0.00    +0.000 C 
ATOM      6  C   UNL     1       5.639   3.751  15.909  0.00  0.00    +0.000 C 
ENDROOT
BRANCH   1   7
ATOM      7  C   UNL     1       7.590   5.291  16.324  0.00  0.00    +0.000 C 
BRANCH   7   8
ATOM      8  O   UNL     1       8.033   4.121  17.001  0.00  0.00    +0.000 OA
ATOM      9  H   UNL     1       8.255   3.462  16.323  0.00  0.00    +0.000 HD
ENDBRANCH   7   8
ENDBRANCH   1   7
BRANCH   1  10
ATOM     10  C   UNL     1       7.003   4.704  13.954  0.00  0.00    +0.000 C 
BRANCH  10  11
ATOM     11  C   UNL     1       6.180   3.908  12.962  0.00  0.00    +0.000 A 
ATOM     12  C   UNL     1       6.708   2.755  12.361  0.00  0.00    +0.000 A 
ATOM     13  C   UNL     1       5.934   1.984  11.491  0.00  0.00    +0.000 A 
ATOM     14  C   UNL     1       4.620   2.354  11.213  0.00  0.00    +0.000 A 
ATOM     15  C   UNL     1       4.085   3.502  11.795  0.00  0.00    +0.000 A 
ATOM     16  C   UNL     1       4.860   4.273  12.662  0.00  0.00    +0.000 A 
ENDBRANCH  10  11
ENDBRANCH   1  10
BRANCH   4  17
ATOM     17  C   UNL     1       3.209   5.451  18.313  0.00  0.00    +0.000 C 
BRANCH  17  18
ATOM     18  C   UNL     1       2.335   4.322  18.807  0.00  0.00    +0.000 A 
ATOM     19  C   UNL     1       1.666   3.468  17.916  0.00  0.00    +0.000 A 
ATOM     20  C   UNL     1       0.866   2.423  18.396  0.00  0.00    +0.000 A 
ATOM     21  C   UNL     1       0.725   2.224  19.769  0.00  0.00    +0.000 A 
ATOM     22  C   UNL     1       1.378   3.074  20.654  0.00  0.00    +0.000 A 
ATOM     23  F   UNL     1       1.241   2.881  21.972  0.00  0.00    +0.000 F 
ATOM     24  C   UNL     1       2.168   4.116  20.179  0.00  0.00    +0.000 A 
ATOM     25  F   UNL     1       2.782   4.925  21.058  0.00  0.00    +0.000 F 
ENDBRANCH  17  18
ENDBRANCH   4  17
TORSDOF 6
ENDMDL
MODEL 8
REMARK VINA RESULT:      -7.3      5.120      7.893
REMARK  Name = 
REMARK  6 active torsions:
REMARK  status: ('A' for Active; 'I' for Inactive)
REMARK    1  A    between atoms: O_1  and  C_2
REMARK    2  A    between atoms: C_2  and  C_3
REMARK    3  A    between atoms: C_3  and  C_4
REMARK    4  A    between atoms: C_4  and  C_5
REMARK    5  A    between atoms: N_13  and  C_14
REMARK    6  A    between atoms: C_14  and  C_15
REMARK                            x       y       z     vdW  Elec       q    Type
REMARK                         _______ _______ _______ _____ _____    ______ ____
ROOT
ATOM      1  C   UNL     1       0.736  10.775  19.119  0.00  0.00    +0.000 C 
ATOM      2  C   UNL     1       0.080   9.837  20.159  0.00  0.00    +0.000 C 
ATOM      3  C   UNL     1       1.018   8.728  20.639  0.00  0.00    +0.000 C 
ATOM      4  N   UNL     1       1.540   7.926  19.517  0.00  0.00    +0.000 NA
ATOM      5  C   UNL     1       2.259   8.777  18.557  0.00  0.00    +0.000 C 
ATOM      6  C   UNL     1       1.362   9.899  18.011  0.00  0.00    +0.000 C 
ENDROOT
BRANCH   1   7
ATOM      7  C   UNL     1       1.862  11.623  19.779  0.00  0.00    +0.000 C 
BRANCH   7   8
ATOM      8  O   UNL     1       1.455  12.139  21.041  0.00  0.00    +0.000 OA
ATOM      9  H   UNL     1       0.490  12.240  21.014  0.00  0.00    +0.000 HD
ENDBRANCH   7   8
ENDBRANCH   1   7
BRANCH   1  10
ATOM     10  C   UNL     1      -0.311  11.775  18.529  0.00  0.00    +0.000 C 
BRANCH  10  11
ATOM     11  C   UNL     1      -1.719  11.280  18.271  0.00  0.00    +0.000 A 
ATOM     12  C   UNL     1      -2.816  11.897  18.892  0.00  0.00    +0.000 A 
ATOM     13  C   UNL     1      -4.120  11.483  18.612  0.00  0.00    +0.000 A 
ATOM     14  C   UNL     1      -4.345  10.449  17.705  0.00  0.00    +0.000 A 
ATOM     15  C   UNL     1      -3.264   9.821  17.089  0.00  0.00    +0.000 A 
ATOM     16  C   UNL     1      -1.961  10.233  17.371  0.00  0.00    +0.000 A 
ENDBRANCH  10  11
ENDBRANCH   1  10
BRANCH   4  17
ATOM     17  C   UNL     1       2.396   6.847  20.058  0.00  0.00    +0.000 C 
BRANCH  17  18
ATOM     18  C   UNL     1       1.993   5.452  19.645  0.00  0.00    +0.000 A 
ATOM     19  C   UNL     1       1.265   4.612  20.503  0.00  0.00    +0.000 A 
ATOM     20  C   UNL     1       0.896   3.324  20.097  0.00  0.00    +0.000 A 
ATOM     21  C   UNL     1       1.252   2.862  18.830  0.00  0.00    +0.000 A 
ATOM     22  C   UNL     1       1.982   3.686  17.981  0.00  0.00    +0.000 A 
ATOM     23  F   UNL     1       2.323   3.240  16.765  0.00  0.00    +0.000 F 
ATOM     24  C   UNL     1       2.355   4.964  18.386  0.00  0.00    +0.000 A 
ATOM     25  F   UNL     1       3.064   5.735  17.546  0.00  0.00    +0.000 F 
ENDBRANCH  17  18
ENDBRANCH   4  17
TORSDOF 6
ENDMDL
MODEL 9
REMARK VINA RESULT:      -7.3      1.506      2.156
REMARK  Name = 
REMARK  6 active torsions:
REMARK  status: ('A' for Active; 'I' for Inactive)
REMARK    1  A    between atoms: O_1  and  C_2
REMARK    2  A    between atoms: C_2  and  C_3
REMARK    3  A    between atoms: C_3  and  C_4
REMARK    4  A    between atoms: C_4  and  C_5
REMARK    5  A    between atoms: N_13  and  C_14
REMARK    6  A    between atoms: C_14  and  C_15
REMARK                            x       y       z     vdW  Elec       q    Type
REMARK                         _______ _______ _______ _____ _____    ______ ____
ROOT
ATOM      1  C   UNL     1       5.759   4.909  16.780  0.00  0.00    +0.000 C 
ATOM      2  C   UNL     1       5.976   4.830  18.310  0.00  0.00    +0.000 C 
ATOM      3  C   UNL     1       4.676   4.965  19.105  0.00  0.00    +0.000 C 
ATOM      4  N   UNL     1       3.959   6.211  18.777  0.00  0.00    +0.000 NA
ATOM      5  C   UNL     1       3.647   6.272  17.341  0.00  0.00    +0.000 C 
ATOM      6  C   UNL     1       4.917   6.170  16.481  0.00  0.00    +0.000 C 
ENDROOT
BRANCH   1   7
ATOM      7  C   UNL     1       4.982   3.659  16.271  0.00  0.00    +0.000 C 
BRANCH   7   8
ATOM      8  O   UNL     1       4.761   2.720  17.316  0.00  0.00    +0.000 OA
ATOM      9  H   UNL     1       5.311   2.992  18.070  0.00  0.00    +0.000 HD
ENDBRANCH   7   8
ENDBRANCH   1   7
BRANCH   1  10
ATOM     10  C   UNL     1       7.125   4.945  16.023  0.00  0.00    +0.000 C 
BRANCH  10  11
ATOM     11  C   UNL     1       7.128   4.722  14.525  0.00  0.00    +0.000 A 
ATOM     12  C   UNL     1       6.314   3.734  13.950  0.00  0.00    +0.000 A 
ATOM     13  C   UNL     1       6.267   3.563  12.565  0.00  0.00    +0.000 A 
ATOM     14  C   UNL     1       7.031   4.382  11.735  0.00  0.00    +0.000 A 
ATOM     15  C   UNL     1       7.851   5.361  12.293  0.00  0.00    +0.000 A 
ATOM     16  C   UNL     1       7.900   5.529  13.677  0.00  0.00    +0.000 A 
ENDBRANCH  10  11
ENDBRANCH   1  10
BRANCH   4  17
ATOM     17  C   UNL     1       2.744   6.299  19.617  0.00  0.00    +0.000 C 
BRANCH  17  18
ATOM     18  C   UNL     1       2.191   4.969  20.072  0.00  0.00    +0.000 A 
ATOM     19  C   UNL     1       2.409   4.490  21.373  0.00  0.00    +0.000 A 
ATOM     20  C   UNL     1       1.881   3.257  21.776  0.00  0.00    +0.000 A 
ATOM     21  C   UNL     1       1.133   2.490  20.882  0.00  0.00    +0.000 A 
ATOM     22  C   UNL     1       0.924   2.958  19.590  0.00  0.00    +0.000 A 
ATOM     23  F   UNL     1       0.205   2.220  18.734  0.00  0.00    +0.000 F 
ATOM     24  C   UNL     1       1.453   4.179  19.186  0.00  0.00    +0.000 A 
ATOM     25  F   UNL     1       1.238   4.602  17.929  0.00  0.00    +0.000 F 
ENDBRANCH  17  18
ENDBRANCH   4  17
TORSDOF 6
ENDMDL
