MODEL 1
REMARK VINA RESULT:      -7.7      0.000      0.000
REMARK  Name = 
REMARK  5 active torsions:
REMARK  status: ('A' for Active; 'I' for Inactive)
REMARK    1  A    between atoms: C_2  and  C_3
REMARK    2  A    between atoms: C_9  and  C_10
REMARK    3  A    between atoms: C_9  and  C_16
REMARK    4  A    between atoms: N_20  and  C_21
REMARK    5  A    between atoms: C_21  and  C_22
REMARK                            x       y       z     vdW  Elec       q    Type
REMARK                         _______ _______ _______ _____ _____    ______ ____
ROOT
ATOM      1  O   UNL     1       2.941   6.092  18.668  0.00  0.00    +0.000 OA
ATOM      2  C   UNL     1       2.251   6.603  19.546  0.00  0.00    +0.000 C 
ATOM      3  N   UNL     1       1.963   7.959  19.583  0.00  0.00    +0.000 N 
ATOM      4  C   UNL     1       1.322   8.690  20.657  0.00  0.00    +0.000 C 
ATOM      5  C   UNL     1       0.009   9.293  20.171  0.00  0.00    +0.000 C 
ATOM      6  C   UNL     1       0.111  10.188  18.872  0.00  0.00    +0.000 C 
ATOM      7  C   UNL     1       1.042   9.427  17.843  0.00  0.00    +0.000 C 
ATOM      8  C   UNL     1       2.308   8.786  18.432  0.00  0.00    +0.000 C 
ENDROOT
BRANCH   6   9
ATOM      9  C   UNL     1      -1.354  10.305  18.283  0.00  0.00    +0.000 A 
ATOM     10  C   UNL     1      -1.692   9.692  17.055  0.00  0.00    +0.000 A 
ATOM     11  C   UNL     1      -2.870  10.001  16.353  0.00  0.00    +0.000 A 
ATOM     12  C   UNL     1      -3.768  10.921  16.861  0.00  0.00    +0.000 A 
ATOM     13  C   UNL     1      -3.501  11.513  18.094  0.00  0.00    +0.000 A 
ATOM     14  C   UNL     1      -2.322  11.196  18.804  0.00  0.00    +0.000 A 
ENDBRANCH   6   9
BRANCH   6  15
ATOM     15  C   UNL     1       0.873  11.488  19.283  0.00  0.00    +0.000 A 
ATOM     16  N   UNL     1       1.732  12.030  18.423  0.00  0.00    +0.000 NA
ATOM     17  C   UNL     1       2.377  13.058  19.023  0.00  0.00    +0.000 A 
ATOM     18  C   UNL     1       1.904  13.201  20.292  0.00  0.00    +0.000 A 
ATOM     19  N   UNL     1       0.926  12.231  20.449  0.00  0.00    +0.000 N 
BRANCH  19  20
ATOM     20  C   UNL     1       0.270  12.052  21.731  0.00  0.00    +0.000 C 
BRANCH  20  21
ATOM     21  C   UNL     1      -1.159  12.539  21.784  0.00  0.00    +0.000 A 
ATOM     22  C   UNL     1      -2.010  11.959  22.735  0.00  0.00    +0.000 A 
ATOM     23  C   UNL     1      -3.306  12.438  22.925  0.00  0.00    +0.000 A 
ATOM     24  C   UNL     1      -3.771  13.514  22.173  0.00  0.00    +0.000 A 
ATOM     25  C   UNL     1      -2.940  14.106  21.226  0.00  0.00    +0.000 A 
ATOM     26  C   UNL     1      -1.640  13.630  21.039  0.00  0.00    +0.000 A 
ENDBRANCH  20  21
ENDBRANCH  19  20
ENDBRANCH   6  15
BRANCH   2  27
ATOM     27  C   UNL     1       1.653   5.720  20.598  0.00  0.00    +0.000 C 
ATOM     28  C   UNL     1       1.095   4.373  20.188  0.00  0.00    +0.000 C 
ATOM     29  C   UNL     1       2.344   4.442  21.017  0.00  0.00    +0.000 C 
ENDBRANCH   2  27
TORSDOF 5
ENDMDL
MODEL 2
REMARK VINA RESULT:      -6.7      0.956      1.064
REMARK  Name = 
REMARK  5 active torsions:
REMARK  status: ('A' for Active; 'I' for Inactive)
REMARK    1  A    between atoms: C_2  and  C_3
REMARK    2  A    between atoms: C_9  and  C_10
REMARK    3  A    between atoms: C_9  and  C_16
REMARK    4  A    between atoms: N_20  and  C_21
REMARK    5  A    between atoms: C_21  and  C_22
REMARK                            x       y       z     vdW  Elec       q    Type
REMARK                         _______ _______ _______ _____ _____    ______ ____
ROOT
ATOM      1  O   UNL     1       3.306   7.325  17.864  0.00  0.00    +0.000 OA
ATOM      2  C   UNL     1       2.512   7.440  18.794  0.00  0.00    +0.000 C 
ATOM      3  N   UNL     1       1.949   8.654  19.157  0.00  0.00    +0.000 N 
ATOM      4  C   UNL     1       1.155   8.934  20.336  0.00  0.00    +0.000 C 
ATOM      5  C   UNL     1      -0.247   9.375  19.931  0.00  0.00    +0.000 C 
ATOM      6  C   UNL     1      -0.313  10.585  18.915  0.00  0.00    +0.000 C 
ATOM      7  C   UNL     1       0.771  10.321  17.792  0.00  0.00    +0.000 C 
ATOM      8  C   UNL     1       2.133   9.807  18.283  0.00  0.00    +0.000 C 
ENDROOT
BRANCH   6   9
ATOM      9  C   UNL     1      -1.761  10.565  18.276  0.00  0.00    +0.000 A 
ATOM     10  C   UNL     1      -2.031   9.803  17.117  0.00  0.00    +0.000 A 
ATOM     11  C   UNL     1      -3.198   9.974  16.352  0.00  0.00    +0.000 A 
ATOM     12  C   UNL     1      -4.152  10.900  16.727  0.00  0.00    +0.000 A 
ATOM     13  C   UNL     1      -3.953  11.640  17.891  0.00  0.00    +0.000 A 
ATOM     14  C   UNL     1      -2.785  11.460  18.665  0.00  0.00    +0.000 A 
ENDBRANCH   6   9
BRANCH   6  15
ATOM     15  C   UNL     1       0.158  11.852  19.697  0.00  0.00    +0.000 A 
ATOM     16  N   UNL     1       0.973  12.715  19.094  0.00  0.00    +0.000 NA
ATOM     17  C   UNL     1       1.362  13.658  19.983  0.00  0.00    +0.000 A 
ATOM     18  C   UNL     1       0.763  13.415  21.182  0.00  0.00    +0.000 A 
ATOM     19  N   UNL     1      -0.029  12.293  20.995  0.00  0.00    +0.000 N 
BRANCH  19  20
ATOM     20  C   UNL     1      -0.749  11.709  22.112  0.00  0.00    +0.000 C 
BRANCH  20  21
ATOM     21  C   UNL     1      -2.111  12.309  22.369  0.00  0.00    +0.000 A 
ATOM     22  C   UNL     1      -2.755  11.974  23.568  0.00  0.00    +0.000 A 
ATOM     23  C   UNL     1      -3.958  12.579  23.931  0.00  0.00    +0.000 A 
ATOM     24  C   UNL     1      -4.533  13.540  23.103  0.00  0.00    +0.000 A 
ATOM     25  C   UNL     1      -3.909  13.889  21.910  0.00  0.00    +0.000 A 
ATOM     26  C   UNL     1      -2.701  13.286  21.548  0.00  0.00    +0.000 A 
ENDBRANCH  20  21
ENDBRANCH  19  20
ENDBRANCH   6  15
BRANCH   2  27
ATOM     27  C   UNL     1       2.094   6.210  19.541  0.00  0.00    +0.000 C 
ATOM     28  C   UNL     1       1.965   4.905  18.783  0.00  0.00    +0.000 C 
ATOM     29  C   UNL     1       3.072   5.082  19.780  0.00  0.00    +0.000 C 
ENDBRANCH   2  27
TORSDOF 5
ENDMDL
MODEL 3
REMARK VINA RESULT:      -6.7      2.394      4.156
REMARK  Name = 
REMARK  5 active torsions:
REMARK  status: ('A' for Active; 'I' for Inactive)
REMARK    1  A    between atoms: C_2  and  C_3
REMARK    2  A    between atoms: C_9  and  C_10
REMARK    3  A    between atoms: C_9  and  C_16
REMARK    4  A    between atoms: N_20  and  C_21
REMARK    5  A    between atoms: C_21  and  C_22
REMARK                            x       y       z     vdW  Elec       q    Type
REMARK                         _______ _______ _______ _____ _____    ______ ____
ROOT
ATOM      1  O   UNL     1       0.772   9.122  18.243  0.00  0.00    +0.000 OA
ATOM      2  C   UNL     1       1.028   9.659  19.317  0.00  0.00    +0.000 C 
ATOM      3  N   UNL     1       0.673  10.968  19.608  0.00  0.00    +0.000 N 
ATOM      4  C   UNL     1       1.078  11.751  20.756  0.00  0.00    +0.000 C 
ATOM      5  C   UNL     1      -0.142  12.137  21.586  0.00  0.00    +0.000 C 
ATOM      6  C   UNL     1      -1.299  12.867  20.795  0.00  0.00    +0.000 C 
ATOM      7  C   UNL     1      -1.503  12.092  19.429  0.00  0.00    +0.000 C 
ATOM      8  C   UNL     1      -0.218  11.677  18.696  0.00  0.00    +0.000 C 
ENDROOT
BRANCH   6   9
ATOM      9  C   UNL     1      -2.606  12.744  21.680  0.00  0.00    +0.000 A 
ATOM     10  C   UNL     1      -3.788  13.434  21.328  0.00  0.00    +0.000 A 
ATOM     11  C   UNL     1      -4.865  13.593  22.215  0.00  0.00    +0.000 A 
ATOM     12  C   UNL     1      -4.813  13.051  23.485  0.00  0.00    +0.000 A 
ATOM     13  C   UNL     1      -3.689  12.318  23.860  0.00  0.00    +0.000 A 
ATOM     14  C   UNL     1      -2.609  12.150  22.964  0.00  0.00    +0.000 A 
ENDBRANCH   6   9
BRANCH   6  15
ATOM     15  C   UNL     1      -0.761  14.286  20.423  0.00  0.00    +0.000 A 
ATOM     16  N   UNL     1      -0.666  14.622  19.139  0.00  0.00    +0.000 NA
ATOM     17  C   UNL     1      -0.056  15.827  19.036  0.00  0.00    +0.000 A 
ATOM     18  C   UNL     1       0.224  16.292  20.286  0.00  0.00    +0.000 A 
ATOM     19  N   UNL     1      -0.254  15.335  21.168  0.00  0.00    +0.000 N 
BRANCH  19  20
ATOM     20  C   UNL     1      -0.040  15.483  22.596  0.00  0.00    +0.000 C 
BRANCH  20  21
ATOM     21  C   UNL     1      -1.301  15.645  23.411  0.00  0.00    +0.000 A 
ATOM     22  C   UNL     1      -1.317  15.098  24.701  0.00  0.00    +0.000 A 
ATOM     23  C   UNL     1      -2.398  15.309  25.557  0.00  0.00    +0.000 A 
ATOM     24  C   UNL     1      -3.479  16.081  25.139  0.00  0.00    +0.000 A 
ATOM     25  C   UNL     1      -3.481  16.636  23.863  0.00  0.00    +0.000 A 
ATOM     26  C   UNL     1      -2.396  16.429  23.007  0.00  0.00    +0.000 A 
ENDBRANCH  20  21
ENDBRANCH  19  20
ENDBRANCH   6  15
BRANCH   2  27
ATOM     27  C   UNL     1       1.708   8.854  20.381  0.00  0.00    +0.000 C 
ATOM     28  C   UNL     1       0.857   8.090  21.374  0.00  0.00    +0.000 C 
ATOM     29  C   UNL     1       1.664   7.343  20.353  0.00  0.00    +0.000 C 
ENDBRANCH   2  27
TORSDOF 5
ENDMDL
MODEL 4
REMARK VINA RESULT:      -6.6      3.146      5.279
REMARK  Name = 
REMARK  5 active torsions:
REMARK  status: ('A' for Active; 'I' for Inactive)
REMARK    1  A    between atoms: C_2  and  C_3
REMARK    2  A    between atoms: C_9  and  C_10
REMARK    3  A    between atoms: C_9  and  C_16
REMARK    4  A    between atoms: N_20  and  C_21
REMARK    5  A    between atoms: C_21  and  C_22
REMARK                            x       y       z     vdW  Elec       q    Type
REMARK                         _______ _______ _______ _____ _____    ______ ____
ROOT
ATOM      1  O   UNL     1       1.782  16.126  19.259  0.00  0.00    +0.000 OA
ATOM      2  C   UNL     1       2.005  14.948  18.998  0.00  0.00    +0.000 C 
ATOM      3  N   UNL     1       1.367  13.899  19.644  0.00  0.00    +0.000 N 
ATOM      4  C   UNL     1       1.681  12.489  19.546  0.00  0.00    +0.000 C 
ATOM      5  C   UNL     1       0.497  11.726  18.963  0.00  0.00    +0.000 C 
ATOM      6  C   UNL     1      -0.883  11.940  19.706  0.00  0.00    +0.000 C 
ATOM      7  C   UNL     1      -1.027  13.488  20.003  0.00  0.00    +0.000 C 
ATOM      8  C   UNL     1       0.237  14.192  20.519  0.00  0.00    +0.000 C 
ENDROOT
BRANCH   6   9
ATOM      9  C   UNL     1      -2.017  11.478  18.702  0.00  0.00    +0.000 A 
ATOM     10  C   UNL     1      -3.342  11.949  18.841  0.00  0.00    +0.000 A 
ATOM     11  C   UNL     1      -4.430  11.360  18.175  0.00  0.00    +0.000 A 
ATOM     12  C   UNL     1      -4.234  10.288  17.325  0.00  0.00    +0.000 A 
ATOM     13  C   UNL     1      -2.937   9.822  17.117  0.00  0.00    +0.000 A 
ATOM     14  C   UNL     1      -1.843  10.421  17.780  0.00  0.00    +0.000 A 
ENDBRANCH   6   9
BRANCH   6  15
ATOM     15  C   UNL     1      -0.758  11.232  21.092  0.00  0.00    +0.000 A 
ATOM     16  N   UNL     1      -0.271   9.993  21.141  0.00  0.00    +0.000 NA
ATOM     17  C   UNL     1      -0.375   9.522  22.406  0.00  0.00    +0.000 A 
ATOM     18  C   UNL     1      -0.917  10.489  23.199  0.00  0.00    +0.000 A 
ATOM     19  N   UNL     1      -1.127  11.586  22.378  0.00  0.00    +0.000 N 
BRANCH  19  20
ATOM     20  C   UNL     1      -1.779  12.775  22.896  0.00  0.00    +0.000 C 
BRANCH  20  21
ATOM     21  C   UNL     1      -3.280  12.666  23.028  0.00  0.00    +0.000 A 
ATOM     22  C   UNL     1      -3.809  12.482  24.313  0.00  0.00    +0.000 A 
ATOM     23  C   UNL     1      -5.187  12.493  24.530  0.00  0.00    +0.000 A 
ATOM     24  C   UNL     1      -6.060  12.698  23.465  0.00  0.00    +0.000 A 
ATOM     25  C   UNL     1      -5.555  12.885  22.182  0.00  0.00    +0.000 A 
ATOM     26  C   UNL     1      -4.174  12.880  21.965  0.00  0.00    +0.000 A 
ENDBRANCH  20  21
ENDBRANCH  19  20
ENDBRANCH   6  15
BRANCH   2  27
ATOM     27  C   UNL     1       2.972  14.624  17.901  0.00  0.00    +0.000 C 
ATOM     28  C   UNL     1       3.900  15.712  17.401  0.00  0.00    +0.000 C 
ATOM     29  C   UNL     1       4.457  14.554  18.177  0.00  0.00    +0.000 C 
ENDBRANCH   2  27
TORSDOF 5
ENDMDL
MODEL 5
REMARK VINA RESULT:      -6.6      3.803      6.994
REMARK  Name = 
REMARK  5 active torsions:
REMARK  status: ('A' for Active; 'I' for Inactive)
REMARK    1  A    between atoms: C_2  and  C_3
REMARK    2  A    between atoms: C_9  and  C_10
REMARK    3  A    between atoms: C_9  and  C_16
REMARK    4  A    between atoms: N_20  and  C_21
REMARK    5  A    between atoms: C_21  and  C_22
REMARK                            x       y       z     vdW  Elec       q    Type
REMARK                         _______ _______ _______ _____ _____    ______ ____
ROOT
ATOM      1  O   UNL     1      -6.747  12.323  22.701  0.00  0.00    +0.000 OA
ATOM      2  C   UNL     1      -6.023  12.559  21.738  0.00  0.00    +0.000 C 
ATOM      3  N   UNL     1      -4.734  13.054  21.869  0.00  0.00    +0.000 N 
ATOM      4  C   UNL     1      -3.869  13.535  20.812  0.00  0.00    +0.000 C 
ATOM      5  C   UNL     1      -2.614  12.673  20.728  0.00  0.00    +0.000 C 
ATOM      6  C   UNL     1      -1.807  12.511  22.079  0.00  0.00    +0.000 C 
ATOM      7  C   UNL     1      -2.859  12.240  23.230  0.00  0.00    +0.000 C 
ATOM      8  C   UNL     1      -4.129  13.105  23.195  0.00  0.00    +0.000 C 
ENDROOT
BRANCH   6   9
ATOM      9  C   UNL     1      -0.869  11.248  21.901  0.00  0.00    +0.000 A 
ATOM     10  C   UNL     1      -0.465  10.821  20.616  0.00  0.00    +0.000 A 
ATOM     11  C   UNL     1       0.114   9.562  20.383  0.00  0.00    +0.000 A 
ATOM     12  C   UNL     1       0.331   8.686  21.430  0.00  0.00    +0.000 A 
ATOM     13  C   UNL     1      -0.005   9.084  22.723  0.00  0.00    +0.000 A 
ATOM     14  C   UNL     1      -0.578  10.354  22.958  0.00  0.00    +0.000 A 
ENDBRANCH   6   9
BRANCH   6  15
ATOM     15  C   UNL     1      -1.164  13.902  22.384  0.00  0.00    +0.000 A 
ATOM     16  N   UNL     1      -1.026  14.283  23.652  0.00  0.00    +0.000 NA
ATOM     17  C   UNL     1      -0.579  15.560  23.689  0.00  0.00    +0.000 A 
ATOM     18  C   UNL     1      -0.397  16.005  22.415  0.00  0.00    +0.000 A 
ATOM     19  N   UNL     1      -0.731  14.946  21.586  0.00  0.00    +0.000 N 
BRANCH  19  20
ATOM     20  C   UNL     1      -0.728  15.113  20.144  0.00  0.00    +0.000 C 
BRANCH  20  21
ATOM     21  C   UNL     1       0.624  14.945  19.491  0.00  0.00    +0.000 A 
ATOM     22  C   UNL     1       1.048  13.641  19.201  0.00  0.00    +0.000 A 
ATOM     23  C   UNL     1       2.227  13.411  18.491  0.00  0.00    +0.000 A 
ATOM     24  C   UNL     1       2.998  14.485  18.052  0.00  0.00    +0.000 A 
ATOM     25  C   UNL     1       2.592  15.787  18.327  0.00  0.00    +0.000 A 
ATOM     26  C   UNL     1       1.408  16.017  19.033  0.00  0.00    +0.000 A 
ENDBRANCH  20  21
ENDBRANCH  19  20
ENDBRANCH   6  15
BRANCH   2  27
ATOM     27  C   UNL     1      -6.531  12.253  20.362  0.00  0.00    +0.000 C 
ATOM     28  C   UNL     1      -6.157  10.932  19.723  0.00  0.00    +0.000 C 
ATOM     29  C   UNL     1      -7.575  11.182  20.145  0.00  0.00    +0.000 C 
ENDBRANCH   2  27
TORSDOF 5
ENDMDL
MODEL 6
REMARK VINA RESULT:      -6.6      2.865      6.452
REMARK  Name = 
REMARK  5 active torsions:
REMARK  status: ('A' for Active; 'I' for Inactive)
REMARK    1  A    between atoms: C_2  and  C_3
REMARK    2  A    between atoms: C_9  and  C_10
REMARK    3  A    between atoms: C_9  and  C_16
REMARK    4  A    between atoms: N_20  and  C_21
REMARK    5  A    between atoms: C_21  and  C_22
REMARK                            x       y       z     vdW  Elec       q    Type
REMARK                         _______ _______ _______ _____ _____    ______ ____
ROOT
ATOM      1  O   UNL     1      -4.492  12.021  24.606  0.00  0.00    +0.000 OA
ATOM      2  C   UNL     1      -4.676  12.778  23.656  0.00  0.00    +0.000 C 
ATOM      3  N   UNL     1      -3.693  13.066  22.721  0.00  0.00    +0.000 N 
ATOM      4  C   UNL     1      -3.742  14.071  21.680  0.00  0.00    +0.000 C 
ATOM      5  C   UNL     1      -3.655  13.411  20.308  0.00  0.00    +0.000 C 
ATOM      6  C   UNL     1      -2.420  12.447  20.094  0.00  0.00    +0.000 C 
ATOM      7  C   UNL     1      -2.284  11.555  21.394  0.00  0.00    +0.000 C 
ATOM      8  C   UNL     1      -2.458  12.288  22.732  0.00  0.00    +0.000 C 
ENDROOT
BRANCH   6   9
ATOM      9  C   UNL     1      -2.767  11.532  18.850  0.00  0.00    +0.000 A 
ATOM     10  C   UNL     1      -1.823  10.610  18.343  0.00  0.00    +0.000 A 
ATOM     11  C   UNL     1      -1.964   9.993  17.088  0.00  0.00    +0.000 A 
ATOM     12  C   UNL     1      -3.066  10.258  16.297  0.00  0.00    +0.000 A 
ATOM     13  C   UNL     1      -4.048  11.122  16.777  0.00  0.00    +0.000 A 
ATOM     14  C   UNL     1      -3.911  11.734  18.043  0.00  0.00    +0.000 A 
ENDBRANCH   6   9
BRANCH   6  15
ATOM     15  C   UNL     1      -1.149  13.353  20.042  0.00  0.00    +0.000 A 
ATOM     16  N   UNL     1      -1.230  14.544  19.453  0.00  0.00    +0.000 NA
ATOM     17  C   UNL     1       0.002  15.101  19.398  0.00  0.00    +0.000 A 
ATOM     18  C   UNL     1       0.897  14.262  19.991  0.00  0.00    +0.000 A 
ATOM     19  N   UNL     1       0.166  13.170  20.433  0.00  0.00    +0.000 N 
BRANCH  19  20
ATOM     20  C   UNL     1       0.837  12.037  21.043  0.00  0.00    +0.000 C 
BRANCH  20  21
ATOM     21  C   UNL     1       1.085  10.874  20.112  0.00  0.00    +0.000 A 
ATOM     22  C   UNL     1       1.568  11.159  18.828  0.00  0.00    +0.000 A 
ATOM     23  C   UNL     1       1.934  10.134  17.955  0.00  0.00    +0.000 A 
ATOM     24  C   UNL     1       1.834   8.805  18.357  0.00  0.00    +0.000 A 
ATOM     25  C   UNL     1       1.361   8.501  19.630  0.00  0.00    +0.000 A 
ATOM     26  C   UNL     1       0.998   9.527  20.506  0.00  0.00    +0.000 A 
ENDBRANCH  20  21
ENDBRANCH  19  20
ENDBRANCH   6  15
BRANCH   2  27
ATOM     27  C   UNL     1      -6.034  13.381  23.469  0.00  0.00    +0.000 C 
ATOM     28  C   UNL     1      -6.990  12.735  22.487  0.00  0.00    +0.000 C 
ATOM     29  C   UNL     1      -7.271  12.663  23.959  0.00  0.00    +0.000 C 
ENDBRANCH   2  27
TORSDOF 5
ENDMDL
MODEL 7
REMARK VINA RESULT:      -6.6      2.608      6.974
REMARK  Name = 
REMARK  5 active torsions:
REMARK  status: ('A' for Active; 'I' for Inactive)
REMARK    1  A    between atoms: C_2  and  C_3
REMARK    2  A    between atoms: C_9  and  C_10
REMARK    3  A    between atoms: C_9  and  C_16
REMARK    4  A    between atoms: N_20  and  C_21
REMARK    5  A    between atoms: C_21  and  C_22
REMARK                            x       y       z     vdW  Elec       q    Type
REMARK                         _______ _______ _______ _____ _____    ______ ____
ROOT
ATOM      1  O   UNL     1       2.576  15.245  20.111  0.00  0.00    +0.000 OA
ATOM      2  C   UNL     1       2.657  14.413  19.211  0.00  0.00    +0.000 C 
ATOM      3  N   UNL     1       2.244  13.098  19.361  0.00  0.00    +0.000 N 
ATOM      4  C   UNL     1       2.459  12.001  18.440  0.00  0.00    +0.000 C 
ATOM      5  C   UNL     1       1.122  11.468  17.938  0.00  0.00    +0.000 C 
ATOM      6  C   UNL     1       0.088  11.056  19.062  0.00  0.00    +0.000 C 
ATOM      7  C   UNL     1       0.106  12.194  20.162  0.00  0.00    +0.000 C 
ATOM      8  C   UNL     1       1.493  12.726  20.555  0.00  0.00    +0.000 C 
ENDROOT
BRANCH   6   9
ATOM      9  C   UNL     1      -1.335  10.999  18.373  0.00  0.00    +0.000 A 
ATOM     10  C   UNL     1      -2.405  11.789  18.852  0.00  0.00    +0.000 A 
ATOM     11  C   UNL     1      -3.740  11.568  18.474  0.00  0.00    +0.000 A 
ATOM     12  C   UNL     1      -4.058  10.559  17.585  0.00  0.00    +0.000 A 
ATOM     13  C   UNL     1      -3.031   9.786  17.047  0.00  0.00    +0.000 A 
ATOM     14  C   UNL     1      -1.688  10.016  17.419  0.00  0.00    +0.000 A 
ENDBRANCH   6   9
BRANCH   6  15
ATOM     15  C   UNL     1       0.657   9.771  19.744  0.00  0.00    +0.000 A 
ATOM     16  N   UNL     1       0.441   9.583  21.044  0.00  0.00    +0.000 NA
ATOM     17  C   UNL     1       1.127   8.492  21.458  0.00  0.00    +0.000 A 
ATOM     18  C   UNL     1       1.780   7.946  20.394  0.00  0.00    +0.000 A 
ATOM     19  N   UNL     1       1.456   8.733  19.300  0.00  0.00    +0.000 N 
BRANCH  19  20
ATOM     20  C   UNL     1       2.060   8.472  18.006  0.00  0.00    +0.000 C 
BRANCH  20  21
ATOM     21  C   UNL     1       2.781   7.149  17.899  0.00  0.00    +0.000 A 
ATOM     22  C   UNL     1       2.027   5.981  18.070  0.00  0.00    +0.000 A 
ATOM     23  C   UNL     1       2.595   4.723  17.868  0.00  0.00    +0.000 A 
ATOM     24  C   UNL     1       3.928   4.614  17.481  0.00  0.00    +0.000 A 
ATOM     25  C   UNL     1       4.694   5.762  17.303  0.00  0.00    +0.000 A 
ATOM     26  C   UNL     1       4.123   7.022  17.500  0.00  0.00    +0.000 A 
ENDBRANCH  20  21
ENDBRANCH  19  20
ENDBRANCH   6  15
BRANCH   2  27
ATOM     27  C   UNL     1       3.179  14.847  17.875  0.00  0.00    +0.000 C 
ATOM     28  C   UNL     1       3.381  16.325  17.616  0.00  0.00    +0.000 C 
ATOM     29  C   UNL     1       4.571  15.420  17.740  0.00  0.00    +0.000 C 
ENDBRANCH   2  27
TORSDOF 5
ENDMDL
MODEL 8
REMARK VINA RESULT:      -6.6      2.586      6.964
REMARK  Name = 
REMARK  5 active torsions:
REMARK  status: ('A' for Active; 'I' for Inactive)
REMARK    1  A    between atoms: C_2  and  C_3
REMARK    2  A    between atoms: C_9  and  C_10
REMARK    3  A    between atoms: C_9  and  C_16
REMARK    4  A    between atoms: N_20  and  C_21
REMARK    5  A    between atoms: C_21  and  C_22
REMARK                            x       y       z     vdW  Elec       q    Type
REMARK                         _______ _______ _______ _____ _____    ______ ____
ROOT
ATOM      1  O   UNL     1       2.325  15.164  20.215  0.00  0.00    +0.000 OA
ATOM      2  C   UNL     1       2.440  14.351  19.302  0.00  0.00    +0.000 C 
ATOM      3  N   UNL     1       2.102  13.012  19.439  0.00  0.00    +0.000 N 
ATOM      4  C   UNL     1       2.366  11.942  18.500  0.00  0.00    +0.000 C 
ATOM      5  C   UNL     1       1.053  11.342  18.006  0.00  0.00    +0.000 C 
ATOM      6  C   UNL     1       0.059  10.859  19.136  0.00  0.00    +0.000 C 
ATOM      7  C   UNL     1       0.027  11.981  20.252  0.00  0.00    +0.000 C 
ATOM      8  C   UNL     1       1.388  12.583  20.636  0.00  0.00    +0.000 C 
ENDROOT
BRANCH   6   9
ATOM      9  C   UNL     1      -1.369  10.732  18.463  0.00  0.00    +0.000 A 
ATOM     10  C   UNL     1      -1.566   9.906  17.334  0.00  0.00    +0.000 A 
ATOM     11  C   UNL     1      -2.719   9.979  16.533  0.00  0.00    +0.000 A 
ATOM     12  C   UNL     1      -3.731  10.869  16.842  0.00  0.00    +0.000 A 
ATOM     13  C   UNL     1      -3.603  11.669  17.976  0.00  0.00    +0.000 A 
ATOM     14  C   UNL     1      -2.448  11.587  18.786  0.00  0.00    +0.000 A 
ENDBRANCH   6   9
BRANCH   6  15
ATOM     15  C   UNL     1       0.706   9.598  19.793  0.00  0.00    +0.000 A 
ATOM     16  N   UNL     1       0.570   9.414  21.105  0.00  0.00    +0.000 NA
ATOM     17  C   UNL     1       1.313   8.349  21.486  0.00  0.00    +0.000 A 
ATOM     18  C   UNL     1       1.922   7.815  20.390  0.00  0.00    +0.000 A 
ATOM     19  N   UNL     1       1.511   8.582  19.311  0.00  0.00    +0.000 N 
BRANCH  19  20
ATOM     20  C   UNL     1       2.049   8.331  17.986  0.00  0.00    +0.000 C 
BRANCH  20  21
ATOM     21  C   UNL     1       2.692   6.975  17.812  0.00  0.00    +0.000 A 
ATOM     22  C   UNL     1       4.070   6.935  17.560  0.00  0.00    +0.000 A 
ATOM     23  C   UNL     1       4.756   5.721  17.507  0.00  0.00    +0.000 A 
ATOM     24  C   UNL     1       4.074   4.525  17.715  0.00  0.00    +0.000 A 
ATOM     25  C   UNL     1       2.706   4.543  17.970  0.00  0.00    +0.000 A 
ATOM     26  C   UNL     1       2.020   5.759  18.028  0.00  0.00    +0.000 A 
ENDBRANCH  20  21
ENDBRANCH  19  20
ENDBRANCH   6  15
BRANCH   2  27
ATOM     27  C   UNL     1       2.920  14.830  17.966  0.00  0.00    +0.000 C 
ATOM     28  C   UNL     1       2.997  16.321  17.711  0.00  0.00    +0.000 C 
ATOM     29  C   UNL     1       4.259  15.518  17.829  0.00  0.00    +0.000 C 
ENDBRANCH   2  27
TORSDOF 5
ENDMDL
MODEL 9
REMARK VINA RESULT:      -6.6      3.056      5.642
REMARK  Name = 
REMARK  5 active torsions:
REMARK  status: ('A' for Active; 'I' for Inactive)
REMARK    1  A    between atoms: C_2  and  C_3
REMARK    2  A    between atoms: C_9  and  C_10
REMARK    3  A    between atoms: C_9  and  C_16
REMARK    4  A    between atoms: N_20  and  C_21
REMARK    5  A    between atoms: C_21  and  C_22
REMARK                            x       y       z     vdW  Elec       q    Type
REMARK                         _______ _______ _______ _____ _____    ______ ____
ROOT
ATOM      1  O   UNL     1      -0.183  10.327  19.309  0.00  0.00    +0.000 OA
ATOM      2  C   UNL     1      -0.330  10.321  20.528  0.00  0.00    +0.000 C 
ATOM      3  N   UNL     1      -0.775  11.427  21.238  0.00  0.00    +0.000 N 
ATOM      4  C   UNL     1      -0.810  11.588  22.677  0.00  0.00    +0.000 C 
ATOM      5  C   UNL     1      -2.249  11.772  23.149  0.00  0.00    +0.000 C 
ATOM      6  C   UNL     1      -3.055  12.932  22.439  0.00  0.00    +0.000 C 
ATOM      7  C   UNL     1      -2.754  12.838  20.888  0.00  0.00    +0.000 C 
ATOM      8  C   UNL     1      -1.290  12.577  20.503  0.00  0.00    +0.000 C 
ENDROOT
BRANCH   6   9
ATOM      9  C   UNL     1      -4.590  12.650  22.705  0.00  0.00    +0.000 A 
ATOM     10  C   UNL     1      -5.514  12.605  21.637  0.00  0.00    +0.000 A 
ATOM     11  C   UNL     1      -6.904  12.649  21.835  0.00  0.00    +0.000 A 
ATOM     12  C   UNL     1      -7.428  12.719  23.112  0.00  0.00    +0.000 A 
ATOM     13  C   UNL     1      -6.557  12.714  24.199  0.00  0.00    +0.000 A 
ATOM     14  C   UNL     1      -5.159  12.660  24.000  0.00  0.00    +0.000 A 
ENDBRANCH   6   9
BRANCH   6  15
ATOM     15  C   UNL     1      -2.431  14.277  22.931  0.00  0.00    +0.000 A 
ATOM     16  N   UNL     1      -1.617  14.262  23.985  0.00  0.00    +0.000 NA
ATOM     17  C   UNL     1      -1.300  15.533  24.323  0.00  0.00    +0.000 A 
ATOM     18  C   UNL     1      -1.901  16.390  23.451  0.00  0.00    +0.000 A 
ATOM     19  N   UNL     1      -2.589  15.596  22.545  0.00  0.00    +0.000 N 
BRANCH  19  20
ATOM     20  C   UNL     1      -3.416  16.203  21.519  0.00  0.00    +0.000 C 
BRANCH  20  21
ATOM     21  C   UNL     1      -4.880  16.317  21.873  0.00  0.00    +0.000 A 
ATOM     22  C   UNL     1      -5.811  16.235  20.828  0.00  0.00    +0.000 A 
ATOM     23  C   UNL     1      -7.181  16.211  21.088  0.00  0.00    +0.000 A 
ATOM     24  C   UNL     1      -7.644  16.260  22.400  0.00  0.00    +0.000 A 
ATOM     25  C   UNL     1      -6.736  16.339  23.452  0.00  0.00    +0.000 A 
ATOM     26  C   UNL     1      -5.363  16.357  23.192  0.00  0.00    +0.000 A 
ENDBRANCH  20  21
ENDBRANCH  19  20
ENDBRANCH   6  15
BRANCH   2  27
ATOM     27  C   UNL     1      -0.066   9.053  21.280  0.00  0.00    +0.000 C 
ATOM     28  C   UNL     1       1.125   8.206  20.885  0.00  0.00    +0.000 C 
ATOM     29  C   UNL     1       1.129   8.934  22.197  0.00  0.00    +0.000 C 
ENDBRANCH   2  27
TORSDOF 5
ENDMDL
