MODEL 1
REMARK VINA RESULT:      -6.9      0.000      0.000
REMARK  Name = 
REMARK  5 active torsions:
REMARK  status: ('A' for Active; 'I' for Inactive)
REMARK    1  A    between atoms: C_1  and  C_2
REMARK    2  A    between atoms: C_2  and  C_3
REMARK    3  A    between atoms: C_8  and  C_9
REMARK    4  A    between atoms: C_23  and  C_24
REMARK    5  A    between atoms: C_28  and  C_29
REMARK                            x       y       z     vdW  Elec       q    Type
REMARK                         _______ _______ _______ _____ _____    ______ ____
ROOT
ATOM      1  C   UNL     1       7.278  15.086  24.683  0.00  0.00    +0.000 C 
ATOM      2  C   UNL     1       8.540  15.207  25.138  0.00  0.00    +0.000 C 
ATOM      3  C   UNL     1       9.489  15.748  24.175  0.00  0.00    +0.000 C 
ATOM      4  C   UNL     1       8.650  15.927  22.903  0.00  0.00    +0.000 C 
ATOM      5  C   UNL     1       9.029  15.332  21.578  0.00  0.00    +0.000 C 
ATOM      6  C   UNL     1      10.493  15.015  21.471  0.00  0.00    +0.000 C 
ATOM      7  C   UNL     1      10.575  13.948  20.419  0.00  0.00    +0.000 C 
ATOM      8  C   UNL     1      10.204  14.561  19.088  0.00  0.00    +0.000 C 
ATOM      9  C   UNL     1      10.265  13.467  18.024  0.00  0.00    +0.000 C 
ATOM     10  C   UNL     1      11.353  13.820  17.069  0.00  0.00    +0.000 C 
ATOM     11  O   UNL     1      12.319  13.093  16.852  0.00  0.00    +0.000 OA
ATOM     12  N   UNL     1      11.083  14.956  16.348  0.00  0.00    +0.000 N 
ATOM     13  C   UNL     1      10.757  16.265  16.920  0.00  0.00    +0.000 C 
ATOM     14  C   UNL     1       9.401  16.501  17.707  0.00  0.00    +0.000 C 
ATOM     15  C   UNL     1       8.977  15.567  18.955  0.00  0.00    +0.000 C 
ATOM     16  C   UNL     1       7.653  14.889  18.523  0.00  0.00    +0.000 C 
ATOM     17  C   UNL     1       8.645  16.317  20.418  0.00  0.00    +0.000 C 
ATOM     18  C   UNL     1       7.187  16.929  20.793  0.00  0.00    +0.000 C 
ATOM     19  C   UNL     1       6.835  17.200  22.427  0.00  0.00    +0.000 C 
ATOM     20  C   UNL     1       7.103  15.820  23.235  0.00  0.00    +0.000 C 
ATOM     21  C   UNL     1       5.903  15.075  22.612  0.00  0.00    +0.000 C 
ATOM     22  H   UNL     1      10.630  14.722  15.476  0.00  0.00    +0.000 HD
ENDROOT
BRANCH   1  28
ATOM     23  C   UNL     1       7.185  12.398  24.688  0.00  0.00    +0.000 A 
ATOM     24  C   UNL     1       6.445  11.217  25.003  0.00  0.00    +0.000 A 
ATOM     25  C   UNL     1       5.373  11.275  25.860  0.00  0.00    +0.000 A 
ATOM     26  N   UNL     1       4.965  12.425  26.395  0.00  0.00    +0.000 NA
ATOM     27  C   UNL     1       5.633  13.557  26.009  0.00  0.00    +0.000 A 
ATOM     28  C   UNL     1       6.765  13.679  25.181  0.00  0.00    +0.000 A 
BRANCH  23  30
ATOM     29  C   UNL     1       8.085  11.926  22.440  0.00  0.00    +0.000 C 
ATOM     30  C   UNL     1       8.451  12.109  23.905  0.00  0.00    +0.000 C 
ENDBRANCH  23  30
ENDBRANCH   1  28
TORSDOF 2
ENDMDL
MODEL 2
REMARK VINA RESULT:      -6.1      9.419     12.293
REMARK  Name = 
REMARK  5 active torsions:
REMARK  status: ('A' for Active; 'I' for Inactive)
REMARK    1  A    between atoms: C_1  and  C_2
REMARK    2  A    between atoms: C_2  and  C_3
REMARK    3  A    between atoms: C_8  and  C_9
REMARK    4  A    between atoms: C_23  and  C_24
REMARK    5  A    between atoms: C_28  and  C_29
REMARK                            x       y       z     vdW  Elec       q    Type
REMARK                         _______ _______ _______ _____ _____    ______ ____
ROOT
ATOM      1  C   UNL     1       0.193  10.944  18.594  0.00  0.00    +0.000 C 
ATOM      2  C   UNL     1      -0.898  10.645  17.864  0.00  0.00    +0.000 C 
ATOM      3  C   UNL     1      -1.983  11.612  17.959  0.00  0.00    +0.000 C 
ATOM      4  C   UNL     1      -1.462  12.640  18.972  0.00  0.00    +0.000 C 
ATOM      5  C   UNL     1      -2.217  13.029  20.210  0.00  0.00    +0.000 C 
ATOM      6  C   UNL     1      -3.690  12.752  20.114  0.00  0.00    +0.000 C 
ATOM      7  C   UNL     1      -4.147  12.630  21.538  0.00  0.00    +0.000 C 
ATOM      8  C   UNL     1      -4.041  13.989  22.191  0.00  0.00    +0.000 C 
ATOM      9  C   UNL     1      -4.483  13.855  23.647  0.00  0.00    +0.000 C 
ATOM     10  C   UNL     1      -5.722  14.664  23.823  0.00  0.00    +0.000 C 
ATOM     11  O   UNL     1      -6.789  14.188  24.200  0.00  0.00    +0.000 OA
ATOM     12  N   UNL     1      -5.504  16.012  23.674  0.00  0.00    +0.000 N 
ATOM     13  C   UNL     1      -4.900  16.648  22.501  0.00  0.00    +0.000 C 
ATOM     14  C   UNL     1      -3.376  16.412  22.133  0.00  0.00    +0.000 C 
ATOM     15  C   UNL     1      -2.775  14.923  21.953  0.00  0.00    +0.000 C 
ATOM     16  C   UNL     1      -1.682  14.792  23.043  0.00  0.00    +0.000 C 
ATOM     17  C   UNL     1      -2.014  14.557  20.503  0.00  0.00    +0.000 C 
ATOM     18  C   UNL     1      -0.447  14.880  20.215  0.00  0.00    +0.000 C 
ATOM     19  C   UNL     1       0.318  14.043  18.957  0.00  0.00    +0.000 C 
ATOM     20  C   UNL     1       0.096  12.456  19.203  0.00  0.00    +0.000 C 
ATOM     21  C   UNL     1       1.015  12.390  20.441  0.00  0.00    +0.000 C 
ATOM     22  H   UNL     1      -5.307  16.439  24.569  0.00  0.00    +0.000 HD
ENDROOT
BRANCH   1  28
ATOM     23  C   UNL     1       0.361   9.191  20.627  0.00  0.00    +0.000 A 
ATOM     24  C   UNL     1       1.064   8.099  21.224  0.00  0.00    +0.000 A 
ATOM     25  C   UNL     1       1.955   7.359  20.486  0.00  0.00    +0.000 A 
ATOM     26  N   UNL     1       2.223   7.649  19.214  0.00  0.00    +0.000 NA
ATOM     27  C   UNL     1       1.607   8.753  18.689  0.00  0.00    +0.000 A 
ATOM     28  C   UNL     1       0.644   9.596  19.280  0.00  0.00    +0.000 A 
BRANCH  23  30
ATOM     29  C   UNL     1      -0.277   9.633  22.969  0.00  0.00    +0.000 C 
ATOM     30  C   UNL     1      -0.728   9.751  21.522  0.00  0.00    +0.000 C 
ENDBRANCH  23  30
ENDBRANCH   1  28
TORSDOF 2
ENDMDL
MODEL 3
REMARK VINA RESULT:      -6.0      2.613      7.462
REMARK  Name = 
REMARK  5 active torsions:
REMARK  status: ('A' for Active; 'I' for Inactive)
REMARK    1  A    between atoms: C_1  and  C_2
REMARK    2  A    between atoms: C_2  and  C_3
REMARK    3  A    between atoms: C_8  and  C_9
REMARK    4  A    between atoms: C_23  and  C_24
REMARK    5  A    between atoms: C_28  and  C_29
REMARK                            x       y       z     vdW  Elec       q    Type
REMARK                         _______ _______ _______ _____ _____    ______ ____
ROOT
ATOM      1  C   UNL     1       9.274  15.689  19.754  0.00  0.00    +0.000 C 
ATOM      2  C   UNL     1       8.048  15.667  19.199  0.00  0.00    +0.000 C 
ATOM      3  C   UNL     1       6.945  15.662  20.149  0.00  0.00    +0.000 C 
ATOM      4  C   UNL     1       7.644  15.617  21.514  0.00  0.00    +0.000 C 
ATOM      5  C   UNL     1       7.353  14.572  22.553  0.00  0.00    +0.000 C 
ATOM      6  C   UNL     1       6.008  13.927  22.378  0.00  0.00    +0.000 C 
ATOM      7  C   UNL     1       6.134  12.596  23.060  0.00  0.00    +0.000 C 
ATOM      8  C   UNL     1       6.271  12.832  24.546  0.00  0.00    +0.000 C 
ATOM      9  C   UNL     1       6.424  11.477  25.233  0.00  0.00    +0.000 C 
ATOM     10  C   UNL     1       5.233  11.270  26.104  0.00  0.00    +0.000 C 
ATOM     11  O   UNL     1       4.466  10.320  25.980  0.00  0.00    +0.000 OA
ATOM     12  N   UNL     1       5.177  12.157  27.150  0.00  0.00    +0.000 N 
ATOM     13  C   UNL     1       5.201  13.617  27.025  0.00  0.00    +0.000 C 
ATOM     14  C   UNL     1       6.497  14.375  26.517  0.00  0.00    +0.000 C 
ATOM     15  C   UNL     1       7.204  13.989  25.116  0.00  0.00    +0.000 C 
ATOM     16  C   UNL     1       8.629  13.517  25.498  0.00  0.00    +0.000 C 
ATOM     17  C   UNL     1       7.419  15.209  23.985  0.00  0.00    +0.000 C 
ATOM     18  C   UNL     1       8.701  16.209  23.989  0.00  0.00    +0.000 C 
ATOM     19  C   UNL     1       9.061  17.044  22.560  0.00  0.00    +0.000 C 
ATOM     20  C   UNL     1       9.185  15.958  21.362  0.00  0.00    +0.000 C 
ATOM     21  C   UNL     1      10.496  15.337  21.890  0.00  0.00    +0.000 C 
ATOM     22  H   UNL     1       5.625  11.769  27.968  0.00  0.00    +0.000 HD
ENDROOT
BRANCH   1  28
ATOM     23  C   UNL     1      10.170  13.230  19.132  0.00  0.00    +0.000 A 
ATOM     24  C   UNL     1      11.203  12.435  18.546  0.00  0.00    +0.000 A 
ATOM     25  C   UNL     1      12.133  13.006  17.712  0.00  0.00    +0.000 A 
ATOM     26  N   UNL     1      12.131  14.313  17.450  0.00  0.00    +0.000 NA
ATOM     27  C   UNL     1      11.188  15.070  18.093  0.00  0.00    +0.000 A 
ATOM     28  C   UNL     1      10.143  14.653  18.941  0.00  0.00    +0.000 A 
BRANCH  23  30
ATOM     29  C   UNL     1       9.678  11.952  21.184  0.00  0.00    +0.000 C 
ATOM     30  C   UNL     1       9.119  12.401  19.843  0.00  0.00    +0.000 C 
ENDBRANCH  23  30
ENDBRANCH   1  28
TORSDOF 2
ENDMDL
MODEL 4
REMARK VINA RESULT:      -5.9      8.265     11.937
REMARK  Name = 
REMARK  5 active torsions:
REMARK  status: ('A' for Active; 'I' for Inactive)
REMARK    1  A    between atoms: C_1  and  C_2
REMARK    2  A    between atoms: C_2  and  C_3
REMARK    3  A    between atoms: C_8  and  C_9
REMARK    4  A    between atoms: C_23  and  C_24
REMARK    5  A    between atoms: C_28  and  C_29
REMARK                            x       y       z     vdW  Elec       q    Type
REMARK                         _______ _______ _______ _____ _____    ______ ____
ROOT
ATOM      1  C   UNL     1       2.374  15.651  19.922  0.00  0.00    +0.000 C 
ATOM      2  C   UNL     1       2.635  16.399  21.011  0.00  0.00    +0.000 C 
ATOM      3  C   UNL     1       1.938  15.984  22.221  0.00  0.00    +0.000 C 
ATOM      4  C   UNL     1       1.065  14.814  21.750  0.00  0.00    +0.000 C 
ATOM      5  C   UNL     1      -0.421  14.761  21.962  0.00  0.00    +0.000 C 
ATOM      6  C   UNL     1      -0.888  15.640  23.087  0.00  0.00    +0.000 C 
ATOM      7  C   UNL     1      -2.329  15.919  22.778  0.00  0.00    +0.000 C 
ATOM      8  C   UNL     1      -3.108  14.634  22.930  0.00  0.00    +0.000 C 
ATOM      9  C   UNL     1      -4.570  14.917  22.590  0.00  0.00    +0.000 C 
ATOM     10  C   UNL     1      -5.374  14.708  23.827  0.00  0.00    +0.000 C 
ATOM     11  O   UNL     1      -6.064  15.587  24.337  0.00  0.00    +0.000 OA
ATOM     12  N   UNL     1      -5.387  13.400  24.241  0.00  0.00    +0.000 N 
ATOM     13  C   UNL     1      -4.200  12.588  24.521  0.00  0.00    +0.000 C 
ATOM     14  C   UNL     1      -3.207  12.159  23.361  0.00  0.00    +0.000 C 
ATOM     15  C   UNL     1      -2.540  13.253  22.377  0.00  0.00    +0.000 C 
ATOM     16  C   UNL     1      -3.049  12.888  20.960  0.00  0.00    +0.000 C 
ATOM     17  C   UNL     1      -0.867  13.287  22.262  0.00  0.00    +0.000 C 
ATOM     18  C   UNL     1      -0.026  12.333  21.250  0.00  0.00    +0.000 C 
ATOM     19  C   UNL     1       1.559  12.787  20.864  0.00  0.00    +0.000 C 
ATOM     20  C   UNL     1       1.526  14.314  20.318  0.00  0.00    +0.000 C 
ATOM     21  C   UNL     1       0.802  13.960  19.001  0.00  0.00    +0.000 C 
ATOM     22  H   UNL     1      -6.182  12.913  23.851  0.00  0.00    +0.000 HD
ENDROOT
BRANCH   1  28
ATOM     23  C   UNL     1       1.035  17.505  18.505  0.00  0.00    +0.000 A 
ATOM     24  C   UNL     1       0.843  18.156  17.248  0.00  0.00    +0.000 A 
ATOM     25  C   UNL     1       1.798  18.067  16.265  0.00  0.00    +0.000 A 
ATOM     26  N   UNL     1       2.908  17.348  16.430  0.00  0.00    +0.000 NA
ATOM     27  C   UNL     1       3.030  16.659  17.607  0.00  0.00    +0.000 A 
ATOM     28  C   UNL     1       2.179  16.666  18.729  0.00  0.00    +0.000 A 
BRANCH  23  30
ATOM     29  C   UNL     1      -1.276  17.089  19.261  0.00  0.00    +0.000 C 
ATOM     30  C   UNL     1      -0.011  17.888  19.534  0.00  0.00    +0.000 C 
ENDBRANCH  23  30
ENDBRANCH   1  28
TORSDOF 2
ENDMDL
MODEL 5
REMARK VINA RESULT:      -5.9      8.707     11.291
REMARK  Name = 
REMARK  5 active torsions:
REMARK  status: ('A' for Active; 'I' for Inactive)
REMARK    1  A    between atoms: C_1  and  C_2
REMARK    2  A    between atoms: C_2  and  C_3
REMARK    3  A    between atoms: C_8  and  C_9
REMARK    4  A    between atoms: C_23  and  C_24
REMARK    5  A    between atoms: C_28  and  C_29
REMARK                            x       y       z     vdW  Elec       q    Type
REMARK                         _______ _______ _______ _____ _____    ______ ____
ROOT
ATOM      1  C   UNL     1       0.315  10.944  18.592  0.00  0.00    +0.000 C 
ATOM      2  C   UNL     1      -0.964  10.767  18.211  0.00  0.00    +0.000 C 
ATOM      3  C   UNL     1      -1.825  11.927  18.397  0.00  0.00    +0.000 C 
ATOM      4  C   UNL     1      -0.902  12.958  19.059  0.00  0.00    +0.000 C 
ATOM      5  C   UNL     1      -1.229  13.640  20.357  0.00  0.00    +0.000 C 
ATOM      6  C   UNL     1      -2.699  13.638  20.670  0.00  0.00    +0.000 C 
ATOM      7  C   UNL     1      -2.770  13.790  22.161  0.00  0.00    +0.000 C 
ATOM      8  C   UNL     1      -2.288  15.175  22.523  0.00  0.00    +0.000 C 
ATOM      9  C   UNL     1      -2.338  15.317  24.043  0.00  0.00    +0.000 C 
ATOM     10  C   UNL     1      -3.348  16.363  24.370  0.00  0.00    +0.000 C 
ATOM     11  O   UNL     1      -4.334  16.151  25.071  0.00  0.00    +0.000 OA
ATOM     12  N   UNL     1      -2.978  17.614  23.942  0.00  0.00    +0.000 N 
ATOM     13  C   UNL     1      -2.622  17.967  22.566  0.00  0.00    +0.000 C 
ATOM     14  C   UNL     1      -1.307  17.400  21.887  0.00  0.00    +0.000 C 
ATOM     15  C   UNL     1      -1.007  15.814  21.827  0.00  0.00    +0.000 C 
ATOM     16  C   UNL     1       0.305  15.618  22.626  0.00  0.00    +0.000 C 
ATOM     17  C   UNL     1      -0.727  15.126  20.322  0.00  0.00    +0.000 C 
ATOM     18  C   UNL     1       0.734  15.105  19.612  0.00  0.00    +0.000 C 
ATOM     19  C   UNL     1       0.999  13.983  18.371  0.00  0.00    +0.000 C 
ATOM     20  C   UNL     1       0.614  12.512  18.934  0.00  0.00    +0.000 C 
ATOM     21  C   UNL     1       1.811  12.432  19.906  0.00  0.00    +0.000 C 
ATOM     22  H   UNL     1      -2.485  18.107  24.674  0.00  0.00    +0.000 HD
ENDROOT
BRANCH   1  28
ATOM     23  C   UNL     1       0.498   9.366  20.763  0.00  0.00    +0.000 A 
ATOM     24  C   UNL     1       1.168   8.287  21.417  0.00  0.00    +0.000 A 
ATOM     25  C   UNL     1       1.970   7.431  20.703  0.00  0.00    +0.000 A 
ATOM     26  N   UNL     1       2.181   7.592  19.398  0.00  0.00    +0.000 NA
ATOM     27  C   UNL     1       1.601   8.684  18.809  0.00  0.00    +0.000 A 
ATOM     28  C   UNL     1       0.726   9.634  19.371  0.00  0.00    +0.000 A 
BRANCH  23  30
ATOM     29  C   UNL     1      -0.210   9.693  23.103  0.00  0.00    +0.000 C 
ATOM     30  C   UNL     1      -0.504  10.068  21.659  0.00  0.00    +0.000 C 
ENDBRANCH  23  30
ENDBRANCH   1  28
TORSDOF 2
ENDMDL
MODEL 6
REMARK VINA RESULT:      -5.9      9.452     11.218
REMARK  Name = 
REMARK  5 active torsions:
REMARK  status: ('A' for Active; 'I' for Inactive)
REMARK    1  A    between atoms: C_1  and  C_2
REMARK    2  A    between atoms: C_2  and  C_3
REMARK    3  A    between atoms: C_8  and  C_9
REMARK    4  A    between atoms: C_23  and  C_24
REMARK    5  A    between atoms: C_28  and  C_29
REMARK                            x       y       z     vdW  Elec       q    Type
REMARK                         _______ _______ _______ _____ _____    ______ ____
ROOT
ATOM      1  C   UNL     1      -3.627  15.041  23.355  0.00  0.00    +0.000 C 
ATOM      2  C   UNL     1      -2.888  14.524  24.355  0.00  0.00    +0.000 C 
ATOM      3  C   UNL     1      -1.531  14.150  23.985  0.00  0.00    +0.000 C 
ATOM      4  C   UNL     1      -1.472  14.447  22.481  0.00  0.00    +0.000 C 
ATOM      5  C   UNL     1      -1.065  13.428  21.456  0.00  0.00    +0.000 C 
ATOM      6  C   UNL     1      -0.243  12.310  22.032  0.00  0.00    +0.000 C 
ATOM      7  C   UNL     1      -0.439  11.166  21.080  0.00  0.00    +0.000 C 
ATOM      8  C   UNL     1       0.228  11.516  19.770  0.00  0.00    +0.000 C 
ATOM      9  C   UNL     1       0.005  10.360  18.797  0.00  0.00    +0.000 C 
ATOM     10  C   UNL     1       1.334   9.761  18.488  0.00  0.00    +0.000 C 
ATOM     11  O   UNL     1       1.610   8.585  18.707  0.00  0.00    +0.000 OA
ATOM     12  N   UNL     1       2.154  10.614  17.793  0.00  0.00    +0.000 N 
ATOM     13  C   UNL     1       2.531  11.964  18.220  0.00  0.00    +0.000 C 
ATOM     14  C   UNL     1       1.460  13.131  18.291  0.00  0.00    +0.000 C 
ATOM     15  C   UNL     1       0.092  12.969  19.136  0.00  0.00    +0.000 C 
ATOM     16  C   UNL     1      -1.046  13.096  18.094  0.00  0.00    +0.000 C 
ATOM     17  C   UNL     1      -0.241  14.117  20.313  0.00  0.00    +0.000 C 
ATOM     18  C   UNL     1      -0.981  15.528  19.994  0.00  0.00    +0.000 C 
ATOM     19  C   UNL     1      -1.696  16.360  21.284  0.00  0.00    +0.000 C 
ATOM     20  C   UNL     1      -2.706  15.341  22.041  0.00  0.00    +0.000 C 
ATOM     21  C   UNL     1      -3.728  15.296  20.884  0.00  0.00    +0.000 C 
ATOM     22  H   UNL     1       2.053  10.470  16.798  0.00  0.00    +0.000 HD
ENDROOT
BRANCH   1  28
ATOM     23  C   UNL     1      -6.298  15.055  23.672  0.00  0.00    +0.000 A 
ATOM     24  C   UNL     1      -7.471  14.335  24.054  0.00  0.00    +0.000 A 
ATOM     25  C   UNL     1      -7.449  12.964  24.140  0.00  0.00    +0.000 A 
ATOM     26  N   UNL     1      -6.337  12.265  23.912  0.00  0.00    +0.000 NA
ATOM     27  C   UNL     1      -5.203  12.981  23.637  0.00  0.00    +0.000 A 
ATOM     28  C   UNL     1      -5.052  14.372  23.470  0.00  0.00    +0.000 A 
BRANCH  23  30
ATOM     29  C   UNL     1      -7.610  16.651  22.325  0.00  0.00    +0.000 C 
ATOM     30  C   UNL     1      -6.565  16.527  23.422  0.00  0.00    +0.000 C 
ENDBRANCH  23  30
ENDBRANCH   1  28
TORSDOF 2
ENDMDL
MODEL 7
REMARK VINA RESULT:      -5.9      8.743     11.399
REMARK  Name = 
REMARK  5 active torsions:
REMARK  status: ('A' for Active; 'I' for Inactive)
REMARK    1  A    between atoms: C_1  and  C_2
REMARK    2  A    between atoms: C_2  and  C_3
REMARK    3  A    between atoms: C_8  and  C_9
REMARK    4  A    between atoms: C_23  and  C_24
REMARK    5  A    between atoms: C_28  and  C_29
REMARK                            x       y       z     vdW  Elec       q    Type
REMARK                         _______ _______ _______ _____ _____    ______ ____
ROOT
ATOM      1  C   UNL     1      -0.123  10.606  18.191  0.00  0.00    +0.000 C 
ATOM      2  C   UNL     1      -1.425  10.261  18.219  0.00  0.00    +0.000 C 
ATOM      3  C   UNL     1      -2.321  11.289  18.729  0.00  0.00    +0.000 C 
ATOM      4  C   UNL     1      -1.373  12.429  19.126  0.00  0.00    +0.000 C 
ATOM      5  C   UNL     1      -1.355  13.043  20.496  0.00  0.00    +0.000 C 
ATOM      6  C   UNL     1      -2.637  12.836  21.252  0.00  0.00    +0.000 C 
ATOM      7  C   UNL     1      -2.251  12.957  22.696  0.00  0.00    +0.000 C 
ATOM      8  C   UNL     1      -1.858  14.391  22.966  0.00  0.00    +0.000 C 
ATOM      9  C   UNL     1      -1.441  14.505  24.431  0.00  0.00    +0.000 C 
ATOM     10  C   UNL     1      -2.418  15.399  25.115  0.00  0.00    +0.000 C 
ATOM     11  O   UNL     1      -3.096  15.045  26.075  0.00  0.00    +0.000 OA
ATOM     12  N   UNL     1      -2.363  16.694  24.663  0.00  0.00    +0.000 N 
ATOM     13  C   UNL     1      -2.510  17.110  23.266  0.00  0.00    +0.000 C 
ATOM     14  C   UNL     1      -1.417  16.737  22.179  0.00  0.00    +0.000 C 
ATOM     15  C   UNL     1      -0.954  15.207  21.941  0.00  0.00    +0.000 C 
ATOM     16  C   UNL     1       0.557  15.183  22.278  0.00  0.00    +0.000 C 
ATOM     17  C   UNL     1      -1.081  14.584  20.389  0.00  0.00    +0.000 C 
ATOM     18  C   UNL     1       0.070  14.772  19.258  0.00  0.00    +0.000 C 
ATOM     19  C   UNL     1       0.067  13.713  17.937  0.00  0.00    +0.000 C 
ATOM     20  C   UNL     1       0.069  12.196  18.509  0.00  0.00    +0.000 C 
ATOM     21  C   UNL     1       1.512  12.268  19.052  0.00  0.00    +0.000 C 
ATOM     22  H   UNL     1      -1.731  17.240  25.230  0.00  0.00    +0.000 HD
ENDROOT
BRANCH   1  28
ATOM     23  C   UNL     1       0.713   8.891  20.087  0.00  0.00    +0.000 A 
ATOM     24  C   UNL     1       1.693   7.939  20.505  0.00  0.00    +0.000 A 
ATOM     25  C   UNL     1       2.554   7.380  19.592  0.00  0.00    +0.000 A 
ATOM     26  N   UNL     1       2.534   7.727  18.306  0.00  0.00    +0.000 NA
ATOM     27  C   UNL     1       1.648   8.707  17.944  0.00  0.00    +0.000 A 
ATOM     28  C   UNL     1       0.674   9.355  18.729  0.00  0.00    +0.000 A 
BRANCH  23  30
ATOM     29  C   UNL     1       0.338  10.291  22.083  0.00  0.00    +0.000 C 
ATOM     30  C   UNL     1      -0.279   9.235  21.181  0.00  0.00    +0.000 C 
ENDBRANCH  23  30
ENDBRANCH   1  28
TORSDOF 2
ENDMDL
MODEL 8
REMARK VINA RESULT:      -5.8      3.600      6.687
REMARK  Name = 
REMARK  5 active torsions:
REMARK  status: ('A' for Active; 'I' for Inactive)
REMARK    1  A    between atoms: C_1  and  C_2
REMARK    2  A    between atoms: C_2  and  C_3
REMARK    3  A    between atoms: C_8  and  C_9
REMARK    4  A    between atoms: C_23  and  C_24
REMARK    5  A    between atoms: C_28  and  C_29
REMARK                            x       y       z     vdW  Elec       q    Type
REMARK                         _______ _______ _______ _____ _____    ______ ____
ROOT
ATOM      1  C   UNL     1      10.164  14.554  20.968  0.00  0.00    +0.000 C 
ATOM      2  C   UNL     1      10.513  15.806  20.617  0.00  0.00    +0.000 C 
ATOM      3  C   UNL     1       9.468  16.805  20.794  0.00  0.00    +0.000 C 
ATOM      4  C   UNL     1       8.266  15.988  21.285  0.00  0.00    +0.000 C 
ATOM      5  C   UNL     1       6.923  16.017  20.614  0.00  0.00    +0.000 C 
ATOM      6  C   UNL     1       6.702  17.254  19.790  0.00  0.00    +0.000 C 
ATOM      7  C   UNL     1       5.662  16.859  18.784  0.00  0.00    +0.000 C 
ATOM      8  C   UNL     1       4.358  16.628  19.511  0.00  0.00    +0.000 C 
ATOM      9  C   UNL     1       3.308  16.203  18.487  0.00  0.00    +0.000 C 
ATOM     10  C   UNL     1       2.263  17.264  18.437  0.00  0.00    +0.000 C 
ATOM     11  O   UNL     1       1.978  17.880  17.414  0.00  0.00    +0.000 OA
ATOM     12  N   UNL     1       1.550  17.365  19.606  0.00  0.00    +0.000 N 
ATOM     13  C   UNL     1       2.128  17.582  20.934  0.00  0.00    +0.000 C 
ATOM     14  C   UNL     1       3.019  16.472  21.633  0.00  0.00    +0.000 C 
ATOM     15  C   UNL     1       4.311  15.842  20.894  0.00  0.00    +0.000 C 
ATOM     16  C   UNL     1       3.998  14.332  20.748  0.00  0.00    +0.000 C 
ATOM     17  C   UNL     1       5.785  15.923  21.690  0.00  0.00    +0.000 C 
ATOM     18  C   UNL     1       6.268  14.820  22.781  0.00  0.00    +0.000 C 
ATOM     19  C   UNL     1       7.922  14.725  23.135  0.00  0.00    +0.000 C 
ATOM     20  C   UNL     1       8.725  14.539  21.739  0.00  0.00    +0.000 C 
ATOM     21  C   UNL     1       8.212  13.105  21.489  0.00  0.00    +0.000 C 
ATOM     22  H   UNL     1       0.720  16.790  19.565  0.00  0.00    +0.000 HD
ENDROOT
BRANCH   1  28
ATOM     23  C   UNL     1      10.163  13.431  18.523  0.00  0.00    +0.000 A 
ATOM     24  C   UNL     1      10.575  12.342  17.696  0.00  0.00    +0.000 A 
ATOM     25  C   UNL     1      11.582  11.501  18.103  0.00  0.00    +0.000 A 
ATOM     26  N   UNL     1      12.180  11.644  19.285  0.00  0.00    +0.000 NA
ATOM     27  C   UNL     1      11.708  12.638  20.100  0.00  0.00    +0.000 A 
ATOM     28  C   UNL     1      10.722  13.609  19.833  0.00  0.00    +0.000 A 
BRANCH  23  30
ATOM     29  C   UNL     1       7.818  13.736  17.821  0.00  0.00    +0.000 C 
ATOM     30  C   UNL     1       9.199  14.371  17.825  0.00  0.00    +0.000 C 
ENDBRANCH  23  30
ENDBRANCH   1  28
TORSDOF 2
ENDMDL
MODEL 9
REMARK VINA RESULT:      -5.8      9.694     12.475
REMARK  Name = 
REMARK  5 active torsions:
REMARK  status: ('A' for Active; 'I' for Inactive)
REMARK    1  A    between atoms: C_1  and  C_2
REMARK    2  A    between atoms: C_2  and  C_3
REMARK    3  A    between atoms: C_8  and  C_9
REMARK    4  A    between atoms: C_23  and  C_24
REMARK    5  A    between atoms: C_28  and  C_29
REMARK                            x       y       z     vdW  Elec       q    Type
REMARK                         _______ _______ _______ _____ _____    ______ ____
ROOT
ATOM      1  C   UNL     1       0.034  11.147  18.885  0.00  0.00    +0.000 C 
ATOM      2  C   UNL     1      -1.022  10.658  18.208  0.00  0.00    +0.000 C 
ATOM      3  C   UNL     1      -2.207  11.504  18.226  0.00  0.00    +0.000 C 
ATOM      4  C   UNL     1      -1.797  12.679  19.123  0.00  0.00    +0.000 C 
ATOM      5  C   UNL     1      -2.583  13.105  20.330  0.00  0.00    +0.000 C 
ATOM      6  C   UNL     1      -4.017  12.659  20.288  0.00  0.00    +0.000 C 
ATOM      7  C   UNL     1      -4.448  12.631  21.724  0.00  0.00    +0.000 C 
ATOM      8  C   UNL     1      -4.489  14.051  22.238  0.00  0.00    +0.000 C 
ATOM      9  C   UNL     1      -4.905  14.016  23.707  0.00  0.00    +0.000 C 
ATOM     10  C   UNL     1      -6.225  14.697  23.824  0.00  0.00    +0.000 C 
ATOM     11  O   UNL     1      -7.230  14.146  24.265  0.00  0.00    +0.000 OA
ATOM     12  N   UNL     1      -6.160  16.039  23.539  0.00  0.00    +0.000 N 
ATOM     13  C   UNL     1      -5.638  16.617  22.298  0.00  0.00    +0.000 C 
ATOM     14  C   UNL     1      -4.100  16.515  21.929  0.00  0.00    +0.000 C 
ATOM     15  C   UNL     1      -3.337  15.091  21.886  0.00  0.00    +0.000 C 
ATOM     16  C   UNL     1      -2.230  15.192  22.964  0.00  0.00    +0.000 C 
ATOM     17  C   UNL     1      -2.550  14.668  20.466  0.00  0.00    +0.000 C 
ATOM     18  C   UNL     1      -1.031  15.131  20.120  0.00  0.00    +0.000 C 
ATOM     19  C   UNL     1      -0.185  14.262  18.938  0.00  0.00    +0.000 C 
ATOM     20  C   UNL     1      -0.227  12.692  19.343  0.00  0.00    +0.000 C 
ATOM     21  C   UNL     1       0.702  12.853  20.565  0.00  0.00    +0.000 C 
ATOM     22  H   UNL     1      -6.006  16.573  24.383  0.00  0.00    +0.000 HD
ENDROOT
BRANCH   1  28
ATOM     23  C   UNL     1       1.457   8.881  19.161  0.00  0.00    +0.000 A 
ATOM     24  C   UNL     1       1.696   7.691  19.915  0.00  0.00    +0.000 A 
ATOM     25  C   UNL     1       1.223   7.574  21.199  0.00  0.00    +0.000 A 
ATOM     26  N   UNL     1       0.502   8.536  21.771  0.00  0.00    +0.000 NA
ATOM     27  C   UNL     1       0.208   9.629  21.000  0.00  0.00    +0.000 A 
ATOM     28  C   UNL     1       0.638   9.933  19.693  0.00  0.00    +0.000 A 
BRANCH  23  30
ATOM     29  C   UNL     1       3.147   7.707  17.801  0.00  0.00    +0.000 C 
ATOM     30  C   UNL     1       2.230   8.918  17.857  0.00  0.00    +0.000 C 
ENDBRANCH  23  30
ENDBRANCH   1  28
TORSDOF 2
ENDMDL
