MODEL 1
REMARK VINA RESULT:      -5.5      0.000      0.000
REMARK  Name = 
REMARK  2 active torsions:
REMARK  status: ('A' for Active; 'I' for Inactive)
REMARK    1  A    between atoms: C_2  and  C_3
REMARK    2  A    between atoms: C_3  and  C_4
REMARK                            x       y       z     vdW  Elec       q    Type
REMARK                         _______ _______ _______ _____ _____    ______ ____
ROOT
ATOM      1  C   UNL     1       3.323   4.303  18.920  0.00  0.00    +0.000 A 
ATOM      2  C   UNL     1       3.634   5.590  18.533  0.00  0.00    +0.000 A 
ATOM      3 CL   UNL     1       2.434   6.737  18.064  0.00  0.00    +0.000 Cl
ATOM      4  N   UNL     1       4.869   6.113  18.484  0.00  0.00    +0.000 NA
ATOM      5  C   UNL     1       5.843   5.279  18.839  0.00  0.00    +0.000 A 
ATOM      6 CL   UNL     1       7.432   5.895  18.790  0.00  0.00    +0.000 Cl
ATOM      7  N   UNL     1       5.707   4.016  19.229  0.00  0.00    +0.000 NA
ATOM      8  C   UNL     1       4.442   3.566  19.254  0.00  0.00    +0.000 A 
ATOM      9 CL   UNL     1       4.356   1.922  19.768  0.00  0.00    +0.000 Cl
ENDROOT
BRANCH   1  10
ATOM     10  C   UNL     1       1.928   3.755  18.942  0.00  0.00    +0.000 C 
BRANCH  10  12
ATOM     11  C   UNL     1       1.310   3.033  21.268  0.00  0.00    +0.000 C 
ATOM     12  C   UNL     1       1.250   3.929  20.273  0.00  0.00    +0.000 C 
ENDBRANCH  10  12
ENDBRANCH   1  10
TORSDOF 2
ENDMDL
MODEL 2
REMARK VINA RESULT:      -5.5      0.710      2.693
REMARK  Name = 
REMARK  2 active torsions:
REMARK  status: ('A' for Active; 'I' for Inactive)
REMARK    1  A    between atoms: C_2  and  C_3
REMARK    2  A    between atoms: C_3  and  C_4
REMARK                            x       y       z     vdW  Elec       q    Type
REMARK                         _______ _______ _______ _____ _____    ______ ____
ROOT
ATOM      1  C   UNL     1       3.042   4.182  18.405  0.00  0.00    +0.000 A 
ATOM      2  C   UNL     1       4.071   3.325  18.740  0.00  0.00    +0.000 A 
ATOM      3 CL   UNL     1       3.885   1.611  18.763  0.00  0.00    +0.000 Cl
ATOM      4  N   UNL     1       5.319   3.696  19.069  0.00  0.00    +0.000 NA
ATOM      5  C   UNL     1       5.530   5.008  19.066  0.00  0.00    +0.000 A 
ATOM      6 CL   UNL     1       7.100   5.529  19.481  0.00  0.00    +0.000 Cl
ATOM      7  N   UNL     1       4.647   5.957  18.772  0.00  0.00    +0.000 NA
ATOM      8  C   UNL     1       3.423   5.508  18.452  0.00  0.00    +0.000 A 
ATOM      9 CL   UNL     1       2.342   6.801  18.088  0.00  0.00    +0.000 Cl
ENDROOT
BRANCH   1  10
ATOM     10  C   UNL     1       1.657   3.724  18.061  0.00  0.00    +0.000 C 
BRANCH  10  12
ATOM     11  C   UNL     1       0.935   3.812  20.466  0.00  0.00    +0.000 C 
ATOM     12  C   UNL     1       0.887   3.236  19.257  0.00  0.00    +0.000 C 
ENDBRANCH  10  12
ENDBRANCH   1  10
TORSDOF 2
ENDMDL
MODEL 3
REMARK VINA RESULT:      -5.5      2.064      2.209
REMARK  Name = 
REMARK  2 active torsions:
REMARK  status: ('A' for Active; 'I' for Inactive)
REMARK    1  A    between atoms: C_2  and  C_3
REMARK    2  A    between atoms: C_3  and  C_4
REMARK                            x       y       z     vdW  Elec       q    Type
REMARK                         _______ _______ _______ _____ _____    ______ ____
ROOT
ATOM      1  C   UNL     1       1.949   4.402  19.185  0.00  0.00    +0.000 A 
ATOM      2  C   UNL     1       2.305   5.716  19.412  0.00  0.00    +0.000 A 
ATOM      3 CL   UNL     1       1.616   6.662  20.679  0.00  0.00    +0.000 Cl
ATOM      4  N   UNL     1       3.215   6.409  18.710  0.00  0.00    +0.000 NA
ATOM      5  C   UNL     1       3.788   5.734  17.718  0.00  0.00    +0.000 A 
ATOM      6 CL   UNL     1       4.949   6.574  16.793  0.00  0.00    +0.000 Cl
ATOM      7  N   UNL     1       3.551   4.473  17.372  0.00  0.00    +0.000 NA
ATOM      8  C   UNL     1       2.631   3.846  18.121  0.00  0.00    +0.000 A 
ATOM      9 CL   UNL     1       2.385   2.219  17.605  0.00  0.00    +0.000 Cl
ENDROOT
BRANCH   1  10
ATOM     10  C   UNL     1       0.913   3.671  19.984  0.00  0.00    +0.000 C 
BRANCH  10  12
ATOM     11  C   UNL     1       2.641   2.650  21.496  0.00  0.00    +0.000 C 
ATOM     12  C   UNL     1       1.428   3.190  21.313  0.00  0.00    +0.000 C 
ENDBRANCH  10  12
ENDBRANCH   1  10
TORSDOF 2
ENDMDL
MODEL 4
REMARK VINA RESULT:      -5.4      2.071      2.994
REMARK  Name = 
REMARK  2 active torsions:
REMARK  status: ('A' for Active; 'I' for Inactive)
REMARK    1  A    between atoms: C_2  and  C_3
REMARK    2  A    between atoms: C_3  and  C_4
REMARK                            x       y       z     vdW  Elec       q    Type
REMARK                         _______ _______ _______ _____ _____    ______ ____
ROOT
ATOM      1  C   UNL     1       1.937   4.448  19.186  0.00  0.00    +0.000 A 
ATOM      2  C   UNL     1       2.620   3.878  18.130  0.00  0.00    +0.000 A 
ATOM      3 CL   UNL     1       2.360   2.250  17.625  0.00  0.00    +0.000 Cl
ATOM      4  N   UNL     1       3.537   4.496  17.369  0.00  0.00    +0.000 NA
ATOM      5  C   UNL     1       3.781   5.759  17.705  0.00  0.00    +0.000 A 
ATOM      6 CL   UNL     1       4.942   6.587  16.769  0.00  0.00    +0.000 Cl
ATOM      7  N   UNL     1       3.214   6.445  18.692  0.00  0.00    +0.000 NA
ATOM      8  C   UNL     1       2.307   5.761  19.406  0.00  0.00    +0.000 A 
ATOM      9 CL   UNL     1       1.623   6.722  20.664  0.00  0.00    +0.000 Cl
ENDROOT
BRANCH   1  10
ATOM     10  C   UNL     1       0.933   3.714  20.021  0.00  0.00    +0.000 C 
BRANCH  10  12
ATOM     11  C   UNL     1       2.647   2.618  21.496  0.00  0.00    +0.000 C 
ATOM     12  C   UNL     1       1.485   3.269  21.347  0.00  0.00    +0.000 C 
ENDBRANCH  10  12
ENDBRANCH   1  10
TORSDOF 2
ENDMDL
MODEL 5
REMARK VINA RESULT:      -5.4      1.241      2.747
REMARK  Name = 
REMARK  2 active torsions:
REMARK  status: ('A' for Active; 'I' for Inactive)
REMARK    1  A    between atoms: C_2  and  C_3
REMARK    2  A    between atoms: C_3  and  C_4
REMARK                            x       y       z     vdW  Elec       q    Type
REMARK                         _______ _______ _______ _____ _____    ______ ____
ROOT
ATOM      1  C   UNL     1       3.132   3.158  19.024  0.00  0.00    +0.000 A 
ATOM      2  C   UNL     1       4.421   3.045  19.505  0.00  0.00    +0.000 A 
ATOM      3 CL   UNL     1       4.918   1.761  20.543  0.00  0.00    +0.000 Cl
ATOM      4  N   UNL     1       5.432   3.884  19.228  0.00  0.00    +0.000 NA
ATOM      5  C   UNL     1       5.114   4.896  18.427  0.00  0.00    +0.000 A 
ATOM      6 CL   UNL     1       6.365   5.992  18.049  0.00  0.00    +0.000 Cl
ATOM      7  N   UNL     1       3.924   5.144  17.889  0.00  0.00    +0.000 NA
ATOM      8  C   UNL     1       2.966   4.261  18.211  0.00  0.00    +0.000 A 
ATOM      9 CL   UNL     1       1.457   4.656  17.474  0.00  0.00    +0.000 Cl
ENDROOT
BRANCH   1  10
ATOM     10  C   UNL     1       2.028   2.207  19.375  0.00  0.00    +0.000 C 
BRANCH  10  12
ATOM     11  C   UNL     1       1.561   2.736  21.786  0.00  0.00    +0.000 C 
ATOM     12  C   UNL     1       1.167   2.698  20.506  0.00  0.00    +0.000 C 
ENDBRANCH  10  12
ENDBRANCH   1  10
TORSDOF 2
ENDMDL
MODEL 6
REMARK VINA RESULT:      -5.3      1.628      2.969
REMARK  Name = 
REMARK  2 active torsions:
REMARK  status: ('A' for Active; 'I' for Inactive)
REMARK    1  A    between atoms: C_2  and  C_3
REMARK    2  A    between atoms: C_3  and  C_4
REMARK                            x       y       z     vdW  Elec       q    Type
REMARK                         _______ _______ _______ _____ _____    ______ ____
ROOT
ATOM      1  C   UNL     1       2.732   4.455  18.093  0.00  0.00    +0.000 A 
ATOM      2  C   UNL     1       3.587   3.453  17.678  0.00  0.00    +0.000 A 
ATOM      3 CL   UNL     1       3.238   1.780  17.905  0.00  0.00    +0.000 Cl
ATOM      4  N   UNL     1       4.759   3.639  17.051  0.00  0.00    +0.000 NA
ATOM      5  C   UNL     1       5.085   4.911  16.841  0.00  0.00    +0.000 A 
ATOM      6 CL   UNL     1       6.568   5.198  16.050  0.00  0.00    +0.000 Cl
ATOM      7  N   UNL     1       4.376   5.982  17.183  0.00  0.00    +0.000 NA
ATOM      8  C   UNL     1       3.217   5.716  17.804  0.00  0.00    +0.000 A 
ATOM      9 CL   UNL     1       2.363   7.157  18.212  0.00  0.00    +0.000 Cl
ENDROOT
BRANCH   1  10
ATOM     10  C   UNL     1       1.440   4.202  18.807  0.00  0.00    +0.000 C 
BRANCH  10  12
ATOM     11  C   UNL     1       1.368   3.114  21.071  0.00  0.00    +0.000 C 
ATOM     12  C   UNL     1       1.589   4.190  20.304  0.00  0.00    +0.000 C 
ENDBRANCH  10  12
ENDBRANCH   1  10
TORSDOF 2
ENDMDL
MODEL 7
REMARK VINA RESULT:      -5.3      1.622      1.622
REMARK  Name = 
REMARK  2 active torsions:
REMARK  status: ('A' for Active; 'I' for Inactive)
REMARK    1  A    between atoms: C_2  and  C_3
REMARK    2  A    between atoms: C_3  and  C_4
REMARK                            x       y       z     vdW  Elec       q    Type
REMARK                         _______ _______ _______ _____ _____    ______ ____
ROOT
ATOM      1  C   UNL     1       2.757   4.440  18.088  0.00  0.00    +0.000 A 
ATOM      2  C   UNL     1       3.226   5.704  17.795  0.00  0.00    +0.000 A 
ATOM      3 CL   UNL     1       2.361   7.138  18.209  0.00  0.00    +0.000 Cl
ATOM      4  N   UNL     1       4.387   5.982  17.181  0.00  0.00    +0.000 NA
ATOM      5  C   UNL     1       5.106   4.917  16.838  0.00  0.00    +0.000 A 
ATOM      6 CL   UNL     1       6.589   5.218  16.051  0.00  0.00    +0.000 Cl
ATOM      7  N   UNL     1       4.791   3.643  17.045  0.00  0.00    +0.000 NA
ATOM      8  C   UNL     1       3.617   3.446  17.665  0.00  0.00    +0.000 A 
ATOM      9 CL   UNL     1       3.285   1.769  17.892  0.00  0.00    +0.000 Cl
ENDROOT
BRANCH   1  10
ATOM     10  C   UNL     1       1.443   4.176  18.760  0.00  0.00    +0.000 C 
BRANCH  10  12
ATOM     11  C   UNL     1       1.372   3.136  21.046  0.00  0.00    +0.000 C 
ATOM     12  C   UNL     1       1.534   4.209  20.260  0.00  0.00    +0.000 C 
ENDBRANCH  10  12
ENDBRANCH   1  10
TORSDOF 2
ENDMDL
MODEL 8
REMARK VINA RESULT:      -5.3      0.963      2.803
REMARK  Name = 
REMARK  2 active torsions:
REMARK  status: ('A' for Active; 'I' for Inactive)
REMARK    1  A    between atoms: C_2  and  C_3
REMARK    2  A    between atoms: C_3  and  C_4
REMARK                            x       y       z     vdW  Elec       q    Type
REMARK                         _______ _______ _______ _____ _____    ______ ____
ROOT
ATOM      1  C   UNL     1       3.446   4.765  19.073  0.00  0.00    +0.000 A 
ATOM      2  C   UNL     1       4.450   3.872  19.387  0.00  0.00    +0.000 A 
ATOM      3 CL   UNL     1       4.149   2.375  20.188  0.00  0.00    +0.000 Cl
ATOM      4  N   UNL     1       5.753   4.035  19.107  0.00  0.00    +0.000 NA
ATOM      5  C   UNL     1       6.053   5.170  18.484  0.00  0.00    +0.000 A 
ATOM      6 CL   UNL     1       7.697   5.425  18.110  0.00  0.00    +0.000 Cl
ATOM      7  N   UNL     1       5.205   6.127  18.120  0.00  0.00    +0.000 NA
ATOM      8  C   UNL     1       3.921   5.892  18.432  0.00  0.00    +0.000 A 
ATOM      9 CL   UNL     1       2.892   7.180  17.928  0.00  0.00    +0.000 Cl
ENDROOT
BRANCH   1  10
ATOM     10  C   UNL     1       2.004   4.550  19.422  0.00  0.00    +0.000 C 
BRANCH  10  12
ATOM     11  C   UNL     1       0.855   2.424  18.732  0.00  0.00    +0.000 C 
ATOM     12  C   UNL     1       1.290   3.658  18.443  0.00  0.00    +0.000 C 
ENDBRANCH  10  12
ENDBRANCH   1  10
TORSDOF 2
ENDMDL
MODEL 9
REMARK VINA RESULT:      -5.3      1.137      1.137
REMARK  Name = 
REMARK  2 active torsions:
REMARK  status: ('A' for Active; 'I' for Inactive)
REMARK    1  A    between atoms: C_2  and  C_3
REMARK    2  A    between atoms: C_3  and  C_4
REMARK                            x       y       z     vdW  Elec       q    Type
REMARK                         _______ _______ _______ _____ _____    ______ ____
ROOT
ATOM      1  C   UNL     1       2.738   4.140  19.108  0.00  0.00    +0.000 A 
ATOM      2  C   UNL     1       3.168   5.387  19.514  0.00  0.00    +0.000 A 
ATOM      3 CL   UNL     1       2.096   6.583  20.140  0.00  0.00    +0.000 Cl
ATOM      4  N   UNL     1       4.439   5.819  19.491  0.00  0.00    +0.000 NA
ATOM      5  C   UNL     1       5.319   4.939  19.021  0.00  0.00    +0.000 A 
ATOM      6 CL   UNL     1       6.947   5.443  18.969  0.00  0.00    +0.000 Cl
ATOM      7  N   UNL     1       5.063   3.709  18.590  0.00  0.00    +0.000 NA
ATOM      8  C   UNL     1       3.771   3.349  18.645  0.00  0.00    +0.000 A 
ATOM      9 CL   UNL     1       3.527   1.743  18.066  0.00  0.00    +0.000 Cl
ENDROOT
BRANCH   1  10
ATOM     10  C   UNL     1       1.303   3.706  19.133  0.00  0.00    +0.000 C 
BRANCH  10  12
ATOM     11  C   UNL     1       1.547   2.936  21.513  0.00  0.00    +0.000 C 
ATOM     12  C   UNL     1       0.979   2.820  20.305  0.00  0.00    +0.000 C 
ENDBRANCH  10  12
ENDBRANCH   1  10
TORSDOF 2
ENDMDL
