MODEL 1
REMARK VINA RESULT:      -7.1      0.000      0.000
REMARK  Name = 
REMARK  14 active torsions:
REMARK  status: ('A' for Active; 'I' for Inactive)
REMARK    1  A    between atoms: C_1  and  C_2
REMARK    2  A    between atoms: C_2  and  N_3
REMARK    3  A    between atoms: N_3  and  C_4
REMARK    4  A    between atoms: N_3  and  C_5
REMARK    5  A    between atoms: N_3  and  C_7
REMARK    6  A    between atoms: C_5  and  C_6
REMARK    7  A    between atoms: C_7  and  C_8
REMARK    8  A    between atoms: C_8  and  C_9
REMARK    9  A    between atoms: C_9  and  O_10
REMARK   10  A    between atoms: O_10  and  C_11
REMARK   11  A    between atoms: C_11  and  C_13
REMARK   12  A    between atoms: C_13  and  O_14
REMARK   13  A    between atoms: C_13  and  C_15
REMARK   14  A    between atoms: C_13  and  C_21
REMARK                            x       y       z     vdW  Elec       q    Type
REMARK                         _______ _______ _______ _____ _____    ______ ____
ROOT
ATOM      1  C   UNL     1       4.311   4.553  18.531  0.00  0.00    +0.000 C 
ENDROOT
BRANCH   1   2
ATOM      2  C   UNL     1       5.489   5.527  18.381  0.00  0.00    +0.000 A 
ATOM      3  C   UNL     1       6.697   5.316  19.069  0.00  0.00    +0.000 A 
ATOM      4  C   UNL     1       7.808   6.134  18.841  0.00  0.00    +0.000 A 
ATOM      5  C   UNL     1       7.733   7.180  17.926  0.00  0.00    +0.000 A 
ATOM      6  C   UNL     1       6.544   7.424  17.250  0.00  0.00    +0.000 A 
ATOM      7  C   UNL     1       5.434   6.605  17.474  0.00  0.00    +0.000 A 
ENDBRANCH   1   2
BRANCH   1   8
ATOM      8  C   UNL     1       2.926   5.301  18.562  0.00  0.00    +0.000 C 
ATOM      9  C   UNL     1       1.746   4.449  18.032  0.00  0.00    +0.000 C 
ATOM     10  C   UNL     1       1.196   3.429  19.027  0.00  0.00    +0.000 C 
ATOM     11  C   UNL     1       0.864   4.053  20.375  0.00  0.00    +0.000 C 
ATOM     12  C   UNL     1       2.008   4.888  20.937  0.00  0.00    +0.000 C 
ATOM     13  C   UNL     1       2.525   5.903  19.926  0.00  0.00    +0.000 C 
ENDBRANCH   1   8
BRANCH   1  14
ATOM     14  C   UNL     1       4.329   3.473  17.398  0.00  0.00    +0.000 C 
ATOM     15  O   UNL     1       4.008   2.303  17.569  0.00  0.00    +0.000 OA
BRANCH  14  16
ATOM     16  O   UNL     1       4.697   3.993  16.190  0.00  0.00    +0.000 OA
BRANCH  16  17
ATOM     17  C   UNL     1       6.017   3.682  15.715  0.00  0.00    +0.000 C 
BRANCH  17  18
ATOM     18  C   UNL     1       6.111   4.114  14.249  0.00  0.00    +0.000 C 
BRANCH  18  19
ATOM     19  C   UNL     1       5.135   3.323  13.385  0.00  0.00    +0.000 C 
BRANCH  19  20
ATOM     20  N   UNL     1       5.500   3.281  11.870  0.00  0.00    +0.000 N 
ATOM     21  C   UNL     1       6.866   3.956  11.660  0.00  0.00    +0.000 C 
BRANCH  20  23
ATOM     22  C   UNL     1       7.005   1.336  11.036  0.00  0.00    +0.000 C 
ATOM     23  C   UNL     1       5.624   1.772  11.503  0.00  0.00    +0.000 C 
ENDBRANCH  20  23
BRANCH  20  24
ATOM     24  C   UNL     1       4.467   4.012  10.985  0.00  0.00    +0.000 C 
ATOM     25  C   UNL     1       3.293   3.142  10.565  0.00  0.00    +0.000 C 
ENDBRANCH  20  24
ENDBRANCH  19  20
ENDBRANCH  18  19
ENDBRANCH  17  18
ENDBRANCH  16  17
ENDBRANCH  14  16
ENDBRANCH   1  14
BRANCH   1  26
ATOM     26  O   UNL     1       4.474   3.820  19.758  0.00  0.00    +0.000 OA
ATOM     27  H   UNL     1       4.833   4.452  20.409  0.00  0.00    +0.000 HD
ENDBRANCH   1  26
TORSDOF 11
ENDMDL
MODEL 2
REMARK VINA RESULT:      -7.1      3.656      7.520
REMARK  Name = 
REMARK  14 active torsions:
REMARK  status: ('A' for Active; 'I' for Inactive)
REMARK    1  A    between atoms: C_1  and  C_2
REMARK    2  A    between atoms: C_2  and  N_3
REMARK    3  A    between atoms: N_3  and  C_4
REMARK    4  A    between atoms: N_3  and  C_5
REMARK    5  A    between atoms: N_3  and  C_7
REMARK    6  A    between atoms: C_5  and  C_6
REMARK    7  A    between atoms: C_7  and  C_8
REMARK    8  A    between atoms: C_8  and  C_9
REMARK    9  A    between atoms: C_9  and  O_10
REMARK   10  A    between atoms: O_10  and  C_11
REMARK   11  A    between atoms: C_11  and  C_13
REMARK   12  A    between atoms: C_13  and  O_14
REMARK   13  A    between atoms: C_13  and  C_15
REMARK   14  A    between atoms: C_13  and  C_21
REMARK                            x       y       z     vdW  Elec       q    Type
REMARK                         _______ _______ _______ _____ _____    ______ ____
ROOT
ATOM      1  C   UNL     1       5.839   5.301  16.190  0.00  0.00    +0.000 C 
ENDROOT
BRANCH   1   2
ATOM      2  C   UNL     1       6.223   4.773  14.800  0.00  0.00    +0.000 A 
ATOM      3  C   UNL     1       5.402   3.857  14.119  0.00  0.00    +0.000 A 
ATOM      4  C   UNL     1       5.690   3.469  12.807  0.00  0.00    +0.000 A 
ATOM      5  C   UNL     1       6.804   3.983  12.151  0.00  0.00    +0.000 A 
ATOM      6  C   UNL     1       7.644   4.873  12.810  0.00  0.00    +0.000 A 
ATOM      7  C   UNL     1       7.356   5.265  14.120  0.00  0.00    +0.000 A 
ENDBRANCH   1   2
BRANCH   1   8
ATOM      8  C   UNL     1       5.080   4.218  17.044  0.00  0.00    +0.000 C 
ATOM      9  C   UNL     1       5.491   4.203  18.537  0.00  0.00    +0.000 C 
ATOM     10  C   UNL     1       4.847   5.297  19.389  0.00  0.00    +0.000 C 
ATOM     11  C   UNL     1       3.334   5.340  19.232  0.00  0.00    +0.000 C 
ATOM     12  C   UNL     1       2.891   5.370  17.774  0.00  0.00    +0.000 C 
ATOM     13  C   UNL     1       3.539   4.261  16.956  0.00  0.00    +0.000 C 
ENDBRANCH   1   8
BRANCH   1  14
ATOM     14  C   UNL     1       7.098   5.826  16.958  0.00  0.00    +0.000 C 
ATOM     15  O   UNL     1       7.994   5.099  17.372  0.00  0.00    +0.000 OA
BRANCH  14  16
ATOM     16  O   UNL     1       7.108   7.187  17.072  0.00  0.00    +0.000 OA
BRANCH  16  17
ATOM     17  C   UNL     1       7.967   7.756  18.074  0.00  0.00    +0.000 C 
BRANCH  17  18
ATOM     18  C   UNL     1       8.195   9.229  17.726  0.00  0.00    +0.000 C 
BRANCH  18  19
ATOM     19  C   UNL     1       8.934   9.946  18.851  0.00  0.00    +0.000 C 
BRANCH  19  20
ATOM     20  N   UNL     1       9.359  11.408  18.518  0.00  0.00    +0.000 N 
ATOM     21  C   UNL     1       8.273  12.064  17.648  0.00  0.00    +0.000 C 
BRANCH  20  23
ATOM     22  C   UNL     1       9.185  11.281  21.105  0.00  0.00    +0.000 C 
ATOM     23  C   UNL     1       9.428  12.154  19.882  0.00  0.00    +0.000 C 
ENDBRANCH  20  23
BRANCH  20  24
ATOM     24  C   UNL     1      10.694  11.482  17.745  0.00  0.00    +0.000 C 
ATOM     25  C   UNL     1      11.904  11.727  18.633  0.00  0.00    +0.000 C 
ENDBRANCH  20  24
ENDBRANCH  19  20
ENDBRANCH  18  19
ENDBRANCH  17  18
ENDBRANCH  16  17
ENDBRANCH  14  16
ENDBRANCH   1  14
BRANCH   1  26
ATOM     26  O   UNL     1       4.987   6.449  16.027  0.00  0.00    +0.000 OA
ATOM     27  H   UNL     1       4.118   6.107  15.743  0.00  0.00    +0.000 HD
ENDBRANCH   1  26
TORSDOF 11
ENDMDL
MODEL 3
REMARK VINA RESULT:      -7.0      3.746      7.563
REMARK  Name = 
REMARK  14 active torsions:
REMARK  status: ('A' for Active; 'I' for Inactive)
REMARK    1  A    between atoms: C_1  and  C_2
REMARK    2  A    between atoms: C_2  and  N_3
REMARK    3  A    between atoms: N_3  and  C_4
REMARK    4  A    between atoms: N_3  and  C_5
REMARK    5  A    between atoms: N_3  and  C_7
REMARK    6  A    between atoms: C_5  and  C_6
REMARK    7  A    between atoms: C_7  and  C_8
REMARK    8  A    between atoms: C_8  and  C_9
REMARK    9  A    between atoms: C_9  and  O_10
REMARK   10  A    between atoms: O_10  and  C_11
REMARK   11  A    between atoms: C_11  and  C_13
REMARK   12  A    between atoms: C_13  and  O_14
REMARK   13  A    between atoms: C_13  and  C_15
REMARK   14  A    between atoms: C_13  and  C_21
REMARK                            x       y       z     vdW  Elec       q    Type
REMARK                         _______ _______ _______ _____ _____    ______ ____
ROOT
ATOM      1  C   UNL     1       5.805   5.374  16.155  0.00  0.00    +0.000 C 
ENDROOT
BRANCH   1   2
ATOM      2  C   UNL     1       6.100   4.902  14.723  0.00  0.00    +0.000 A 
ATOM      3  C   UNL     1       7.255   5.329  14.042  0.00  0.00    +0.000 A 
ATOM      4  C   UNL     1       7.584   4.807  12.788  0.00  0.00    +0.000 A 
ATOM      5  C   UNL     1       6.768   3.854  12.187  0.00  0.00    +0.000 A 
ATOM      6  C   UNL     1       5.610   3.432  12.830  0.00  0.00    +0.000 A 
ATOM      7  C   UNL     1       5.281   3.949  14.085  0.00  0.00    +0.000 A 
ENDBRANCH   1   2
BRANCH   1   8
ATOM      8  C   UNL     1       5.058   4.275  16.998  0.00  0.00    +0.000 C 
ATOM      9  C   UNL     1       5.505   4.215  18.479  0.00  0.00    +0.000 C 
ATOM     10  C   UNL     1       4.893   5.290  19.376  0.00  0.00    +0.000 C 
ATOM     11  C   UNL     1       3.377   5.351  19.258  0.00  0.00    +0.000 C 
ATOM     12  C   UNL     1       2.898   5.426  17.813  0.00  0.00    +0.000 C 
ATOM     13  C   UNL     1       3.516   4.333  16.949  0.00  0.00    +0.000 C 
ENDBRANCH   1   8
BRANCH   1  14
ATOM     14  C   UNL     1       7.119   5.825  16.878  0.00  0.00    +0.000 C 
ATOM     15  O   UNL     1       7.982   5.046  17.267  0.00  0.00    +0.000 OA
BRANCH  14  16
ATOM     16  O   UNL     1       7.215   7.183  16.983  0.00  0.00    +0.000 OA
BRANCH  16  17
ATOM     17  C   UNL     1       7.940   7.705  18.109  0.00  0.00    +0.000 C 
BRANCH  17  18
ATOM     18  C   UNL     1       8.229   9.185  17.845  0.00  0.00    +0.000 C 
BRANCH  18  19
ATOM     19  C   UNL     1       9.086   9.779  18.958  0.00  0.00    +0.000 C 
BRANCH  19  20
ATOM     20  N   UNL     1       9.455  11.280  18.760  0.00  0.00    +0.000 N 
ATOM     21  C   UNL     1       8.483  11.911  17.748  0.00  0.00    +0.000 C 
BRANCH  20  23
ATOM     22  C   UNL     1      10.528  12.302  20.892  0.00  0.00    +0.000 C 
ATOM     23  C   UNL     1       9.246  11.958  20.146  0.00  0.00    +0.000 C 
ENDBRANCH  20  23
BRANCH  20  24
ATOM     24  C   UNL     1      10.891  11.478  18.225  0.00  0.00    +0.000 C 
ATOM     25  C   UNL     1      11.034  12.652  17.271  0.00  0.00    +0.000 C 
ENDBRANCH  20  24
ENDBRANCH  19  20
ENDBRANCH  18  19
ENDBRANCH  17  18
ENDBRANCH  16  17
ENDBRANCH  14  16
ENDBRANCH   1  14
BRANCH   1  26
ATOM     26  O   UNL     1       4.983   6.553  16.090  0.00  0.00    +0.000 OA
ATOM     27  H   UNL     1       4.852   6.744  15.142  0.00  0.00    +0.000 HD
ENDBRANCH   1  26
TORSDOF 11
ENDMDL
MODEL 4
REMARK VINA RESULT:      -6.9      4.210      8.313
REMARK  Name = 
REMARK  14 active torsions:
REMARK  status: ('A' for Active; 'I' for Inactive)
REMARK    1  A    between atoms: C_1  and  C_2
REMARK    2  A    between atoms: C_2  and  N_3
REMARK    3  A    between atoms: N_3  and  C_4
REMARK    4  A    between atoms: N_3  and  C_5
REMARK    5  A    between atoms: N_3  and  C_7
REMARK    6  A    between atoms: C_5  and  C_6
REMARK    7  A    between atoms: C_7  and  C_8
REMARK    8  A    between atoms: C_8  and  C_9
REMARK    9  A    between atoms: C_9  and  O_10
REMARK   10  A    between atoms: O_10  and  C_11
REMARK   11  A    between atoms: C_11  and  C_13
REMARK   12  A    between atoms: C_13  and  O_14
REMARK   13  A    between atoms: C_13  and  C_15
REMARK   14  A    between atoms: C_13  and  C_21
REMARK                            x       y       z     vdW  Elec       q    Type
REMARK                         _______ _______ _______ _____ _____    ______ ____
ROOT
ATOM      1  C   UNL     1       3.928   5.805  18.480  0.00  0.00    +0.000 C 
ENDROOT
BRANCH   1   2
ATOM      2  C   UNL     1       3.150   4.481  18.525  0.00  0.00    +0.000 A 
ATOM      3  C   UNL     1       3.659   3.363  19.210  0.00  0.00    +0.000 A 
ATOM      4  C   UNL     1       2.899   2.198  19.351  0.00  0.00    +0.000 A 
ATOM      5  C   UNL     1       1.619   2.124  18.809  0.00  0.00    +0.000 A 
ATOM      6  C   UNL     1       1.103   3.207  18.108  0.00  0.00    +0.000 A 
ATOM      7  C   UNL     1       1.860   4.374  17.969  0.00  0.00    +0.000 A 
ENDBRANCH   1   2
BRANCH   1   8
ATOM      8  C   UNL     1       4.549   6.078  17.060  0.00  0.00    +0.000 C 
ATOM      9  C   UNL     1       5.881   6.866  17.104  0.00  0.00    +0.000 C 
ATOM     10  C   UNL     1       7.109   6.028  17.458  0.00  0.00    +0.000 C 
ATOM     11  C   UNL     1       7.232   4.783  16.591  0.00  0.00    +0.000 C 
ATOM     12  C   UNL     1       5.943   3.972  16.536  0.00  0.00    +0.000 C 
ATOM     13  C   UNL     1       4.742   4.832  16.167  0.00  0.00    +0.000 C 
ENDBRANCH   1   8
BRANCH   1  14
ATOM     14  C   UNL     1       3.022   7.002  18.925  0.00  0.00    +0.000 C 
ATOM     15  O   UNL     1       2.434   7.046  19.999  0.00  0.00    +0.000 OA
BRANCH  14  16
ATOM     16  O   UNL     1       3.000   8.008  18.002  0.00  0.00    +0.000 OA
BRANCH  16  17
ATOM     17  C   UNL     1       1.721   8.582  17.686  0.00  0.00    +0.000 C 
BRANCH  17  18
ATOM     18  C   UNL     1       1.678   9.998  18.265  0.00  0.00    +0.000 C 
BRANCH  18  19
ATOM     19  C   UNL     1       0.245  10.413  18.581  0.00  0.00    +0.000 C 
BRANCH  19  20
ATOM     20  N   UNL     1      -0.032  10.689  20.090  0.00  0.00    +0.000 N 
ATOM     21  C   UNL     1       1.105  11.551  20.663  0.00  0.00    +0.000 C 
BRANCH  20  23
ATOM     22  C   UNL     1      -1.720  12.217  18.844  0.00  0.00    +0.000 C 
ATOM     23  C   UNL     1      -1.356  11.506  20.139  0.00  0.00    +0.000 C 
ENDBRANCH  20  23
BRANCH  20  24
ATOM     24  C   UNL     1      -0.115   9.394  20.929  0.00  0.00    +0.000 C 
ATOM     25  C   UNL     1       0.705   9.438  22.208  0.00  0.00    +0.000 C 
ENDBRANCH  20  24
ENDBRANCH  19  20
ENDBRANCH  18  19
ENDBRANCH  17  18
ENDBRANCH  16  17
ENDBRANCH  14  16
ENDBRANCH   1  14
BRANCH   1  26
ATOM     26  O   UNL     1       4.987   5.748  19.452  0.00  0.00    +0.000 OA
ATOM     27  H   UNL     1       4.918   6.565  19.981  0.00  0.00    +0.000 HD
ENDBRANCH   1  26
TORSDOF 11
ENDMDL
MODEL 5
REMARK VINA RESULT:      -6.9      3.930      6.941
REMARK  Name = 
REMARK  14 active torsions:
REMARK  status: ('A' for Active; 'I' for Inactive)
REMARK    1  A    between atoms: C_1  and  C_2
REMARK    2  A    between atoms: C_2  and  N_3
REMARK    3  A    between atoms: N_3  and  C_4
REMARK    4  A    between atoms: N_3  and  C_5
REMARK    5  A    between atoms: N_3  and  C_7
REMARK    6  A    between atoms: C_5  and  C_6
REMARK    7  A    between atoms: C_7  and  C_8
REMARK    8  A    between atoms: C_8  and  C_9
REMARK    9  A    between atoms: C_9  and  O_10
REMARK   10  A    between atoms: O_10  and  C_11
REMARK   11  A    between atoms: C_11  and  C_13
REMARK   12  A    between atoms: C_13  and  O_14
REMARK   13  A    between atoms: C_13  and  C_15
REMARK   14  A    between atoms: C_13  and  C_21
REMARK                            x       y       z     vdW  Elec       q    Type
REMARK                         _______ _______ _______ _____ _____    ______ ____
ROOT
ATOM      1  C   UNL     1       3.462   4.301  18.231  0.00  0.00    +0.000 C 
ENDROOT
BRANCH   1   2
ATOM      2  C   UNL     1       4.837   4.295  17.546  0.00  0.00    +0.000 A 
ATOM      3  C   UNL     1       4.954   4.103  16.158  0.00  0.00    +0.000 A 
ATOM      4  C   UNL     1       6.193   4.216  15.519  0.00  0.00    +0.000 A 
ATOM      5  C   UNL     1       7.336   4.518  16.251  0.00  0.00    +0.000 A 
ATOM      6  C   UNL     1       7.250   4.690  17.627  0.00  0.00    +0.000 A 
ATOM      7  C   UNL     1       6.013   4.581  18.268  0.00  0.00    +0.000 A 
ENDBRANCH   1   2
BRANCH   1   8
ATOM      8  C   UNL     1       3.576   4.105  19.789  0.00  0.00    +0.000 C 
ATOM      9  C   UNL     1       2.537   4.920  20.598  0.00  0.00    +0.000 C 
ATOM     10  C   UNL     1       1.138   4.307  20.643  0.00  0.00    +0.000 C 
ATOM     11  C   UNL     1       1.157   2.848  21.079  0.00  0.00    +0.000 C 
ATOM     12  C   UNL     1       2.160   2.010  20.294  0.00  0.00    +0.000 C 
ATOM     13  C   UNL     1       3.546   2.641  20.279  0.00  0.00    +0.000 C 
ENDBRANCH   1   8
BRANCH   1  14
ATOM     14  C   UNL     1       2.676   5.614  17.898  0.00  0.00    +0.000 C 
ATOM     15  O   UNL     1       1.506   5.631  17.534  0.00  0.00    +0.000 OA
BRANCH  14  16
ATOM     16  O   UNL     1       3.427   6.736  18.103  0.00  0.00    +0.000 OA
BRANCH  16  17
ATOM     17  C   UNL     1       2.865   7.989  17.680  0.00  0.00    +0.000 C 
BRANCH  17  18
ATOM     18  C   UNL     1       1.951   8.503  18.796  0.00  0.00    +0.000 C 
BRANCH  18  19
ATOM     19  C   UNL     1       1.067   9.640  18.295  0.00  0.00    +0.000 C 
BRANCH  19  20
ATOM     20  N   UNL     1       0.268  10.378  19.412  0.00  0.00    +0.000 N 
ATOM     21  C   UNL     1       0.205   9.486  20.663  0.00  0.00    +0.000 C 
BRANCH  20  23
ATOM     22  C   UNL     1       1.850  12.260  18.575  0.00  0.00    +0.000 C 
ATOM     23  C   UNL     1       1.090  11.658  19.748  0.00  0.00    +0.000 C 
ENDBRANCH  20  23
BRANCH  20  24
ATOM     24  C   UNL     1      -1.180  10.711  18.991  0.00  0.00    +0.000 C 
ATOM     25  C   UNL     1      -1.569  10.152  17.632  0.00  0.00    +0.000 C 
ENDBRANCH  20  24
ENDBRANCH  19  20
ENDBRANCH  18  19
ENDBRANCH  17  18
ENDBRANCH  16  17
ENDBRANCH  14  16
ENDBRANCH   1  14
BRANCH   1  26
ATOM     26  O   UNL     1       2.669   3.234  17.682  0.00  0.00    +0.000 OA
ATOM     27  H   UNL     1       3.298   2.607  17.276  0.00  0.00    +0.000 HD
ENDBRANCH   1  26
TORSDOF 11
ENDMDL
MODEL 6
REMARK VINA RESULT:      -6.9      4.249      8.360
REMARK  Name = 
REMARK  14 active torsions:
REMARK  status: ('A' for Active; 'I' for Inactive)
REMARK    1  A    between atoms: C_1  and  C_2
REMARK    2  A    between atoms: C_2  and  N_3
REMARK    3  A    between atoms: N_3  and  C_4
REMARK    4  A    between atoms: N_3  and  C_5
REMARK    5  A    between atoms: N_3  and  C_7
REMARK    6  A    between atoms: C_5  and  C_6
REMARK    7  A    between atoms: C_7  and  C_8
REMARK    8  A    between atoms: C_8  and  C_9
REMARK    9  A    between atoms: C_9  and  O_10
REMARK   10  A    between atoms: O_10  and  C_11
REMARK   11  A    between atoms: C_11  and  C_13
REMARK   12  A    between atoms: C_13  and  O_14
REMARK   13  A    between atoms: C_13  and  C_15
REMARK   14  A    between atoms: C_13  and  C_21
REMARK                            x       y       z     vdW  Elec       q    Type
REMARK                         _______ _______ _______ _____ _____    ______ ____
ROOT
ATOM      1  C   UNL     1       3.804   5.705  18.427  0.00  0.00    +0.000 C 
ENDROOT
BRANCH   1   2
ATOM      2  C   UNL     1       3.139   4.323  18.514  0.00  0.00    +0.000 A 
ATOM      3  C   UNL     1       3.803   3.235  19.108  0.00  0.00    +0.000 A 
ATOM      4  C   UNL     1       3.154   2.011  19.293  0.00  0.00    +0.000 A 
ATOM      5  C   UNL     1       1.833   1.847  18.886  0.00  0.00    +0.000 A 
ATOM      6  C   UNL     1       1.163   2.900  18.277  0.00  0.00    +0.000 A 
ATOM      7  C   UNL     1       1.808   4.126  18.094  0.00  0.00    +0.000 A 
ENDBRANCH   1   2
BRANCH   1   8
ATOM      8  C   UNL     1       4.393   5.990  16.996  0.00  0.00    +0.000 C 
ATOM      9  C   UNL     1       5.641   6.906  17.006  0.00  0.00    +0.000 C 
ATOM     10  C   UNL     1       6.946   6.206  17.383  0.00  0.00    +0.000 C 
ATOM     11  C   UNL     1       7.190   4.950  16.558  0.00  0.00    +0.000 C 
ATOM     12  C   UNL     1       5.987   4.014  16.536  0.00  0.00    +0.000 C 
ATOM     13  C   UNL     1       4.706   4.739  16.145  0.00  0.00    +0.000 C 
ENDBRANCH   1   8
BRANCH   1  14
ATOM     14  C   UNL     1       2.803   6.835  18.846  0.00  0.00    +0.000 C 
ATOM     15  O   UNL     1       2.492   7.071  20.007  0.00  0.00    +0.000 OA
BRANCH  14  16
ATOM     16  O   UNL     1       2.356   7.556  17.776  0.00  0.00    +0.000 OA
BRANCH  16  17
ATOM     17  C   UNL     1       2.439   8.988  17.866  0.00  0.00    +0.000 C 
BRANCH  17  18
ATOM     18  C   UNL     1       1.029   9.532  18.111  0.00  0.00    +0.000 C 
BRANCH  18  19
ATOM     19  C   UNL     1       1.078  10.821  18.926  0.00  0.00    +0.000 C 
BRANCH  19  20
ATOM     20  N   UNL     1       0.016  10.907  20.065  0.00  0.00    +0.000 N 
ATOM     21  C   UNL     1      -1.355  11.241  19.453  0.00  0.00    +0.000 C 
BRANCH  20  23
ATOM     22  C   UNL     1       0.769   9.310  21.969  0.00  0.00    +0.000 C 
ATOM     23  C   UNL     1      -0.048   9.485  20.697  0.00  0.00    +0.000 C 
ENDBRANCH  20  23
BRANCH  20  24
ATOM     24  C   UNL     1       0.348  11.994  21.111  0.00  0.00    +0.000 C 
ATOM     25  C   UNL     1      -0.863  12.789  21.574  0.00  0.00    +0.000 C 
ENDBRANCH  20  24
ENDBRANCH  19  20
ENDBRANCH  18  19
ENDBRANCH  17  18
ENDBRANCH  16  17
ENDBRANCH  14  16
ENDBRANCH   1  14
BRANCH   1  26
ATOM     26  O   UNL     1       4.869   5.764  19.392  0.00  0.00    +0.000 OA
ATOM     27  H   UNL     1       5.599   6.251  18.965  0.00  0.00    +0.000 HD
ENDBRANCH   1  26
TORSDOF 11
ENDMDL
MODEL 7
REMARK VINA RESULT:      -6.9      4.611      7.664
REMARK  Name = 
REMARK  14 active torsions:
REMARK  status: ('A' for Active; 'I' for Inactive)
REMARK    1  A    between atoms: C_1  and  C_2
REMARK    2  A    between atoms: C_2  and  N_3
REMARK    3  A    between atoms: N_3  and  C_4
REMARK    4  A    between atoms: N_3  and  C_5
REMARK    5  A    between atoms: N_3  and  C_7
REMARK    6  A    between atoms: C_5  and  C_6
REMARK    7  A    between atoms: C_7  and  C_8
REMARK    8  A    between atoms: C_8  and  C_9
REMARK    9  A    between atoms: C_9  and  O_10
REMARK   10  A    between atoms: O_10  and  C_11
REMARK   11  A    between atoms: C_11  and  C_13
REMARK   12  A    between atoms: C_13  and  O_14
REMARK   13  A    between atoms: C_13  and  C_15
REMARK   14  A    between atoms: C_13  and  C_21
REMARK                            x       y       z     vdW  Elec       q    Type
REMARK                         _______ _______ _______ _____ _____    ______ ____
ROOT
ATOM      1  C   UNL     1       2.901   5.492  18.483  0.00  0.00    +0.000 C 
ENDROOT
BRANCH   1   2
ATOM      2  C   UNL     1       4.200   5.523  17.665  0.00  0.00    +0.000 A 
ATOM      3  C   UNL     1       5.301   6.294  18.081  0.00  0.00    +0.000 A 
ATOM      4  C   UNL     1       6.522   6.229  17.403  0.00  0.00    +0.000 A 
ATOM      5  C   UNL     1       6.667   5.400  16.295  0.00  0.00    +0.000 A 
ATOM      6  C   UNL     1       5.588   4.645  15.851  0.00  0.00    +0.000 A 
ATOM      7  C   UNL     1       4.368   4.706  16.530  0.00  0.00    +0.000 A 
ENDBRANCH   1   2
BRANCH   1   8
ATOM      8  C   UNL     1       3.037   4.605  19.776  0.00  0.00    +0.000 C 
ATOM      9  C   UNL     1       1.683   4.269  20.447  0.00  0.00    +0.000 C 
ATOM     10  C   UNL     1       0.899   3.140  19.779  0.00  0.00    +0.000 C 
ATOM     11  C   UNL     1       1.741   1.888  19.578  0.00  0.00    +0.000 C 
ATOM     12  C   UNL     1       3.078   2.177  18.906  0.00  0.00    +0.000 C 
ATOM     13  C   UNL     1       3.840   3.297  19.603  0.00  0.00    +0.000 C 
ENDBRANCH   1   8
BRANCH   1  14
ATOM     14  C   UNL     1       2.439   6.941  18.856  0.00  0.00    +0.000 C 
ATOM     15  O   UNL     1       2.436   7.380  20.000  0.00  0.00    +0.000 OA
BRANCH  14  16
ATOM     16  O   UNL     1       2.085   7.673  17.758  0.00  0.00    +0.000 OA
BRANCH  16  17
ATOM     17  C   UNL     1       2.194   9.103  17.859  0.00  0.00    +0.000 C 
BRANCH  17  18
ATOM     18  C   UNL     1       0.784   9.678  18.013  0.00  0.00    +0.000 C 
BRANCH  18  19
ATOM     19  C   UNL     1       0.804  10.945  18.862  0.00  0.00    +0.000 C 
BRANCH  19  20
ATOM     20  N   UNL     1      -0.584  11.636  19.025  0.00  0.00    +0.000 N 
ATOM     21  C   UNL     1      -0.530  13.034  18.386  0.00  0.00    +0.000 C 
BRANCH  20  23
ATOM     22  C   UNL     1      -2.986  11.356  18.081  0.00  0.00    +0.000 C 
ATOM     23  C   UNL     1      -1.594  10.758  18.230  0.00  0.00    +0.000 C 
ENDBRANCH  20  23
BRANCH  20  24
ATOM     24  C   UNL     1      -0.998  11.806  20.504  0.00  0.00    +0.000 C 
ATOM     25  C   UNL     1      -0.455  10.723  21.421  0.00  0.00    +0.000 C 
ENDBRANCH  20  24
ENDBRANCH  19  20
ENDBRANCH  18  19
ENDBRANCH  17  18
ENDBRANCH  16  17
ENDBRANCH  14  16
ENDBRANCH   1  14
BRANCH   1  26
ATOM     26  O   UNL     1       1.850   4.959  17.658  0.00  0.00    +0.000 OA
ATOM     27  H   UNL     1       2.289   4.532  16.898  0.00  0.00    +0.000 HD
ENDBRANCH   1  26
TORSDOF 11
ENDMDL
MODEL 8
REMARK VINA RESULT:      -6.8      3.976      6.920
REMARK  Name = 
REMARK  14 active torsions:
REMARK  status: ('A' for Active; 'I' for Inactive)
REMARK    1  A    between atoms: C_1  and  C_2
REMARK    2  A    between atoms: C_2  and  N_3
REMARK    3  A    between atoms: N_3  and  C_4
REMARK    4  A    between atoms: N_3  and  C_5
REMARK    5  A    between atoms: N_3  and  C_7
REMARK    6  A    between atoms: C_5  and  C_6
REMARK    7  A    between atoms: C_7  and  C_8
REMARK    8  A    between atoms: C_8  and  C_9
REMARK    9  A    between atoms: C_9  and  O_10
REMARK   10  A    between atoms: O_10  and  C_11
REMARK   11  A    between atoms: C_11  and  C_13
REMARK   12  A    between atoms: C_13  and  O_14
REMARK   13  A    between atoms: C_13  and  C_15
REMARK   14  A    between atoms: C_13  and  C_21
REMARK                            x       y       z     vdW  Elec       q    Type
REMARK                         _______ _______ _______ _____ _____    ______ ____
ROOT
ATOM      1  C   UNL     1       3.745   4.463  18.279  0.00  0.00    +0.000 C 
ENDROOT
BRANCH   1   2
ATOM      2  C   UNL     1       5.155   5.058  18.154  0.00  0.00    +0.000 A 
ATOM      3  C   UNL     1       5.624   5.562  16.927  0.00  0.00    +0.000 A 
ATOM      4  C   UNL     1       6.859   6.210  16.840  0.00  0.00    +0.000 A 
ATOM      5  C   UNL     1       7.652   6.365  17.973  0.00  0.00    +0.000 A 
ATOM      6  C   UNL     1       7.222   5.856  19.192  0.00  0.00    +0.000 A 
ATOM      7  C   UNL     1       5.986   5.211  19.282  0.00  0.00    +0.000 A 
ENDBRANCH   1   2
BRANCH   1   8
ATOM      8  C   UNL     1       3.543   3.701  19.641  0.00  0.00    +0.000 C 
ATOM      9  C   UNL     1       2.747   4.509  20.695  0.00  0.00    +0.000 C 
ATOM     10  C   UNL     1       1.233   4.508  20.493  0.00  0.00    +0.000 C 
ATOM     11  C   UNL     1       0.669   3.103  20.333  0.00  0.00    +0.000 C 
ATOM     12  C   UNL     1       1.419   2.280  19.292  0.00  0.00    +0.000 C 
ATOM     13  C   UNL     1       2.923   2.291  19.529  0.00  0.00    +0.000 C 
ENDBRANCH   1   8
BRANCH   1  14
ATOM     14  C   UNL     1       2.652   5.570  18.100  0.00  0.00    +0.000 C 
ATOM     15  O   UNL     1       1.555   5.367  17.594  0.00  0.00    +0.000 OA
BRANCH  14  16
ATOM     16  O   UNL     1       3.043   6.774  18.613  0.00  0.00    +0.000 OA
BRANCH  16  17
ATOM     17  C   UNL     1       3.132   7.880  17.700  0.00  0.00    +0.000 C 
BRANCH  17  18
ATOM     18  C   UNL     1       1.846   8.702  17.820  0.00  0.00    +0.000 C 
BRANCH  18  19
ATOM     19  C   UNL     1       1.500   8.961  19.283  0.00  0.00    +0.000 C 
BRANCH  19  20
ATOM     20  N   UNL     1       0.456  10.096  19.510  0.00  0.00    +0.000 N 
ATOM     21  C   UNL     1       1.184  11.450  19.557  0.00  0.00    +0.000 C 
BRANCH  20  23
ATOM     22  C   UNL     1      -1.781  10.844  18.426  0.00  0.00    +0.000 C 
ATOM     23  C   UNL     1      -0.480  10.071  18.266  0.00  0.00    +0.000 C 
ENDBRANCH  20  23
BRANCH  20  24
ATOM     24  C   UNL     1      -0.328   9.932  20.831  0.00  0.00    +0.000 C 
ATOM     25  C   UNL     1      -0.033   8.633  21.563  0.00  0.00    +0.000 C 
ENDBRANCH  20  24
ENDBRANCH  19  20
ENDBRANCH  18  19
ENDBRANCH  17  18
ENDBRANCH  16  17
ENDBRANCH  14  16
ENDBRANCH   1  14
BRANCH   1  26
ATOM     26  O   UNL     1       3.535   3.544  17.193  0.00  0.00    +0.000 OA
ATOM     27  H   UNL     1       2.808   2.954  17.469  0.00  0.00    +0.000 HD
ENDBRANCH   1  26
TORSDOF 11
ENDMDL
MODEL 9
REMARK VINA RESULT:      -6.8      4.705      8.382
REMARK  Name = 
REMARK  14 active torsions:
REMARK  status: ('A' for Active; 'I' for Inactive)
REMARK    1  A    between atoms: C_1  and  C_2
REMARK    2  A    between atoms: C_2  and  N_3
REMARK    3  A    between atoms: N_3  and  C_4
REMARK    4  A    between atoms: N_3  and  C_5
REMARK    5  A    between atoms: N_3  and  C_7
REMARK    6  A    between atoms: C_5  and  C_6
REMARK    7  A    between atoms: C_7  and  C_8
REMARK    8  A    between atoms: C_8  and  C_9
REMARK    9  A    between atoms: C_9  and  O_10
REMARK   10  A    between atoms: O_10  and  C_11
REMARK   11  A    between atoms: C_11  and  C_13
REMARK   12  A    between atoms: C_13  and  O_14
REMARK   13  A    between atoms: C_13  and  C_15
REMARK   14  A    between atoms: C_13  and  C_21
REMARK                            x       y       z     vdW  Elec       q    Type
REMARK                         _______ _______ _______ _____ _____    ______ ____
ROOT
ATOM      1  C   UNL     1       3.671   5.876  18.613  0.00  0.00    +0.000 C 
ENDROOT
BRANCH   1   2
ATOM      2  C   UNL     1       2.991   4.505  18.741  0.00  0.00    +0.000 A 
ATOM      3  C   UNL     1       3.551   3.490  19.538  0.00  0.00    +0.000 A 
ATOM      4  C   UNL     1       2.872   2.286  19.750  0.00  0.00    +0.000 A 
ATOM      5  C   UNL     1       1.627   2.070  19.168  0.00  0.00    +0.000 A 
ATOM      6  C   UNL     1       1.063   3.048  18.359  0.00  0.00    +0.000 A 
ATOM      7  C   UNL     1       1.738   4.254  18.148  0.00  0.00    +0.000 A 
ENDBRANCH   1   2
BRANCH   1   8
ATOM      8  C   UNL     1       4.330   6.079  17.198  0.00  0.00    +0.000 C 
ATOM      9  C   UNL     1       5.569   7.008  17.215  0.00  0.00    +0.000 C 
ATOM     10  C   UNL     1       6.859   6.345  17.699  0.00  0.00    +0.000 C 
ATOM     11  C   UNL     1       7.154   5.044  16.966  0.00  0.00    +0.000 C 
ATOM     12  C   UNL     1       5.960   4.097  16.941  0.00  0.00    +0.000 C 
ATOM     13  C   UNL     1       4.695   4.783  16.442  0.00  0.00    +0.000 C 
ENDBRANCH   1   8
BRANCH   1  14
ATOM     14  C   UNL     1       2.662   7.033  18.921  0.00  0.00    +0.000 C 
ATOM     15  O   UNL     1       2.267   7.307  20.048  0.00  0.00    +0.000 OA
BRANCH  14  16
ATOM     16  O   UNL     1       2.311   7.730  17.801  0.00  0.00    +0.000 OA
BRANCH  16  17
ATOM     17  C   UNL     1       2.251   9.161  17.908  0.00  0.00    +0.000 C 
BRANCH  17  18
ATOM     18  C   UNL     1       0.781   9.570  18.024  0.00  0.00    +0.000 C 
BRANCH  18  19
ATOM     19  C   UNL     1       0.607  10.695  19.039  0.00  0.00    +0.000 C 
BRANCH  19  20
ATOM     20  N   UNL     1      -0.763  11.433  18.959  0.00  0.00    +0.000 N 
ATOM     21  C   UNL     1      -0.562  12.800  18.284  0.00  0.00    +0.000 C 
BRANCH  20  23
ATOM     22  C   UNL     1      -2.864  11.275  17.442  0.00  0.00    +0.000 C 
ATOM     23  C   UNL     1      -1.671  10.552  18.051  0.00  0.00    +0.000 C 
ENDBRANCH  20  23
BRANCH  20  24
ATOM     24  C   UNL     1      -1.393  11.678  20.348  0.00  0.00    +0.000 C 
ATOM     25  C   UNL     1      -1.835  13.114  20.577  0.00  0.00    +0.000 C 
ENDBRANCH  20  24
ENDBRANCH  19  20
ENDBRANCH  18  19
ENDBRANCH  17  18
ENDBRANCH  16  17
ENDBRANCH  14  16
ENDBRANCH   1  14
BRANCH   1  26
ATOM     26  O   UNL     1       4.690   5.981  19.623  0.00  0.00    +0.000 OA
ATOM     27  H   UNL     1       5.051   5.082  19.742  0.00  0.00    +0.000 HD
ENDBRANCH   1  26
TORSDOF 11
ENDMDL
