MODEL 1
REMARK VINA RESULT:      -8.9      0.000      0.000
REMARK  Name = 
REMARK  5 active torsions:
REMARK  status: ('A' for Active; 'I' for Inactive)
REMARK    1  A    between atoms: C_2  and  O_3
REMARK    2  A    between atoms: C_2  and  C_4
REMARK    3  A    between atoms: C_9  and  C_10
REMARK    4  A    between atoms: N_12  and  C_13
REMARK    5  A    between atoms: C_17  and  C_18
REMARK                            x       y       z     vdW  Elec       q    Type
REMARK                         _______ _______ _______ _____ _____    ______ ____
ROOT
ATOM      1  C   UNL     1       2.527   5.879  19.140  0.00  0.00    +0.000 C 
ATOM      2  O   UNL     1       2.259   6.014  17.949  0.00  0.00    +0.000 OA
ATOM      3  N   UNL     1       2.416   6.888  20.079  0.00  0.00    +0.000 N 
ATOM      4  H   UNL     1       3.003   6.815  20.901  0.00  0.00    +0.000 HD
ENDROOT
BRANCH   1  10
ATOM      5  C   UNL     1       3.077   3.487  18.567  0.00  0.00    +0.000 C 
ATOM      6  C   UNL     1       1.619   3.096  18.253  0.00  0.00    +0.000 C 
ATOM      7  C   UNL     1       0.742   2.989  19.466  0.00  0.00    +0.000 C 
ATOM      8  C   UNL     1       1.109   3.412  20.682  0.00  0.00    +0.000 C 
ATOM      9  C   UNL     1       2.417   4.091  20.958  0.00  0.00    +0.000 C 
ATOM     10  C   UNL     1       3.131   4.572  19.678  0.00  0.00    +0.000 C 
BRANCH   5  12
ATOM     11  O   UNL     1       3.623   1.118  18.716  0.00  0.00    +0.000 OA
ATOM     12  C   UNL     1       3.926   2.281  18.940  0.00  0.00    +0.000 C 
BRANCH  12  13
ATOM     13  O   UNL     1       5.043   2.587  19.639  0.00  0.00    +0.000 OA
ATOM     14  H   UNL     1       4.991   3.409  20.161  0.00  0.00    +0.000 HD
ENDBRANCH  12  13
ENDBRANCH   5  12
ENDBRANCH   1  10
BRANCH   3  15
ATOM     15  C   UNL     1       1.757   8.119  19.878  0.00  0.00    +0.000 A 
ATOM     16  C   UNL     1       1.850   8.860  18.698  0.00  0.00    +0.000 A 
ATOM     17  C   UNL     1       1.243  10.116  18.600  0.00  0.00    +0.000 A 
ATOM     18  C   UNL     1       0.596  10.663  19.707  0.00  0.00    +0.000 A 
ATOM     19  C   UNL     1       0.504   9.927  20.893  0.00  0.00    +0.000 A 
ATOM     20  C   UNL     1       0.991   8.615  20.932  0.00  0.00    +0.000 A 
BRANCH  19  21
ATOM     21  C   UNL     1      -0.118  10.559  22.088  0.00  0.00    +0.000 C 
ATOM     22  O   UNL     1       0.144  10.060  23.183  0.00  0.00    +0.000 OA
ATOM     23  N   UNL     1      -0.967  11.663  21.944  0.00  0.00    +0.000 N 
ATOM     24  C   UNL     1      -1.361  12.402  23.145  0.00  0.00    +0.000 C 
ATOM     25  C   UNL     1      -2.873  12.608  23.216  0.00  0.00    +0.000 C 
ATOM     26  C   UNL     1      -3.416  13.226  21.930  0.00  0.00    +0.000 C 
ATOM     27  C   UNL     1      -2.999  12.398  20.725  0.00  0.00    +0.000 C 
ATOM     28  C   UNL     1      -1.489  12.203  20.684  0.00  0.00    +0.000 C 
ENDBRANCH  19  21
ENDBRANCH   3  15
TORSDOF 5
ENDMDL
MODEL 2
REMARK VINA RESULT:      -8.6      3.328      4.638
REMARK  Name = 
REMARK  5 active torsions:
REMARK  status: ('A' for Active; 'I' for Inactive)
REMARK    1  A    between atoms: C_2  and  O_3
REMARK    2  A    between atoms: C_2  and  C_4
REMARK    3  A    between atoms: C_9  and  C_10
REMARK    4  A    between atoms: N_12  and  C_13
REMARK    5  A    between atoms: C_17  and  C_18
REMARK                            x       y       z     vdW  Elec       q    Type
REMARK                         _______ _______ _______ _____ _____    ______ ____
ROOT
ATOM      1  C   UNL     1       4.166   4.937  17.183  0.00  0.00    +0.000 C 
ATOM      2  O   UNL     1       4.080   3.796  17.630  0.00  0.00    +0.000 OA
ATOM      3  N   UNL     1       3.441   6.014  17.662  0.00  0.00    +0.000 N 
ATOM      4  H   UNL     1       3.278   6.778  17.018  0.00  0.00    +0.000 HD
ENDROOT
BRANCH   1  10
ATOM      5  C   UNL     1       6.281   4.332  15.954  0.00  0.00    +0.000 C 
ATOM      6  C   UNL     1       7.214   4.688  17.130  0.00  0.00    +0.000 C 
ATOM      7  C   UNL     1       7.344   6.162  17.378  0.00  0.00    +0.000 C 
ATOM      8  C   UNL     1       6.560   7.081  16.801  0.00  0.00    +0.000 C 
ATOM      9  C   UNL     1       5.426   6.736  15.883  0.00  0.00    +0.000 C 
ATOM     10  C   UNL     1       5.025   5.247  15.948  0.00  0.00    +0.000 C 
BRANCH   5  12
ATOM     11  O   UNL     1       7.889   5.174  14.330  0.00  0.00    +0.000 OA
ATOM     12  C   UNL     1       7.001   4.383  14.615  0.00  0.00    +0.000 C 
BRANCH  12  13
ATOM     13  O   UNL     1       6.517   3.519  13.694  0.00  0.00    +0.000 OA
ATOM     14  H   UNL     1       6.292   2.634  14.037  0.00  0.00    +0.000 HD
ENDBRANCH  12  13
ENDBRANCH   5  12
ENDBRANCH   1  10
BRANCH   3  15
ATOM     15  C   UNL     1       2.703   6.029  18.864  0.00  0.00    +0.000 A 
ATOM     16  C   UNL     1       2.129   4.889  19.431  0.00  0.00    +0.000 A 
ATOM     17  C   UNL     1       1.334   4.993  20.578  0.00  0.00    +0.000 A 
ATOM     18  C   UNL     1       1.059   6.246  21.121  0.00  0.00    +0.000 A 
ATOM     19  C   UNL     1       1.628   7.391  20.554  0.00  0.00    +0.000 A 
ATOM     20  C   UNL     1       2.534   7.261  19.496  0.00  0.00    +0.000 A 
BRANCH  19  21
ATOM     21  C   UNL     1       1.257   8.726  21.098  0.00  0.00    +0.000 C 
ATOM     22  O   UNL     1       1.290   8.858  22.321  0.00  0.00    +0.000 OA
ATOM     23  N   UNL     1       0.879   9.762  20.234  0.00  0.00    +0.000 N 
ATOM     24  C   UNL     1       0.760  11.116  20.780  0.00  0.00    +0.000 C 
ATOM     25  C   UNL     1      -0.570  11.766  20.403  0.00  0.00    +0.000 C 
ATOM     26  C   UNL     1      -0.817  11.705  18.897  0.00  0.00    +0.000 C 
ATOM     27  C   UNL     1      -0.708  10.273  18.398  0.00  0.00    +0.000 C 
ATOM     28  C   UNL     1       0.623   9.648  18.795  0.00  0.00    +0.000 C 
ENDBRANCH  19  21
ENDBRANCH   3  15
TORSDOF 5
ENDMDL
MODEL 3
REMARK VINA RESULT:      -8.5      1.807      2.321
REMARK  Name = 
REMARK  5 active torsions:
REMARK  status: ('A' for Active; 'I' for Inactive)
REMARK    1  A    between atoms: C_2  and  O_3
REMARK    2  A    between atoms: C_2  and  C_4
REMARK    3  A    between atoms: C_9  and  C_10
REMARK    4  A    between atoms: N_12  and  C_13
REMARK    5  A    between atoms: C_17  and  C_18
REMARK                            x       y       z     vdW  Elec       q    Type
REMARK                         _______ _______ _______ _____ _____    ______ ____
ROOT
ATOM      1  C   UNL     1       2.969   5.833  19.257  0.00  0.00    +0.000 C 
ATOM      2  O   UNL     1       1.902   5.225  19.200  0.00  0.00    +0.000 OA
ATOM      3  N   UNL     1       3.097   7.195  19.058  0.00  0.00    +0.000 N 
ATOM      4  H   UNL     1       3.998   7.528  18.741  0.00  0.00    +0.000 HD
ENDROOT
BRANCH   1  10
ATOM      5  C   UNL     1       5.332   5.609  18.410  0.00  0.00    +0.000 C 
ATOM      6  C   UNL     1       4.914   5.217  16.978  0.00  0.00    +0.000 C 
ATOM      7  C   UNL     1       4.353   3.830  16.866  0.00  0.00    +0.000 C 
ATOM      8  C   UNL     1       4.024   3.079  17.923  0.00  0.00    +0.000 C 
ATOM      9  C   UNL     1       4.127   3.559  19.340  0.00  0.00    +0.000 C 
ATOM     10  C   UNL     1       4.300   5.089  19.449  0.00  0.00    +0.000 C 
BRANCH   5  12
ATOM     11  O   UNL     1       7.433   4.440  18.019  0.00  0.00    +0.000 OA
ATOM     12  C   UNL     1       6.736   5.130  18.749  0.00  0.00    +0.000 C 
BRANCH  12  13
ATOM     13  O   UNL     1       7.147   5.461  19.995  0.00  0.00    +0.000 OA
ATOM     14  H   UNL     1       7.754   6.222  20.041  0.00  0.00    +0.000 HD
ENDBRANCH  12  13
ENDBRANCH   5  12
ENDBRANCH   1  10
BRANCH   3  15
ATOM     15  C   UNL     1       2.029   8.115  19.013  0.00  0.00    +0.000 A 
ATOM     16  C   UNL     1       1.666   8.820  17.863  0.00  0.00    +0.000 A 
ATOM     17  C   UNL     1       0.654   9.784  17.912  0.00  0.00    +0.000 A 
ATOM     18  C   UNL     1       0.047  10.092  19.128  0.00  0.00    +0.000 A 
ATOM     19  C   UNL     1       0.410   9.393  20.284  0.00  0.00    +0.000 A 
ATOM     20  C   UNL     1       1.321   8.334  20.194  0.00  0.00    +0.000 A 
BRANCH  19  21
ATOM     21  C   UNL     1      -0.189   9.791  21.587  0.00  0.00    +0.000 C 
ATOM     22  O   UNL     1      -0.158   8.959  22.493  0.00  0.00    +0.000 OA
ATOM     23  N   UNL     1      -0.767  11.058  21.743  0.00  0.00    +0.000 N 
ATOM     24  C   UNL     1      -1.122  11.501  23.092  0.00  0.00    +0.000 C 
ATOM     25  C   UNL     1      -2.556  12.024  23.159  0.00  0.00    +0.000 C 
ATOM     26  C   UNL     1      -2.816  13.087  22.094  0.00  0.00    +0.000 C 
ATOM     27  C   UNL     1      -2.455  12.556  20.716  0.00  0.00    +0.000 C 
ATOM     28  C   UNL     1      -1.026  12.035  20.680  0.00  0.00    +0.000 C 
ENDBRANCH  19  21
ENDBRANCH   3  15
TORSDOF 5
ENDMDL
MODEL 4
REMARK VINA RESULT:      -8.5      2.214      3.277
REMARK  Name = 
REMARK  5 active torsions:
REMARK  status: ('A' for Active; 'I' for Inactive)
REMARK    1  A    between atoms: C_2  and  O_3
REMARK    2  A    between atoms: C_2  and  C_4
REMARK    3  A    between atoms: C_9  and  C_10
REMARK    4  A    between atoms: N_12  and  C_13
REMARK    5  A    between atoms: C_17  and  C_18
REMARK                            x       y       z     vdW  Elec       q    Type
REMARK                         _______ _______ _______ _____ _____    ______ ____
ROOT
ATOM      1  C   UNL     1       2.479   5.952  19.784  0.00  0.00    +0.000 C 
ATOM      2  O   UNL     1       2.518   6.478  18.674  0.00  0.00    +0.000 OA
ATOM      3  N   UNL     1       1.998   6.575  20.921  0.00  0.00    +0.000 N 
ATOM      4  H   UNL     1       2.353   6.244  21.809  0.00  0.00    +0.000 HD
ENDROOT
BRANCH   1  10
ATOM      5  C   UNL     1       3.033   3.741  18.708  0.00  0.00    +0.000 C 
ATOM      6  C   UNL     1       1.577   3.428  18.308  0.00  0.00    +0.000 C 
ATOM      7  C   UNL     1       0.694   3.061  19.465  0.00  0.00    +0.000 C 
ATOM      8  C   UNL     1       1.055   3.209  20.746  0.00  0.00    +0.000 C 
ATOM      9  C   UNL     1       2.361   3.811  21.170  0.00  0.00    +0.000 C 
ATOM     10  C   UNL     1       3.081   4.560  20.028  0.00  0.00    +0.000 C 
BRANCH   5  12
ATOM     11  O   UNL     1       3.498   1.357  18.530  0.00  0.00    +0.000 OA
ATOM     12  C   UNL     1       3.882   2.483  18.814  0.00  0.00    +0.000 C 
BRANCH  12  13
ATOM     13  O   UNL     1       5.109   2.687  19.344  0.00  0.00    +0.000 OA
ATOM     14  H   UNL     1       5.502   3.559  19.151  0.00  0.00    +0.000 HD
ENDBRANCH  12  13
ENDBRANCH   5  12
ENDBRANCH   1  10
BRANCH   3  15
ATOM     15  C   UNL     1       1.264   7.780  20.941  0.00  0.00    +0.000 A 
ATOM     16  C   UNL     1       0.110   7.968  21.705  0.00  0.00    +0.000 A 
ATOM     17  C   UNL     1      -0.617   9.158  21.608  0.00  0.00    +0.000 A 
ATOM     18  C   UNL     1      -0.229  10.137  20.696  0.00  0.00    +0.000 A 
ATOM     19  C   UNL     1       0.923   9.951  19.924  0.00  0.00    +0.000 A 
ATOM     20  C   UNL     1       1.721   8.821  20.134  0.00  0.00    +0.000 A 
BRANCH  19  21
ATOM     21  C   UNL     1       1.276  10.970  18.898  0.00  0.00    +0.000 C 
ATOM     22  O   UNL     1       1.356  10.583  17.732  0.00  0.00    +0.000 OA
ATOM     23  N   UNL     1       1.512  12.300  19.272  0.00  0.00    +0.000 N 
ATOM     24  C   UNL     1       1.614  13.312  18.219  0.00  0.00    +0.000 C 
ATOM     25  C   UNL     1       2.865  14.174  18.379  0.00  0.00    +0.000 C 
ATOM     26  C   UNL     1       2.965  14.762  19.784  0.00  0.00    +0.000 C 
ATOM     27  C   UNL     1       2.882  13.660  20.828  0.00  0.00    +0.000 C 
ATOM     28  C   UNL     1       1.631  12.812  20.640  0.00  0.00    +0.000 C 
ENDBRANCH  19  21
ENDBRANCH   3  15
TORSDOF 5
ENDMDL
MODEL 5
REMARK VINA RESULT:      -8.2      3.177      4.348
REMARK  Name = 
REMARK  5 active torsions:
REMARK  status: ('A' for Active; 'I' for Inactive)
REMARK    1  A    between atoms: C_2  and  O_3
REMARK    2  A    between atoms: C_2  and  C_4
REMARK    3  A    between atoms: C_9  and  C_10
REMARK    4  A    between atoms: N_12  and  C_13
REMARK    5  A    between atoms: C_17  and  C_18
REMARK                            x       y       z     vdW  Elec       q    Type
REMARK                         _______ _______ _______ _____ _____    ______ ____
ROOT
ATOM      1  C   UNL     1       4.012   6.087  18.243  0.00  0.00    +0.000 C 
ATOM      2  O   UNL     1       3.998   5.409  19.268  0.00  0.00    +0.000 OA
ATOM      3  N   UNL     1       3.161   7.150  18.005  0.00  0.00    +0.000 N 
ATOM      4  H   UNL     1       2.975   7.381  17.037  0.00  0.00    +0.000 HD
ENDROOT
BRANCH   1  10
ATOM      5  C   UNL     1       6.001   4.710  17.536  0.00  0.00    +0.000 C 
ATOM      6  C   UNL     1       6.969   5.364  18.542  0.00  0.00    +0.000 C 
ATOM      7  C   UNL     1       7.354   6.771  18.189  0.00  0.00    +0.000 C 
ATOM      8  C   UNL     1       6.750   7.484  17.231  0.00  0.00    +0.000 C 
ATOM      9  C   UNL     1       5.582   6.976  16.438  0.00  0.00    +0.000 C 
ATOM     10  C   UNL     1       4.926   5.727  17.062  0.00  0.00    +0.000 C 
BRANCH   5  12
ATOM     11  O   UNL     1       7.837   4.444  15.957  0.00  0.00    +0.000 OA
ATOM     12  C   UNL     1       6.733   4.096  16.351  0.00  0.00    +0.000 C 
BRANCH  12  13
ATOM     13  O   UNL     1       6.018   3.161  15.684  0.00  0.00    +0.000 OA
ATOM     14  H   UNL     1       6.539   2.412  15.340  0.00  0.00    +0.000 HD
ENDBRANCH  12  13
ENDBRANCH   5  12
ENDBRANCH   1  10
BRANCH   3  15
ATOM     15  C   UNL     1       2.341   7.769  18.972  0.00  0.00    +0.000 A 
ATOM     16  C   UNL     1       2.088   7.223  20.233  0.00  0.00    +0.000 A 
ATOM     17  C   UNL     1       1.193   7.847  21.108  0.00  0.00    +0.000 A 
ATOM     18  C   UNL     1       0.499   8.983  20.698  0.00  0.00    +0.000 A 
ATOM     19  C   UNL     1       0.745   9.531  19.435  0.00  0.00    +0.000 A 
ATOM     20  C   UNL     1       1.746   8.981  18.626  0.00  0.00    +0.000 A 
BRANCH  19  21
ATOM     21  C   UNL     1      -0.065  10.696  18.983  0.00  0.00    +0.000 C 
ATOM     22  O   UNL     1      -0.999  10.462  18.217  0.00  0.00    +0.000 OA
ATOM     23  N   UNL     1       0.253  11.990  19.417  0.00  0.00    +0.000 N 
ATOM     24  C   UNL     1      -0.702  13.067  19.152  0.00  0.00    +0.000 C 
ATOM     25  C   UNL     1      -0.029  14.278  18.509  0.00  0.00    +0.000 C 
ATOM     26  C   UNL     1       1.183  14.739  19.314  0.00  0.00    +0.000 C 
ATOM     27  C   UNL     1       2.149  13.585  19.529  0.00  0.00    +0.000 C 
ATOM     28  C   UNL     1       1.449  12.390  20.163  0.00  0.00    +0.000 C 
ENDBRANCH  19  21
ENDBRANCH   3  15
TORSDOF 5
ENDMDL
MODEL 6
REMARK VINA RESULT:      -8.2      1.456      1.693
REMARK  Name = 
REMARK  5 active torsions:
REMARK  status: ('A' for Active; 'I' for Inactive)
REMARK    1  A    between atoms: C_2  and  O_3
REMARK    2  A    between atoms: C_2  and  C_4
REMARK    3  A    between atoms: C_9  and  C_10
REMARK    4  A    between atoms: N_12  and  C_13
REMARK    5  A    between atoms: C_17  and  C_18
REMARK                            x       y       z     vdW  Elec       q    Type
REMARK                         _______ _______ _______ _____ _____    ______ ____
ROOT
ATOM      1  C   UNL     1       3.273   5.898  19.383  0.00  0.00    +0.000 C 
ATOM      2  O   UNL     1       4.010   6.278  18.478  0.00  0.00    +0.000 OA
ATOM      3  N   UNL     1       2.317   6.692  19.990  0.00  0.00    +0.000 N 
ATOM      4  H   UNL     1       2.051   6.447  20.935  0.00  0.00    +0.000 HD
ENDROOT
BRANCH   1  10
ATOM      5  C   UNL     1       3.771   3.476  18.895  0.00  0.00    +0.000 C 
ATOM      6  C   UNL     1       2.577   3.294  17.936  0.00  0.00    +0.000 C 
ATOM      7  C   UNL     1       1.244   3.262  18.624  0.00  0.00    +0.000 C 
ATOM      8  C   UNL     1       1.068   3.587  19.910  0.00  0.00    +0.000 C 
ATOM      9  C   UNL     1       2.176   4.076  20.795  0.00  0.00    +0.000 C 
ATOM     10  C   UNL     1       3.434   4.504  20.010  0.00  0.00    +0.000 C 
BRANCH   5  12
ATOM     11  O   UNL     1       4.845   2.041  20.544  0.00  0.00    +0.000 OA
ATOM     12  C   UNL     1       4.234   2.155  19.491  0.00  0.00    +0.000 C 
BRANCH  12  13
ATOM     13  O   UNL     1       3.990   1.079  18.708  0.00  0.00    +0.000 OA
ATOM     14  H   UNL     1       4.489   1.057  17.870  0.00  0.00    +0.000 HD
ENDBRANCH  12  13
ENDBRANCH   5  12
ENDBRANCH   1  10
BRANCH   3  15
ATOM     15  C   UNL     1       1.874   7.942  19.511  0.00  0.00    +0.000 A 
ATOM     16  C   UNL     1       2.040   8.366  18.190  0.00  0.00    +0.000 A 
ATOM     17  C   UNL     1       1.657   9.655  17.807  0.00  0.00    +0.000 A 
ATOM     18  C   UNL     1       1.167  10.547  18.759  0.00  0.00    +0.000 A 
ATOM     19  C   UNL     1       1.004  10.129  20.084  0.00  0.00    +0.000 A 
ATOM     20  C   UNL     1       1.256   8.795  20.425  0.00  0.00    +0.000 A 
BRANCH  19  21
ATOM     21  C   UNL     1       0.557  11.118  21.102  0.00  0.00    +0.000 C 
ATOM     22  O   UNL     1       0.295  10.684  22.224  0.00  0.00    +0.000 OA
ATOM     23  N   UNL     1       0.439  12.474  20.768  0.00  0.00    +0.000 N 
ATOM     24  C   UNL     1       0.236  13.442  21.848  0.00  0.00    +0.000 C 
ATOM     25  C   UNL     1      -0.938  14.377  21.560  0.00  0.00    +0.000 C 
ATOM     26  C   UNL     1      -0.810  15.031  20.187  0.00  0.00    +0.000 C 
ATOM     27  C   UNL     1      -0.631  13.974  19.109  0.00  0.00    +0.000 C 
ATOM     28  C   UNL     1       0.539  13.053  19.425  0.00  0.00    +0.000 C 
ENDBRANCH  19  21
ENDBRANCH   3  15
TORSDOF 5
ENDMDL
MODEL 7
REMARK VINA RESULT:      -8.2      2.554      8.746
REMARK  Name = 
REMARK  5 active torsions:
REMARK  status: ('A' for Active; 'I' for Inactive)
REMARK    1  A    between atoms: C_2  and  O_3
REMARK    2  A    between atoms: C_2  and  C_4
REMARK    3  A    between atoms: C_9  and  C_10
REMARK    4  A    between atoms: N_12  and  C_13
REMARK    5  A    between atoms: C_17  and  C_18
REMARK                            x       y       z     vdW  Elec       q    Type
REMARK                         _______ _______ _______ _____ _____    ______ ____
ROOT
ATOM      1  C   UNL     1       1.625   8.341  20.170  0.00  0.00    +0.000 C 
ATOM      2  O   UNL     1       1.864   8.458  18.970  0.00  0.00    +0.000 OA
ATOM      3  N   UNL     1       1.631   7.136  20.848  0.00  0.00    +0.000 N 
ATOM      4  H   UNL     1       1.064   7.080  21.684  0.00  0.00    +0.000 HD
ENDROOT
BRANCH   1  10
ATOM      5  C   UNL     1      -0.281   9.321  21.496  0.00  0.00    +0.000 C 
ATOM      6  C   UNL     1      -1.261   9.345  20.306  0.00  0.00    +0.000 C 
ATOM      7  C   UNL     1      -0.950  10.397  19.282  0.00  0.00    +0.000 C 
ATOM      8  C   UNL     1       0.190  11.098  19.266  0.00  0.00    +0.000 C 
ATOM      9  C   UNL     1       1.309  10.873  20.239  0.00  0.00    +0.000 C 
ATOM     10  C   UNL     1       1.179   9.545  21.014  0.00  0.00    +0.000 C 
BRANCH   5  12
ATOM     11  O   UNL     1      -1.421  11.271  22.408  0.00  0.00    +0.000 OA
ATOM     12  C   UNL     1      -0.661  10.327  22.573  0.00  0.00    +0.000 C 
BRANCH  12  13
ATOM     13  O   UNL     1      -0.013  10.151  23.747  0.00  0.00    +0.000 OA
ATOM     14  H   UNL     1      -0.269   9.352  24.244  0.00  0.00    +0.000 HD
ENDBRANCH  12  13
ENDBRANCH   5  12
ENDBRANCH   1  10
BRANCH   3  15
ATOM     15  C   UNL     1       2.143   5.922  20.346  0.00  0.00    +0.000 A 
ATOM     16  C   UNL     1       1.496   4.692  20.492  0.00  0.00    +0.000 A 
ATOM     17  C   UNL     1       2.105   3.514  20.048  0.00  0.00    +0.000 A 
ATOM     18  C   UNL     1       3.392   3.555  19.516  0.00  0.00    +0.000 A 
ATOM     19  C   UNL     1       4.047   4.784  19.372  0.00  0.00    +0.000 A 
ATOM     20  C   UNL     1       3.371   5.968  19.687  0.00  0.00    +0.000 A 
BRANCH  19  21
ATOM     21  C   UNL     1       5.451   4.800  18.878  0.00  0.00    +0.000 C 
ATOM     22  O   UNL     1       6.325   5.091  19.694  0.00  0.00    +0.000 OA
ATOM     23  N   UNL     1       5.734   4.504  17.538  0.00  0.00    +0.000 N 
ATOM     24  C   UNL     1       7.130   4.292  17.151  0.00  0.00    +0.000 C 
ATOM     25  C   UNL     1       7.514   5.123  15.928  0.00  0.00    +0.000 C 
ATOM     26  C   UNL     1       6.535   4.909  14.776  0.00  0.00    +0.000 C 
ATOM     27  C   UNL     1       5.109   5.173  15.233  0.00  0.00    +0.000 C 
ATOM     28  C   UNL     1       4.758   4.339  16.457  0.00  0.00    +0.000 C 
ENDBRANCH  19  21
ENDBRANCH   3  15
TORSDOF 5
ENDMDL
MODEL 8
REMARK VINA RESULT:      -8.1      2.448      3.368
REMARK  Name = 
REMARK  5 active torsions:
REMARK  status: ('A' for Active; 'I' for Inactive)
REMARK    1  A    between atoms: C_2  and  O_3
REMARK    2  A    between atoms: C_2  and  C_4
REMARK    3  A    between atoms: C_9  and  C_10
REMARK    4  A    between atoms: N_12  and  C_13
REMARK    5  A    between atoms: C_17  and  C_18
REMARK                            x       y       z     vdW  Elec       q    Type
REMARK                         _______ _______ _______ _____ _____    ______ ____
ROOT
ATOM      1  C   UNL     1       2.084   5.445  20.386  0.00  0.00    +0.000 C 
ATOM      2  O   UNL     1       0.978   4.980  20.647  0.00  0.00    +0.000 OA
ATOM      3  N   UNL     1       2.345   6.797  20.257  0.00  0.00    +0.000 N 
ATOM      4  H   UNL     1       3.135   7.058  19.679  0.00  0.00    +0.000 HD
ENDROOT
BRANCH   1  10
ATOM      5  C   UNL     1       3.766   4.823  18.614  0.00  0.00    +0.000 C 
ATOM      6  C   UNL     1       2.704   4.396  17.580  0.00  0.00    +0.000 C 
ATOM      7  C   UNL     1       2.022   3.100  17.908  0.00  0.00    +0.000 C 
ATOM      8  C   UNL     1       2.141   2.481  19.089  0.00  0.00    +0.000 C 
ATOM      9  C   UNL     1       2.925   3.040  20.237  0.00  0.00    +0.000 C 
ATOM     10  C   UNL     1       3.276   4.533  20.060  0.00  0.00    +0.000 C 
BRANCH   5  12
ATOM     11  O   UNL     1       6.072   4.219  19.114  0.00  0.00    +0.000 OA
ATOM     12  C   UNL     1       5.116   4.171  18.353  0.00  0.00    +0.000 C 
BRANCH  12  13
ATOM     13  O   UNL     1       5.220   3.585  17.139  0.00  0.00    +0.000 OA
ATOM     14  H   UNL     1       4.411   3.615  16.595  0.00  0.00    +0.000 HD
ENDBRANCH  12  13
ENDBRANCH   5  12
ENDBRANCH   1  10
BRANCH   3  15
ATOM     15  C   UNL     1       1.473   7.836  20.644  0.00  0.00    +0.000 A 
ATOM     16  C   UNL     1       0.588   7.739  21.720  0.00  0.00    +0.000 A 
ATOM     17  C   UNL     1      -0.313   8.774  21.992  0.00  0.00    +0.000 A 
ATOM     18  C   UNL     1      -0.374   9.881  21.147  0.00  0.00    +0.000 A 
ATOM     19  C   UNL     1       0.507   9.980  20.065  0.00  0.00    +0.000 A 
ATOM     20  C   UNL     1       1.497   9.007  19.888  0.00  0.00    +0.000 A 
BRANCH  19  21
ATOM     21  C   UNL     1       0.372  11.128  19.127  0.00  0.00    +0.000 C 
ATOM     22  O   UNL     1      -0.107  10.889  18.018  0.00  0.00    +0.000 OA
ATOM     23  N   UNL     1       0.789  12.409  19.511  0.00  0.00    +0.000 N 
ATOM     24  C   UNL     1       0.419  13.545  18.665  0.00  0.00    +0.000 C 
ATOM     25  C   UNL     1       1.624  14.424  18.335  0.00  0.00    +0.000 C 
ATOM     26  C   UNL     1       2.378  14.839  19.595  0.00  0.00    +0.000 C 
ATOM     27  C   UNL     1       2.759  13.615  20.414  0.00  0.00    +0.000 C 
ATOM     28  C   UNL     1       1.542  12.755  20.721  0.00  0.00    +0.000 C 
ENDBRANCH  19  21
ENDBRANCH   3  15
TORSDOF 5
ENDMDL
MODEL 9
REMARK VINA RESULT:      -8.1      1.513      1.829
REMARK  Name = 
REMARK  5 active torsions:
REMARK  status: ('A' for Active; 'I' for Inactive)
REMARK    1  A    between atoms: C_2  and  O_3
REMARK    2  A    between atoms: C_2  and  C_4
REMARK    3  A    between atoms: C_9  and  C_10
REMARK    4  A    between atoms: N_12  and  C_13
REMARK    5  A    between atoms: C_17  and  C_18
REMARK                            x       y       z     vdW  Elec       q    Type
REMARK                         _______ _______ _______ _____ _____    ______ ____
ROOT
ATOM      1  C   UNL     1       2.735   7.162  18.915  0.00  0.00    +0.000 C 
ATOM      2  O   UNL     1       2.972   7.542  17.771  0.00  0.00    +0.000 OA
ATOM      3  N   UNL     1       1.967   7.867  19.823  0.00  0.00    +0.000 N 
ATOM      4  H   UNL     1       2.146   7.696  20.804  0.00  0.00    +0.000 HD
ENDROOT
BRANCH   1  10
ATOM      5  C   UNL     1       3.737   4.929  18.313  0.00  0.00    +0.000 C 
ATOM      6  C   UNL     1       2.458   4.398  17.634  0.00  0.00    +0.000 C 
ATOM      7  C   UNL     1       1.356   4.058  18.594  0.00  0.00    +0.000 C 
ATOM      8  C   UNL     1       1.376   4.391  19.890  0.00  0.00    +0.000 C 
ATOM      9  C   UNL     1       2.477   5.193  20.518  0.00  0.00    +0.000 C 
ATOM     10  C   UNL     1       3.384   5.890  19.482  0.00  0.00    +0.000 C 
BRANCH   5  12
ATOM     11  O   UNL     1       5.655   3.958  19.458  0.00  0.00    +0.000 OA
ATOM     12  C   UNL     1       4.645   3.803  18.786  0.00  0.00    +0.000 C 
BRANCH  12  13
ATOM     13  O   UNL     1       4.294   2.581  18.326  0.00  0.00    +0.000 OA
ATOM     14  H   UNL     1       4.564   1.834  18.893  0.00  0.00    +0.000 HD
ENDBRANCH  12  13
ENDBRANCH   5  12
ENDBRANCH   1  10
BRANCH   3  15
ATOM     15  C   UNL     1       1.149   8.973  19.512  0.00  0.00    +0.000 A 
ATOM     16  C   UNL     1       0.477   9.119  18.296  0.00  0.00    +0.000 A 
ATOM     17  C   UNL     1      -0.245  10.284  18.020  0.00  0.00    +0.000 A 
ATOM     18  C   UNL     1      -0.242  11.336  18.935  0.00  0.00    +0.000 A 
ATOM     19  C   UNL     1       0.433  11.197  20.153  0.00  0.00    +0.000 A 
ATOM     20  C   UNL     1       1.031   9.974  20.476  0.00  0.00    +0.000 A 
BRANCH  19  21
ATOM     21  C   UNL     1       0.493  12.359  21.080  0.00  0.00    +0.000 C 
ATOM     22  O   UNL     1       1.607  12.826  21.318  0.00  0.00    +0.000 OA
ATOM     23  N   UNL     1      -0.679  12.870  21.652  0.00  0.00    +0.000 N 
ATOM     24  C   UNL     1      -0.609  14.151  22.358  0.00  0.00    +0.000 C 
ATOM     25  C   UNL     1      -1.248  14.073  23.743  0.00  0.00    +0.000 C 
ATOM     26  C   UNL     1      -2.664  13.504  23.676  0.00  0.00    +0.000 C 
ATOM     27  C   UNL     1      -2.664  12.163  22.960  0.00  0.00    +0.000 C 
ATOM     28  C   UNL     1      -2.015  12.269  21.587  0.00  0.00    +0.000 C 
ENDBRANCH  19  21
ENDBRANCH   3  15
TORSDOF 5
ENDMDL
