MODEL 1
REMARK VINA RESULT:      -8.0      0.000      0.000
REMARK  Name = 
REMARK  6 active torsions:
REMARK  status: ('A' for Active; 'I' for Inactive)
REMARK    1  A    between atoms: C_2  and  C_3
REMARK    2  A    between atoms: C_4  and  C_5
REMARK    3  A    between atoms: N_12  and  C_13
REMARK    4  A    between atoms: C_16  and  C_17
REMARK    5  A    between atoms: C_22  and  N_23
REMARK    6  A    between atoms: N_28  and  O_29
REMARK                            x       y       z     vdW  Elec       q    Type
REMARK                         _______ _______ _______ _____ _____    ______ ____
ROOT
ATOM      1  C   UNL     1       1.077   8.851  20.826  0.00  0.00    +0.000 A 
ATOM      2  C   UNL     1       0.954   8.876  22.218  0.00  0.00    +0.000 A 
ATOM      3  C   UNL     1       0.135   9.829  22.863  0.00  0.00    +0.000 A 
ATOM      4  C   UNL     1      -0.572  10.776  22.119  0.00  0.00    +0.000 A 
ATOM      5  C   UNL     1      -0.469  10.715  20.718  0.00  0.00    +0.000 A 
ATOM      6  C   UNL     1       0.336   9.768  20.079  0.00  0.00    +0.000 A 
ENDROOT
BRANCH   4   7
ATOM      7  C   UNL     1      -1.305  11.917  22.686  0.00  0.00    +0.000 A 
ATOM      8  N   UNL     1      -2.510  11.779  23.222  0.00  0.00    +0.000 NA
ATOM      9  C   UNL     1      -2.918  13.023  23.593  0.00  0.00    +0.000 A 
ATOM     10  C   UNL     1      -4.136  13.395  24.177  0.00  0.00    +0.000 A 
ATOM     11  C   UNL     1      -4.363  14.741  24.470  0.00  0.00    +0.000 A 
ATOM     12  C   UNL     1      -3.379  15.699  24.187  0.00  0.00    +0.000 A 
ATOM     13  C   UNL     1      -2.133  15.344  23.616  0.00  0.00    +0.000 A 
ATOM     14  C   UNL     1      -1.944  13.980  23.330  0.00  0.00    +0.000 A 
ATOM     15  N   UNL     1      -0.913  13.238  22.795  0.00  0.00    +0.000 N 
BRANCH  12  16
ATOM     16  N   UNL     1      -3.666  17.109  24.493  0.00  0.00    +0.000 N 
ATOM     17  O   UNL     1      -4.591  17.355  25.282  0.00  0.00    +0.000 OA
ATOM     18  O   UNL     1      -2.961  17.970  23.948  0.00  0.00    +0.000 OA
ENDBRANCH  12  16
BRANCH  15  19
ATOM     19  O   UNL     1       0.354  13.748  22.520  0.00  0.00    +0.000 OA
ATOM     20  H   UNL     1       0.571  14.100  23.401  0.00  0.00    +0.000 HD
ENDBRANCH  15  19
ENDBRANCH   4   7
BRANCH   1  23
ATOM     21  O   UNL     1       1.343   5.881  20.922  0.00  0.00    +0.000 OA
ATOM     22  C   UNL     1       2.025   6.610  20.215  0.00  0.00    +0.000 C 
ATOM     23  N   UNL     1       1.930   7.985  20.102  0.00  0.00    +0.000 N 
ATOM     24  H   UNL     1       2.574   8.438  19.469  0.00  0.00    +0.000 HD
BRANCH  22  25
ATOM     25  C   UNL     1       3.115   6.049  19.360  0.00  0.00    +0.000 C 
ATOM     26  C   UNL     1       3.032   6.117  18.020  0.00  0.00    +0.000 C 
BRANCH  26  27
ATOM     27  C   UNL     1       4.095   5.583  17.167  0.00  0.00    +0.000 A 
ATOM     28  C   UNL     1       4.901   6.445  16.411  0.00  0.00    +0.000 A 
ATOM     29  C   UNL     1       5.868   5.923  15.547  0.00  0.00    +0.000 A 
ATOM     30  C   UNL     1       6.027   4.546  15.446  0.00  0.00    +0.000 A 
ATOM     31  F   UNL     1       6.937   4.047  14.601  0.00  0.00    +0.000 F 
ATOM     32  C   UNL     1       5.251   3.679  16.207  0.00  0.00    +0.000 A 
ATOM     33  C   UNL     1       4.284   4.198  17.071  0.00  0.00    +0.000 A 
ENDBRANCH  26  27
ENDBRANCH  22  25
ENDBRANCH   1  23
TORSDOF 6
ENDMDL
MODEL 2
REMARK VINA RESULT:      -7.9      2.302      2.670
REMARK  Name = 
REMARK  6 active torsions:
REMARK  status: ('A' for Active; 'I' for Inactive)
REMARK    1  A    between atoms: C_2  and  C_3
REMARK    2  A    between atoms: C_4  and  C_5
REMARK    3  A    between atoms: N_12  and  C_13
REMARK    4  A    between atoms: C_16  and  C_17
REMARK    5  A    between atoms: C_22  and  N_23
REMARK    6  A    between atoms: N_28  and  O_29
REMARK                            x       y       z     vdW  Elec       q    Type
REMARK                         _______ _______ _______ _____ _____    ______ ____
ROOT
ATOM      1  C   UNL     1       0.674   9.428  21.583  0.00  0.00    +0.000 A 
ATOM      2  C   UNL     1       0.749  10.710  21.030  0.00  0.00    +0.000 A 
ATOM      3  C   UNL     1      -0.077  11.757  21.496  0.00  0.00    +0.000 A 
ATOM      4  C   UNL     1      -0.995  11.532  22.524  0.00  0.00    +0.000 A 
ATOM      5  C   UNL     1      -1.033  10.250  23.097  0.00  0.00    +0.000 A 
ATOM      6  C   UNL     1      -0.212   9.215  22.640  0.00  0.00    +0.000 A 
ENDROOT
BRANCH   4   7
ATOM      7  C   UNL     1      -2.020  12.491  22.962  0.00  0.00    +0.000 A 
ATOM      8  N   UNL     1      -3.312  12.196  22.934  0.00  0.00    +0.000 NA
ATOM      9  C   UNL     1      -3.977  13.310  23.346  0.00  0.00    +0.000 A 
ATOM     10  C   UNL     1      -5.361  13.500  23.455  0.00  0.00    +0.000 A 
ATOM     11  C   UNL     1      -5.841  14.737  23.889  0.00  0.00    +0.000 A 
ATOM     12  C   UNL     1      -4.946  15.766  24.215  0.00  0.00    +0.000 A 
ATOM     13  C   UNL     1      -3.544  15.590  24.133  0.00  0.00    +0.000 A 
ATOM     14  C   UNL     1      -3.098  14.332  23.686  0.00  0.00    +0.000 A 
ATOM     15  N   UNL     1      -1.860  13.765  23.475  0.00  0.00    +0.000 N 
BRANCH  12  16
ATOM     16  N   UNL     1      -5.495  17.059  24.650  0.00  0.00    +0.000 N 
ATOM     17  O   UNL     1      -6.418  17.553  23.983  0.00  0.00    +0.000 OA
ATOM     18  O   UNL     1      -5.006  17.579  25.663  0.00  0.00    +0.000 OA
ENDBRANCH  12  16
BRANCH  15  19
ATOM     19  O   UNL     1      -0.655  14.365  23.833  0.00  0.00    +0.000 OA
ATOM     20  H   UNL     1      -0.749  15.200  23.341  0.00  0.00    +0.000 HD
ENDBRANCH  15  19
ENDBRANCH   4   7
BRANCH   1  23
ATOM     21  O   UNL     1       1.792   8.814  18.887  0.00  0.00    +0.000 OA
ATOM     22  C   UNL     1       1.873   8.066  19.851  0.00  0.00    +0.000 C 
ATOM     23  N   UNL     1       1.404   8.305  21.130  0.00  0.00    +0.000 N 
ATOM     24  H   UNL     1       1.552   7.577  21.815  0.00  0.00    +0.000 HD
BRANCH  22  25
ATOM     25  C   UNL     1       2.512   6.721  19.728  0.00  0.00    +0.000 C 
ATOM     26  C   UNL     1       1.782   5.651  19.372  0.00  0.00    +0.000 C 
BRANCH  26  27
ATOM     27  C   UNL     1       2.393   4.327  19.236  0.00  0.00    +0.000 A 
ATOM     28  C   UNL     1       3.781   4.170  19.343  0.00  0.00    +0.000 A 
ATOM     29  C   UNL     1       4.363   2.916  19.143  0.00  0.00    +0.000 A 
ATOM     30  C   UNL     1       3.556   1.825  18.841  0.00  0.00    +0.000 A 
ATOM     31  F   UNL     1       4.117   0.628  18.626  0.00  0.00    +0.000 F 
ATOM     32  C   UNL     1       2.176   1.960  18.754  0.00  0.00    +0.000 A 
ATOM     33  C   UNL     1       1.591   3.213  18.953  0.00  0.00    +0.000 A 
ENDBRANCH  26  27
ENDBRANCH  22  25
ENDBRANCH   1  23
TORSDOF 6
ENDMDL
MODEL 3
REMARK VINA RESULT:      -7.9      1.115      1.484
REMARK  Name = 
REMARK  6 active torsions:
REMARK  status: ('A' for Active; 'I' for Inactive)
REMARK    1  A    between atoms: C_2  and  C_3
REMARK    2  A    between atoms: C_4  and  C_5
REMARK    3  A    between atoms: N_12  and  C_13
REMARK    4  A    between atoms: C_16  and  C_17
REMARK    5  A    between atoms: C_22  and  N_23
REMARK    6  A    between atoms: N_28  and  O_29
REMARK                            x       y       z     vdW  Elec       q    Type
REMARK                         _______ _______ _______ _____ _____    ______ ____
ROOT
ATOM      1  C   UNL     1       0.889   9.190  20.844  0.00  0.00    +0.000 A 
ATOM      2  C   UNL     1       0.497   9.076  22.181  0.00  0.00    +0.000 A 
ATOM      3  C   UNL     1      -0.295  10.069  22.799  0.00  0.00    +0.000 A 
ATOM      4  C   UNL     1      -0.704  11.196  22.083  0.00  0.00    +0.000 A 
ATOM      5  C   UNL     1      -0.335  11.281  20.730  0.00  0.00    +0.000 A 
ATOM      6  C   UNL     1       0.443  10.295  20.116  0.00  0.00    +0.000 A 
ENDROOT
BRANCH   4   7
ATOM      7  C   UNL     1      -1.371  12.368  22.669  0.00  0.00    +0.000 A 
ATOM      8  N   UNL     1      -0.729  13.219  23.456  0.00  0.00    +0.000 NA
ATOM      9  C   UNL     1      -1.644  14.142  23.864  0.00  0.00    +0.000 A 
ATOM     10  C   UNL     1      -1.451  15.225  24.731  0.00  0.00    +0.000 A 
ATOM     11  C   UNL     1      -2.536  16.051  25.033  0.00  0.00    +0.000 A 
ATOM     12  C   UNL     1      -3.793  15.797  24.469  0.00  0.00    +0.000 A 
ATOM     13  C   UNL     1      -4.007  14.720  23.574  0.00  0.00    +0.000 A 
ATOM     14  C   UNL     1      -2.892  13.908  23.298  0.00  0.00    +0.000 A 
ATOM     15  N   UNL     1      -2.675  12.800  22.508  0.00  0.00    +0.000 N 
BRANCH  12  16
ATOM     16  N   UNL     1      -4.913  16.679  24.828  0.00  0.00    +0.000 N 
ATOM     17  O   UNL     1      -4.713  17.553  25.686  0.00  0.00    +0.000 OA
ATOM     18  O   UNL     1      -5.994  16.501  24.248  0.00  0.00    +0.000 OA
ENDBRANCH  12  16
BRANCH  15  19
ATOM     19  O   UNL     1      -3.611  12.284  21.614  0.00  0.00    +0.000 OA
ATOM     20  H   UNL     1      -3.691  13.050  21.018  0.00  0.00    +0.000 HD
ENDBRANCH  15  19
ENDBRANCH   4   7
BRANCH   1  23
ATOM     21  O   UNL     1       1.121   6.225  21.066  0.00  0.00    +0.000 OA
ATOM     22  C   UNL     1       1.820   6.917  20.338  0.00  0.00    +0.000 C 
ATOM     23  N   UNL     1       1.741   8.286  20.167  0.00  0.00    +0.000 N 
ATOM     24  H   UNL     1       2.397   8.707  19.524  0.00  0.00    +0.000 HD
BRANCH  22  25
ATOM     25  C   UNL     1       2.913   6.310  19.520  0.00  0.00    +0.000 C 
ATOM     26  C   UNL     1       2.823   6.276  18.180  0.00  0.00    +0.000 C 
BRANCH  26  27
ATOM     27  C   UNL     1       3.891   5.695  17.363  0.00  0.00    +0.000 A 
ATOM     28  C   UNL     1       4.791   6.521  16.677  0.00  0.00    +0.000 A 
ATOM     29  C   UNL     1       5.763   5.961  15.845  0.00  0.00    +0.000 A 
ATOM     30  C   UNL     1       5.834   4.580  15.706  0.00  0.00    +0.000 A 
ATOM     31  F   UNL     1       6.750   4.044  14.889  0.00  0.00    +0.000 F 
ATOM     32  C   UNL     1       4.962   3.746  16.397  0.00  0.00    +0.000 A 
ATOM     33  C   UNL     1       3.989   4.304  17.229  0.00  0.00    +0.000 A 
ENDBRANCH  26  27
ENDBRANCH  22  25
ENDBRANCH   1  23
TORSDOF 6
ENDMDL
MODEL 4
REMARK VINA RESULT:      -7.8      2.494      3.856
REMARK  Name = 
REMARK  6 active torsions:
REMARK  status: ('A' for Active; 'I' for Inactive)
REMARK    1  A    between atoms: C_2  and  C_3
REMARK    2  A    between atoms: C_4  and  C_5
REMARK    3  A    between atoms: N_12  and  C_13
REMARK    4  A    between atoms: C_16  and  C_17
REMARK    5  A    between atoms: C_22  and  N_23
REMARK    6  A    between atoms: N_28  and  O_29
REMARK                            x       y       z     vdW  Elec       q    Type
REMARK                         _______ _______ _______ _____ _____    ______ ____
ROOT
ATOM      1  C   UNL     1       2.697   7.203  18.241  0.00  0.00    +0.000 A 
ATOM      2  C   UNL     1       2.454   6.993  19.601  0.00  0.00    +0.000 A 
ATOM      3  C   UNL     1       1.753   7.944  20.375  0.00  0.00    +0.000 A 
ATOM      4  C   UNL     1       1.286   9.125  19.795  0.00  0.00    +0.000 A 
ATOM      5  C   UNL     1       1.504   9.307  18.418  0.00  0.00    +0.000 A 
ATOM      6  C   UNL     1       2.192   8.363  17.651  0.00  0.00    +0.000 A 
ENDROOT
BRANCH   4   7
ATOM      7  C   UNL     1       0.708  10.256  20.535  0.00  0.00    +0.000 A 
ATOM      8  N   UNL     1       0.959  11.514  20.201  0.00  0.00    +0.000 NA
ATOM      9  C   UNL     1       0.322  12.297  21.114  0.00  0.00    +0.000 A 
ATOM     10  C   UNL     1       0.315  13.695  21.199  0.00  0.00    +0.000 A 
ATOM     11  C   UNL     1      -0.398  14.306  22.232  0.00  0.00    +0.000 A 
ATOM     12  C   UNL     1      -1.099  13.526  23.162  0.00  0.00    +0.000 A 
ATOM     13  C   UNL     1      -1.122  12.112  23.085  0.00  0.00    +0.000 A 
ATOM     14  C   UNL     1      -0.388  11.533  22.034  0.00  0.00    +0.000 A 
ATOM     15  N   UNL     1      -0.160  10.241  21.611  0.00  0.00    +0.000 N 
BRANCH  12  16
ATOM     16  N   UNL     1      -1.821  14.209  24.246  0.00  0.00    +0.000 N 
ATOM     17  O   UNL     1      -1.169  14.938  25.010  0.00  0.00    +0.000 OA
ATOM     18  O   UNL     1      -3.043  14.019  24.331  0.00  0.00    +0.000 OA
ENDBRANCH  12  16
BRANCH  15  19
ATOM     19  O   UNL     1      -0.803   9.123  22.137  0.00  0.00    +0.000 OA
ATOM     20  H   UNL     1      -0.281   9.017  22.952  0.00  0.00    +0.000 HD
ENDBRANCH  15  19
ENDBRANCH   4   7
BRANCH   1  23
ATOM     21  O   UNL     1       5.046   5.479  18.876  0.00  0.00    +0.000 OA
ATOM     22  C   UNL     1       4.556   5.589  17.761  0.00  0.00    +0.000 C 
ATOM     23  N   UNL     1       3.453   6.345  17.409  0.00  0.00    +0.000 N 
ATOM     24  H   UNL     1       3.177   6.327  16.437  0.00  0.00    +0.000 HD
BRANCH  22  25
ATOM     25  C   UNL     1       5.154   4.886  16.586  0.00  0.00    +0.000 C 
ATOM     26  C   UNL     1       5.223   5.495  15.390  0.00  0.00    +0.000 C 
BRANCH  26  27
ATOM     27  C   UNL     1       5.816   4.826  14.231  0.00  0.00    +0.000 A 
ATOM     28  C   UNL     1       5.084   3.876  13.506  0.00  0.00    +0.000 A 
ATOM     29  C   UNL     1       5.681   3.191  12.445  0.00  0.00    +0.000 A 
ATOM     30  C   UNL     1       7.003   3.461  12.110  0.00  0.00    +0.000 A 
ATOM     31  F   UNL     1       7.582   2.788  11.108  0.00  0.00    +0.000 F 
ATOM     32  C   UNL     1       7.735   4.417  12.805  0.00  0.00    +0.000 A 
ATOM     33  C   UNL     1       7.141   5.102  13.867  0.00  0.00    +0.000 A 
ENDBRANCH  26  27
ENDBRANCH  22  25
ENDBRANCH   1  23
TORSDOF 6
ENDMDL
MODEL 5
REMARK VINA RESULT:      -7.8      2.356      3.467
REMARK  Name = 
REMARK  6 active torsions:
REMARK  status: ('A' for Active; 'I' for Inactive)
REMARK    1  A    between atoms: C_2  and  C_3
REMARK    2  A    between atoms: C_4  and  C_5
REMARK    3  A    between atoms: N_12  and  C_13
REMARK    4  A    between atoms: C_16  and  C_17
REMARK    5  A    between atoms: C_22  and  N_23
REMARK    6  A    between atoms: N_28  and  O_29
REMARK                            x       y       z     vdW  Elec       q    Type
REMARK                         _______ _______ _______ _____ _____    ______ ____
ROOT
ATOM      1  C   UNL     1       2.630   7.345  18.470  0.00  0.00    +0.000 A 
ATOM      2  C   UNL     1       2.295   7.108  19.806  0.00  0.00    +0.000 A 
ATOM      3  C   UNL     1       1.519   8.031  20.541  0.00  0.00    +0.000 A 
ATOM      4  C   UNL     1       1.068   9.211  19.945  0.00  0.00    +0.000 A 
ATOM      5  C   UNL     1       1.379   9.419  18.591  0.00  0.00    +0.000 A 
ATOM      6  C   UNL     1       2.142   8.503  17.861  0.00  0.00    +0.000 A 
ENDROOT
BRANCH   4   7
ATOM      7  C   UNL     1       0.412  10.317  20.658  0.00  0.00    +0.000 A 
ATOM      8  N   UNL     1       0.435  11.559  20.196  0.00  0.00    +0.000 NA
ATOM      9  C   UNL     1      -0.208  12.331  21.115  0.00  0.00    +0.000 A 
ATOM     10  C   UNL     1      -0.414  13.717  21.088  0.00  0.00    +0.000 A 
ATOM     11  C   UNL     1      -1.092  14.320  22.148  0.00  0.00    +0.000 A 
ATOM     12  C   UNL     1      -1.563  13.543  23.217  0.00  0.00    +0.000 A 
ATOM     13  C   UNL     1      -1.385  12.139  23.255  0.00  0.00    +0.000 A 
ATOM     14  C   UNL     1      -0.692  11.569  22.172  0.00  0.00    +0.000 A 
ATOM     15  N   UNL     1      -0.321  10.286  21.829  0.00  0.00    +0.000 N 
BRANCH  12  16
ATOM     16  N   UNL     1      -2.256  14.221  24.323  0.00  0.00    +0.000 N 
ATOM     17  O   UNL     1      -3.398  13.835  24.617  0.00  0.00    +0.000 OA
ATOM     18  O   UNL     1      -1.656  15.138  24.901  0.00  0.00    +0.000 OA
ENDBRANCH  12  16
BRANCH  15  19
ATOM     19  O   UNL     1      -0.729   9.146  22.518  0.00  0.00    +0.000 OA
ATOM     20  H   UNL     1       0.106   8.646  22.492  0.00  0.00    +0.000 HD
ENDBRANCH  15  19
ENDBRANCH   4   7
BRANCH   1  23
ATOM     21  O   UNL     1       4.770   5.433  19.282  0.00  0.00    +0.000 OA
ATOM     22  C   UNL     1       4.462   5.668  18.121  0.00  0.00    +0.000 C 
ATOM     23  N   UNL     1       3.463   6.517  17.683  0.00  0.00    +0.000 N 
ATOM     24  H   UNL     1       3.339   6.600  16.683  0.00  0.00    +0.000 HD
BRANCH  22  25
ATOM     25  C   UNL     1       5.200   5.033  16.988  0.00  0.00    +0.000 C 
ATOM     26  C   UNL     1       4.959   5.413  15.722  0.00  0.00    +0.000 C 
BRANCH  26  27
ATOM     27  C   UNL     1       5.681   4.810  14.599  0.00  0.00    +0.000 A 
ATOM     28  C   UNL     1       6.997   5.194  14.311  0.00  0.00    +0.000 A 
ATOM     29  C   UNL     1       7.654   4.665  13.197  0.00  0.00    +0.000 A 
ATOM     30  C   UNL     1       6.996   3.752  12.381  0.00  0.00    +0.000 A 
ATOM     31  F   UNL     1       7.618   3.263  11.300  0.00  0.00    +0.000 F 
ATOM     32  C   UNL     1       5.699   3.344  12.667  0.00  0.00    +0.000 A 
ATOM     33  C   UNL     1       5.039   3.872  13.779  0.00  0.00    +0.000 A 
ENDBRANCH  26  27
ENDBRANCH  22  25
ENDBRANCH   1  23
TORSDOF 6
ENDMDL
MODEL 6
REMARK VINA RESULT:      -7.8      2.416      2.764
REMARK  Name = 
REMARK  6 active torsions:
REMARK  status: ('A' for Active; 'I' for Inactive)
REMARK    1  A    between atoms: C_2  and  C_3
REMARK    2  A    between atoms: C_4  and  C_5
REMARK    3  A    between atoms: N_12  and  C_13
REMARK    4  A    between atoms: C_16  and  C_17
REMARK    5  A    between atoms: C_22  and  N_23
REMARK    6  A    between atoms: N_28  and  O_29
REMARK                            x       y       z     vdW  Elec       q    Type
REMARK                         _______ _______ _______ _____ _____    ______ ____
ROOT
ATOM      1  C   UNL     1       0.345   9.074  21.437  0.00  0.00    +0.000 A 
ATOM      2  C   UNL     1       0.082   9.145  22.808  0.00  0.00    +0.000 A 
ATOM      3  C   UNL     1      -0.646  10.223  23.358  0.00  0.00    +0.000 A 
ATOM      4  C   UNL     1      -1.121  11.249  22.538  0.00  0.00    +0.000 A 
ATOM      5  C   UNL     1      -0.883  11.146  21.157  0.00  0.00    +0.000 A 
ATOM      6  C   UNL     1      -0.167  10.076  20.612  0.00  0.00    +0.000 A 
ENDROOT
BRANCH   4   7
ATOM      7  C   UNL     1      -1.729  12.498  23.020  0.00  0.00    +0.000 A 
ATOM      8  N   UNL     1      -1.011  13.445  23.608  0.00  0.00    +0.000 NA
ATOM      9  C   UNL     1      -1.882  14.425  23.976  0.00  0.00    +0.000 A 
ATOM     10  C   UNL     1      -1.605  15.617  24.657  0.00  0.00    +0.000 A 
ATOM     11  C   UNL     1      -2.656  16.487  24.953  0.00  0.00    +0.000 A 
ATOM     12  C   UNL     1      -3.965  16.168  24.565  0.00  0.00    +0.000 A 
ATOM     13  C   UNL     1      -4.266  14.979  23.858  0.00  0.00    +0.000 A 
ATOM     14  C   UNL     1      -3.182  14.126  23.584  0.00  0.00    +0.000 A 
ATOM     15  N   UNL     1      -3.044  12.916  22.938  0.00  0.00    +0.000 N 
BRANCH  12  16
ATOM     16  N   UNL     1      -5.045  17.104  24.913  0.00  0.00    +0.000 N 
ATOM     17  O   UNL     1      -6.086  17.067  24.239  0.00  0.00    +0.000 OA
ATOM     18  O   UNL     1      -4.854  17.873  25.866  0.00  0.00    +0.000 OA
ENDBRANCH  12  16
BRANCH  15  19
ATOM     19  O   UNL     1      -4.066  12.289  22.229  0.00  0.00    +0.000 OA
ATOM     20  H   UNL     1      -3.526  11.810  21.575  0.00  0.00    +0.000 HD
ENDBRANCH  15  19
ENDBRANCH   4   7
BRANCH   1  23
ATOM     21  O   UNL     1       1.903   9.155  18.894  0.00  0.00    +0.000 OA
ATOM     22  C   UNL     1       1.807   8.168  19.610  0.00  0.00    +0.000 C 
ATOM     23  N   UNL     1       1.128   8.075  20.811  0.00  0.00    +0.000 N 
ATOM     24  H   UNL     1       1.147   7.180  21.280  0.00  0.00    +0.000 HD
BRANCH  22  25
ATOM     25  C   UNL     1       2.440   6.872  19.220  0.00  0.00    +0.000 C 
ATOM     26  C   UNL     1       1.825   5.707  19.484  0.00  0.00    +0.000 C 
BRANCH  26  27
ATOM     27  C   UNL     1       2.425   4.429  19.099  0.00  0.00    +0.000 A 
ATOM     28  C   UNL     1       1.697   3.498  18.346  0.00  0.00    +0.000 A 
ATOM     29  C   UNL     1       2.252   2.253  18.042  0.00  0.00    +0.000 A 
ATOM     30  C   UNL     1       3.533   1.945  18.487  0.00  0.00    +0.000 A 
ATOM     31  F   UNL     1       4.055   0.742  18.215  0.00  0.00    +0.000 F 
ATOM     32  C   UNL     1       4.277   2.866  19.215  0.00  0.00    +0.000 A 
ATOM     33  C   UNL     1       3.724   4.111  19.521  0.00  0.00    +0.000 A 
ENDBRANCH  26  27
ENDBRANCH  22  25
ENDBRANCH   1  23
TORSDOF 6
ENDMDL
MODEL 7
REMARK VINA RESULT:      -7.8      2.493      2.854
REMARK  Name = 
REMARK  6 active torsions:
REMARK  status: ('A' for Active; 'I' for Inactive)
REMARK    1  A    between atoms: C_2  and  C_3
REMARK    2  A    between atoms: C_4  and  C_5
REMARK    3  A    between atoms: N_12  and  C_13
REMARK    4  A    between atoms: C_16  and  C_17
REMARK    5  A    between atoms: C_22  and  N_23
REMARK    6  A    between atoms: N_28  and  O_29
REMARK                            x       y       z     vdW  Elec       q    Type
REMARK                         _______ _______ _______ _____ _____    ______ ____
ROOT
ATOM      1  C   UNL     1       0.662   9.484  21.643  0.00  0.00    +0.000 A 
ATOM      2  C   UNL     1       0.837  10.715  21.005  0.00  0.00    +0.000 A 
ATOM      3  C   UNL     1       0.109  11.857  21.407  0.00  0.00    +0.000 A 
ATOM      4  C   UNL     1      -0.810  11.779  22.456  0.00  0.00    +0.000 A 
ATOM      5  C   UNL     1      -0.948  10.545  23.113  0.00  0.00    +0.000 A 
ATOM      6  C   UNL     1      -0.224   9.416  22.720  0.00  0.00    +0.000 A 
ENDROOT
BRANCH   4   7
ATOM      7  C   UNL     1      -1.744  12.848  22.838  0.00  0.00    +0.000 A 
ATOM      8  N   UNL     1      -1.483  13.684  23.832  0.00  0.00    +0.000 NA
ATOM      9  C   UNL     1      -2.567  14.500  23.953  0.00  0.00    +0.000 A 
ATOM     10  C   UNL     1      -2.777  15.526  24.883  0.00  0.00    +0.000 A 
ATOM     11  C   UNL     1      -3.977  16.239  24.844  0.00  0.00    +0.000 A 
ATOM     12  C   UNL     1      -4.948  15.931  23.881  0.00  0.00    +0.000 A 
ATOM     13  C   UNL     1      -4.749  14.912  22.918  0.00  0.00    +0.000 A 
ATOM     14  C   UNL     1      -3.531  14.212  22.994  0.00  0.00    +0.000 A 
ATOM     15  N   UNL     1      -2.959  13.188  22.271  0.00  0.00    +0.000 N 
BRANCH  12  16
ATOM     16  N   UNL     1      -6.206  16.694  23.887  0.00  0.00    +0.000 N 
ATOM     17  O   UNL     1      -7.258  16.082  23.650  0.00  0.00    +0.000 OA
ATOM     18  O   UNL     1      -6.140  17.907  24.134  0.00  0.00    +0.000 OA
ENDBRANCH  12  16
BRANCH  15  19
ATOM     19  O   UNL     1      -3.494  12.670  21.094  0.00  0.00    +0.000 OA
ATOM     20  H   UNL     1      -3.422  11.721  21.299  0.00  0.00    +0.000 HD
ENDBRANCH  15  19
ENDBRANCH   4   7
BRANCH   1  23
ATOM     21  O   UNL     1       1.904   8.693  19.049  0.00  0.00    +0.000 OA
ATOM     22  C   UNL     1       1.823   7.959  20.024  0.00  0.00    +0.000 C 
ATOM     23  N   UNL     1       1.289   8.275  21.259  0.00  0.00    +0.000 N 
ATOM     24  H   UNL     1       1.298   7.548  21.962  0.00  0.00    +0.000 HD
BRANCH  22  25
ATOM     25  C   UNL     1       2.308   6.547  19.965  0.00  0.00    +0.000 C 
ATOM     26  C   UNL     1       2.143   5.817  18.849  0.00  0.00    +0.000 C 
BRANCH  26  27
ATOM     27  C   UNL     1       2.621   4.435  18.770  0.00  0.00    +0.000 A 
ATOM     28  C   UNL     1       3.793   4.049  19.434  0.00  0.00    +0.000 A 
ATOM     29  C   UNL     1       4.281   2.747  19.296  0.00  0.00    +0.000 A 
ATOM     30  C   UNL     1       3.594   1.837  18.501  0.00  0.00    +0.000 A 
ATOM     31  F   UNL     1       4.074   0.597  18.351  0.00  0.00    +0.000 F 
ATOM     32  C   UNL     1       2.418   2.199  17.854  0.00  0.00    +0.000 A 
ATOM     33  C   UNL     1       1.928   3.500  17.989  0.00  0.00    +0.000 A 
ENDBRANCH  26  27
ENDBRANCH  22  25
ENDBRANCH   1  23
TORSDOF 6
ENDMDL
MODEL 8
REMARK VINA RESULT:      -7.7      2.133      3.064
REMARK  Name = 
REMARK  6 active torsions:
REMARK  status: ('A' for Active; 'I' for Inactive)
REMARK    1  A    between atoms: C_2  and  C_3
REMARK    2  A    between atoms: C_4  and  C_5
REMARK    3  A    between atoms: N_12  and  C_13
REMARK    4  A    between atoms: C_16  and  C_17
REMARK    5  A    between atoms: C_22  and  N_23
REMARK    6  A    between atoms: N_28  and  O_29
REMARK                            x       y       z     vdW  Elec       q    Type
REMARK                         _______ _______ _______ _____ _____    ______ ____
ROOT
ATOM      1  C   UNL     1       2.396   7.358  18.605  0.00  0.00    +0.000 A 
ATOM      2  C   UNL     1       2.158   7.150  19.966  0.00  0.00    +0.000 A 
ATOM      3  C   UNL     1       1.465   8.106  20.743  0.00  0.00    +0.000 A 
ATOM      4  C   UNL     1       1.003   9.289  20.163  0.00  0.00    +0.000 A 
ATOM      5  C   UNL     1       1.216   9.469  18.786  0.00  0.00    +0.000 A 
ATOM      6  C   UNL     1       1.896   8.521  18.016  0.00  0.00    +0.000 A 
ENDROOT
BRANCH   4   7
ATOM      7  C   UNL     1       0.434  10.424  20.905  0.00  0.00    +0.000 A 
ATOM      8  N   UNL     1      -0.546  10.265  21.784  0.00  0.00    +0.000 NA
ATOM      9  C   UNL     1      -0.869  11.507  22.239  0.00  0.00    +0.000 A 
ATOM     10  C   UNL     1      -1.866  11.859  23.157  0.00  0.00    +0.000 A 
ATOM     11  C   UNL     1      -2.043  13.206  23.480  0.00  0.00    +0.000 A 
ATOM     12  C   UNL     1      -1.228  14.184  22.893  0.00  0.00    +0.000 A 
ATOM     13  C   UNL     1      -0.201  13.850  21.978  0.00  0.00    +0.000 A 
ATOM     14  C   UNL     1      -0.056  12.484  21.674  0.00  0.00    +0.000 A 
ATOM     15  N   UNL     1       0.791  11.759  20.865  0.00  0.00    +0.000 N 
BRANCH  12  16
ATOM     16  N   UNL     1      -1.461  15.593  23.246  0.00  0.00    +0.000 N 
ATOM     17  O   UNL     1      -2.003  15.837  24.335  0.00  0.00    +0.000 OA
ATOM     18  O   UNL     1      -1.097  16.456  22.435  0.00  0.00    +0.000 OA
ENDBRANCH  12  16
BRANCH  15  19
ATOM     19  O   UNL     1       1.895  12.298  20.208  0.00  0.00    +0.000 OA
ATOM     20  H   UNL     1       1.967  11.656  19.480  0.00  0.00    +0.000 HD
ENDBRANCH  15  19
ENDBRANCH   4   7
BRANCH   1  23
ATOM     21  O   UNL     1       4.664   5.533  19.256  0.00  0.00    +0.000 OA
ATOM     22  C   UNL     1       4.209   5.691  18.131  0.00  0.00    +0.000 C 
ATOM     23  N   UNL     1       3.144   6.495  17.771  0.00  0.00    +0.000 N 
ATOM     24  H   UNL     1       2.895   6.514  16.791  0.00  0.00    +0.000 HD
BRANCH  22  25
ATOM     25  C   UNL     1       4.815   4.998  16.954  0.00  0.00    +0.000 C 
ATOM     26  C   UNL     1       5.284   5.707  15.914  0.00  0.00    +0.000 C 
BRANCH  26  27
ATOM     27  C   UNL     1       5.891   5.045  14.757  0.00  0.00    +0.000 A 
ATOM     28  C   UNL     1       7.172   5.408  14.321  0.00  0.00    +0.000 A 
ATOM     29  C   UNL     1       7.715   4.820  13.175  0.00  0.00    +0.000 A 
ATOM     30  C   UNL     1       6.979   3.871  12.475  0.00  0.00    +0.000 A 
ATOM     31  F   UNL     1       7.491   3.326  11.364  0.00  0.00    +0.000 F 
ATOM     32  C   UNL     1       5.717   3.484  12.909  0.00  0.00    +0.000 A 
ATOM     33  C   UNL     1       5.171   4.070  14.053  0.00  0.00    +0.000 A 
ENDBRANCH  26  27
ENDBRANCH  22  25
ENDBRANCH   1  23
TORSDOF 6
ENDMDL
MODEL 9
REMARK VINA RESULT:      -7.7      2.292      3.495
REMARK  Name = 
REMARK  6 active torsions:
REMARK  status: ('A' for Active; 'I' for Inactive)
REMARK    1  A    between atoms: C_2  and  C_3
REMARK    2  A    between atoms: C_4  and  C_5
REMARK    3  A    between atoms: N_12  and  C_13
REMARK    4  A    between atoms: C_16  and  C_17
REMARK    5  A    between atoms: C_22  and  N_23
REMARK    6  A    between atoms: N_28  and  O_29
REMARK                            x       y       z     vdW  Elec       q    Type
REMARK                         _______ _______ _______ _____ _____    ______ ____
ROOT
ATOM      1  C   UNL     1       2.613   7.219  18.378  0.00  0.00    +0.000 A 
ATOM      2  C   UNL     1       2.333   6.965  19.723  0.00  0.00    +0.000 A 
ATOM      3  C   UNL     1       1.613   7.893  20.509  0.00  0.00    +0.000 A 
ATOM      4  C   UNL     1       1.164   9.094  19.954  0.00  0.00    +0.000 A 
ATOM      5  C   UNL     1       1.420   9.319  18.591  0.00  0.00    +0.000 A 
ATOM      6  C   UNL     1       2.127   8.399  17.812  0.00  0.00    +0.000 A 
ENDROOT
BRANCH   4   7
ATOM      7  C   UNL     1       0.568  10.201  20.715  0.00  0.00    +0.000 A 
ATOM      8  N   UNL     1      -0.342   9.995  21.655  0.00  0.00    +0.000 NA
ATOM      9  C   UNL     1      -0.718  11.221  22.113  0.00  0.00    +0.000 A 
ATOM     10  C   UNL     1      -1.678  11.523  23.088  0.00  0.00    +0.000 A 
ATOM     11  C   UNL     1      -1.924  12.861  23.402  0.00  0.00    +0.000 A 
ATOM     12  C   UNL     1      -1.214  13.880  22.752  0.00  0.00    +0.000 A 
ATOM     13  C   UNL     1      -0.226  13.598  21.778  0.00  0.00    +0.000 A 
ATOM     14  C   UNL     1      -0.010  12.239  21.485  0.00  0.00    +0.000 A 
ATOM     15  N   UNL     1       0.833  11.556  20.634  0.00  0.00    +0.000 N 
BRANCH  12  16
ATOM     16  N   UNL     1      -1.518  15.276  23.100  0.00  0.00    +0.000 N 
ATOM     17  O   UNL     1      -0.937  16.172  22.468  0.00  0.00    +0.000 OA
ATOM     18  O   UNL     1      -2.344  15.477  24.002  0.00  0.00    +0.000 OA
ENDBRANCH  12  16
BRANCH  15  19
ATOM     19  O   UNL     1       1.855  12.155  19.901  0.00  0.00    +0.000 OA
ATOM     20  H   UNL     1       1.865  13.025  20.338  0.00  0.00    +0.000 HD
ENDBRANCH  15  19
ENDBRANCH   4   7
BRANCH   1  23
ATOM     21  O   UNL     1       5.113   5.696  18.953  0.00  0.00    +0.000 OA
ATOM     22  C   UNL     1       4.562   5.727  17.861  0.00  0.00    +0.000 C 
ATOM     23  N   UNL     1       3.390   6.386  17.539  0.00  0.00    +0.000 N 
ATOM     24  H   UNL     1       3.069   6.311  16.584  0.00  0.00    +0.000 HD
BRANCH  22  25
ATOM     25  C   UNL     1       5.154   5.024  16.683  0.00  0.00    +0.000 C 
ATOM     26  C   UNL     1       5.266   5.652  15.500  0.00  0.00    +0.000 C 
BRANCH  26  27
ATOM     27  C   UNL     1       5.854   4.983  14.339  0.00  0.00    +0.000 A 
ATOM     28  C   UNL     1       5.130   4.009  13.637  0.00  0.00    +0.000 A 
ATOM     29  C   UNL     1       5.724   3.325  12.573  0.00  0.00    +0.000 A 
ATOM     30  C   UNL     1       7.033   3.620  12.212  0.00  0.00    +0.000 A 
ATOM     31  F   UNL     1       7.609   2.948  11.208  0.00  0.00    +0.000 F 
ATOM     32  C   UNL     1       7.756   4.599  12.884  0.00  0.00    +0.000 A 
ATOM     33  C   UNL     1       7.166   5.284  13.948  0.00  0.00    +0.000 A 
ENDBRANCH  26  27
ENDBRANCH  22  25
ENDBRANCH   1  23
TORSDOF 6
ENDMDL
