MODEL 1
REMARK VINA RESULT:      -7.4      0.000      0.000
REMARK  Name = 
REMARK  6 active torsions:
REMARK  status: ('A' for Active; 'I' for Inactive)
REMARK    1  A    between atoms: C_1  and  C_2
REMARK    2  A    between atoms: N_6  and  C_7
REMARK    3  A    between atoms: C_7  and  C_8
REMARK    4  A    between atoms: C_10  and  C_11
REMARK    5  A    between atoms: N_18  and  C_19
REMARK    6  A    between atoms: C_19  and  C_20
REMARK                            x       y       z     vdW  Elec       q    Type
REMARK                         _______ _______ _______ _____ _____    ______ ____
ROOT
ATOM      1  C   UNL     1       2.699   5.082  18.440  0.00  0.00    +0.000 A 
ATOM      2  N   UNL     1       1.875   6.060  18.771  0.00  0.00    +0.000 NA
ATOM      3  C   UNL     1       2.595   7.200  18.532  0.00  0.00    +0.000 A 
ATOM      4  N   UNL     1       3.819   6.985  18.039  0.00  0.00    +0.000 NA
ATOM      5  N   UNL     1       3.876   5.637  18.002  0.00  0.00    +0.000 N 
ENDROOT
BRANCH   3   6
ATOM      6  C   UNL     1       2.095   8.564  18.889  0.00  0.00    +0.000 C 
ATOM      7  C   UNL     1       1.380   8.541  20.248  0.00  0.00    +0.000 C 
ATOM      8  C   UNL     1       0.772   9.897  20.567  0.00  0.00    +0.000 C 
ATOM      9  O   UNL     1      -0.105  10.314  19.522  0.00  0.00    +0.000 OA
ATOM     10  C   UNL     1       0.579  10.479  18.282  0.00  0.00    +0.000 C 
ATOM     11  C   UNL     1       1.179   9.159  17.812  0.00  0.00    +0.000 C 
ENDBRANCH   3   6
BRANCH   1  12
ATOM     12  C   UNL     1       2.387   3.625  18.481  0.00  0.00    +0.000 C 
BRANCH  12  18
ATOM     13  C   UNL     1       4.629   2.324  20.211  0.00  0.00    +0.000 C 
ATOM     14  C   UNL     1       3.223   2.547  20.634  0.00  0.00    +0.000 A 
ATOM     15  N   UNL     1       2.735   2.262  21.824  0.00  0.00    +0.000 NA
ATOM     16  C   UNL     1       1.438   2.691  21.823  0.00  0.00    +0.000 A 
ATOM     17  C   UNL     1       1.112   3.227  20.603  0.00  0.00    +0.000 A 
ATOM     18  N   UNL     1       2.246   3.103  19.835  0.00  0.00    +0.000 N 
ENDBRANCH  12  18
ENDBRANCH   1  12
BRANCH   5  19
ATOM     19  C   UNL     1       5.127   4.993  17.654  0.00  0.00    +0.000 C 
BRANCH  19  20
ATOM     20  C   UNL     1       5.541   5.226  16.203  0.00  0.00    +0.000 C 
ATOM     21  C   UNL     1       7.072   5.358  16.111  0.00  0.00    +0.000 C 
ATOM     22  O   UNL     1       7.479   5.560  14.750  0.00  0.00    +0.000 OA
ATOM     23  C   UNL     1       7.037   4.471  13.928  0.00  0.00    +0.000 C 
ATOM     24  C   UNL     1       5.521   4.308  14.028  0.00  0.00    +0.000 C 
ATOM     25  O   UNL     1       5.128   4.102  15.396  0.00  0.00    +0.000 OA
ENDBRANCH  19  20
ENDBRANCH   5  19
TORSDOF 5
ENDMDL
MODEL 2
REMARK VINA RESULT:      -7.3      1.300      1.781
REMARK  Name = 
REMARK  6 active torsions:
REMARK  status: ('A' for Active; 'I' for Inactive)
REMARK    1  A    between atoms: C_1  and  C_2
REMARK    2  A    between atoms: N_6  and  C_7
REMARK    3  A    between atoms: C_7  and  C_8
REMARK    4  A    between atoms: C_10  and  C_11
REMARK    5  A    between atoms: N_18  and  C_19
REMARK    6  A    between atoms: C_19  and  C_20
REMARK                            x       y       z     vdW  Elec       q    Type
REMARK                         _______ _______ _______ _____ _____    ______ ____
ROOT
ATOM      1  C   UNL     1       2.658   4.767  18.256  0.00  0.00    +0.000 A 
ATOM      2  N   UNL     1       2.009   5.758  18.841  0.00  0.00    +0.000 NA
ATOM      3  C   UNL     1       2.606   6.888  18.348  0.00  0.00    +0.000 A 
ATOM      4  N   UNL     1       3.577   6.654  17.459  0.00  0.00    +0.000 NA
ATOM      5  N   UNL     1       3.609   5.305  17.424  0.00  0.00    +0.000 N 
ENDROOT
BRANCH   3   6
ATOM      6  C   UNL     1       2.272   8.261  18.839  0.00  0.00    +0.000 C 
ATOM      7  C   UNL     1       1.515   8.191  20.173  0.00  0.00    +0.000 C 
ATOM      8  C   UNL     1       1.075   9.574  20.623  0.00  0.00    +0.000 C 
ATOM      9  O   UNL     1       0.293  10.208  19.611  0.00  0.00    +0.000 OA
ATOM     10  C   UNL     1       1.034  10.409  18.410  0.00  0.00    +0.000 C 
ATOM     11  C   UNL     1       1.476   9.079  17.813  0.00  0.00    +0.000 C 
ENDBRANCH   3   6
BRANCH   1  12
ATOM     12  C   UNL     1       2.371   3.315  18.424  0.00  0.00    +0.000 C 
BRANCH  12  18
ATOM     13  C   UNL     1       4.675   2.308  20.265  0.00  0.00    +0.000 C 
ATOM     14  C   UNL     1       3.256   2.484  20.665  0.00  0.00    +0.000 A 
ATOM     15  N   UNL     1       2.778   2.278  21.875  0.00  0.00    +0.000 NA
ATOM     16  C   UNL     1       1.459   2.628  21.835  0.00  0.00    +0.000 A 
ATOM     17  C   UNL     1       1.109   3.033  20.572  0.00  0.00    +0.000 A 
ATOM     18  N   UNL     1       2.252   2.908  19.818  0.00  0.00    +0.000 N 
ENDBRANCH  12  18
ENDBRANCH   1  12
BRANCH   5  19
ATOM     19  C   UNL     1       4.654   4.644  16.668  0.00  0.00    +0.000 C 
BRANCH  19  20
ATOM     20  C   UNL     1       6.061   5.054  17.099  0.00  0.00    +0.000 C 
ATOM     21  C   UNL     1       6.454   6.374  16.412  0.00  0.00    +0.000 C 
ATOM     22  O   UNL     1       7.768   6.782  16.820  0.00  0.00    +0.000 OA
ATOM     23  C   UNL     1       7.822   6.943  18.244  0.00  0.00    +0.000 C 
ATOM     24  C   UNL     1       7.408   5.649  18.943  0.00  0.00    +0.000 C 
ATOM     25  O   UNL     1       6.089   5.253  18.528  0.00  0.00    +0.000 OA
ENDBRANCH  19  20
ENDBRANCH   5  19
TORSDOF 5
ENDMDL
MODEL 3
REMARK VINA RESULT:      -7.3      2.419      4.840
REMARK  Name = 
REMARK  6 active torsions:
REMARK  status: ('A' for Active; 'I' for Inactive)
REMARK    1  A    between atoms: C_1  and  C_2
REMARK    2  A    between atoms: N_6  and  C_7
REMARK    3  A    between atoms: C_7  and  C_8
REMARK    4  A    between atoms: C_10  and  C_11
REMARK    5  A    between atoms: N_18  and  C_19
REMARK    6  A    between atoms: C_19  and  C_20
REMARK                            x       y       z     vdW  Elec       q    Type
REMARK                         _______ _______ _______ _____ _____    ______ ____
ROOT
ATOM      1  C   UNL     1       3.854   6.487  17.356  0.00  0.00    +0.000 A 
ATOM      2  N   UNL     1       3.629   7.646  17.950  0.00  0.00    +0.000 NA
ATOM      3  C   UNL     1       2.618   7.379  18.835  0.00  0.00    +0.000 A 
ATOM      4  N   UNL     1       2.219   6.102  18.846  0.00  0.00    +0.000 NA
ATOM      5  N   UNL     1       3.000   5.554  17.892  0.00  0.00    +0.000 N 
ENDROOT
BRANCH   3   6
ATOM      6  C   UNL     1       1.947   8.443  19.643  0.00  0.00    +0.000 C 
ATOM      7  C   UNL     1       1.219   7.832  20.849  0.00  0.00    +0.000 C 
ATOM      8  C   UNL     1       0.443   8.892  21.613  0.00  0.00    +0.000 C 
ATOM      9  O   UNL     1      -0.463   9.575  20.746  0.00  0.00    +0.000 OA
ATOM     10  C   UNL     1       0.215  10.269  19.702  0.00  0.00    +0.000 C 
ATOM     11  C   UNL     1       0.981   9.298  18.811  0.00  0.00    +0.000 C 
ENDBRANCH   3   6
BRANCH   1  12
ATOM     12  C   UNL     1       4.893   6.222  16.323  0.00  0.00    +0.000 C 
BRANCH  12  18
ATOM     13  C   UNL     1       6.777   4.328  14.718  0.00  0.00    +0.000 C 
ATOM     14  C   UNL     1       6.920   4.687  16.152  0.00  0.00    +0.000 A 
ATOM     15  N   UNL     1       7.896   4.286  16.939  0.00  0.00    +0.000 NA
ATOM     16  C   UNL     1       7.700   4.899  18.143  0.00  0.00    +0.000 A 
ATOM     17  C   UNL     1       6.568   5.674  18.106  0.00  0.00    +0.000 A 
ATOM     18  N   UNL     1       6.054   5.510  16.841  0.00  0.00    +0.000 N 
ENDBRANCH  12  18
ENDBRANCH   1  12
BRANCH   5  19
ATOM     19  C   UNL     1       2.766   4.180  17.492  0.00  0.00    +0.000 C 
BRANCH  19  20
ATOM     20  C   UNL     1       2.643   3.221  18.674  0.00  0.00    +0.000 C 
ATOM     21  C   UNL     1       3.870   3.363  19.592  0.00  0.00    +0.000 C 
ATOM     22  O   UNL     1       3.761   2.480  20.718  0.00  0.00    +0.000 OA
ATOM     23  C   UNL     1       2.566   2.761  21.460  0.00  0.00    +0.000 C 
ATOM     24  C   UNL     1       1.339   2.651  20.558  0.00  0.00    +0.000 C 
ATOM     25  O   UNL     1       1.459   3.543  19.436  0.00  0.00    +0.000 OA
ENDBRANCH  19  20
ENDBRANCH   5  19
TORSDOF 5
ENDMDL
MODEL 4
REMARK VINA RESULT:      -7.2      2.736      6.837
REMARK  Name = 
REMARK  6 active torsions:
REMARK  status: ('A' for Active; 'I' for Inactive)
REMARK    1  A    between atoms: C_1  and  C_2
REMARK    2  A    between atoms: N_6  and  C_7
REMARK    3  A    between atoms: C_7  and  C_8
REMARK    4  A    between atoms: C_10  and  C_11
REMARK    5  A    between atoms: N_18  and  C_19
REMARK    6  A    between atoms: C_19  and  C_20
REMARK                            x       y       z     vdW  Elec       q    Type
REMARK                         _______ _______ _______ _____ _____    ______ ____
ROOT
ATOM      1  C   UNL     1       3.838   6.408  17.424  0.00  0.00    +0.000 A 
ATOM      2  N   UNL     1       3.819   5.146  17.815  0.00  0.00    +0.000 NA
ATOM      3  C   UNL     1       2.828   5.103  18.759  0.00  0.00    +0.000 A 
ATOM      4  N   UNL     1       2.205   6.269  18.957  0.00  0.00    +0.000 NA
ATOM      5  N   UNL     1       2.868   7.090  18.115  0.00  0.00    +0.000 N 
ENDROOT
BRANCH   3   6
ATOM      6  C   UNL     1       2.538   3.882  19.573  0.00  0.00    +0.000 C 
ATOM      7  C   UNL     1       1.585   4.215  20.730  0.00  0.00    +0.000 C 
ATOM      8  C   UNL     1       1.373   3.006  21.627  0.00  0.00    +0.000 C 
ATOM      9  O   UNL     1       2.622   2.509  22.105  0.00  0.00    +0.000 OA
ATOM     10  C   UNL     1       3.462   2.061  21.044  0.00  0.00    +0.000 C 
ATOM     11  C   UNL     1       3.810   3.209  20.104  0.00  0.00    +0.000 C 
ENDBRANCH   3   6
BRANCH   1  12
ATOM     12  C   UNL     1       4.723   6.983  16.372  0.00  0.00    +0.000 C 
BRANCH  12  18
ATOM     13  C   UNL     1       7.478   6.533  17.756  0.00  0.00    +0.000 C 
ATOM     14  C   UNL     1       6.989   5.830  16.543  0.00  0.00    +0.000 A 
ATOM     15  N   UNL     1       7.640   4.880  15.903  0.00  0.00    +0.000 NA
ATOM     16  C   UNL     1       6.815   4.453  14.902  0.00  0.00    +0.000 A 
ATOM     17  C   UNL     1       5.645   5.168  14.909  0.00  0.00    +0.000 A 
ATOM     18  N   UNL     1       5.773   6.070  15.938  0.00  0.00    +0.000 N 
ENDBRANCH  12  18
ENDBRANCH   1  12
BRANCH   5  19
ATOM     19  C   UNL     1       2.579   8.510  18.142  0.00  0.00    +0.000 C 
BRANCH  19  20
ATOM     20  C   UNL     1       1.171   8.829  18.639  0.00  0.00    +0.000 C 
ATOM     21  C   UNL     1       1.229   9.326  20.094  0.00  0.00    +0.000 C 
ATOM     22  O   UNL     1      -0.086   9.646  20.570  0.00  0.00    +0.000 OA
ATOM     23  C   UNL     1      -0.687  10.650  19.741  0.00  0.00    +0.000 C 
ATOM     24  C   UNL     1      -0.730  10.184  18.287  0.00  0.00    +0.000 C 
ATOM     25  O   UNL     1       0.594   9.870  17.821  0.00  0.00    +0.000 OA
ENDBRANCH  19  20
ENDBRANCH   5  19
TORSDOF 5
ENDMDL
MODEL 5
REMARK VINA RESULT:      -7.2      2.368      4.781
REMARK  Name = 
REMARK  6 active torsions:
REMARK  status: ('A' for Active; 'I' for Inactive)
REMARK    1  A    between atoms: C_1  and  C_2
REMARK    2  A    between atoms: N_6  and  C_7
REMARK    3  A    between atoms: C_7  and  C_8
REMARK    4  A    between atoms: C_10  and  C_11
REMARK    5  A    between atoms: N_18  and  C_19
REMARK    6  A    between atoms: C_19  and  C_20
REMARK                            x       y       z     vdW  Elec       q    Type
REMARK                         _______ _______ _______ _____ _____    ______ ____
ROOT
ATOM      1  C   UNL     1       4.037   6.652  17.221  0.00  0.00    +0.000 A 
ATOM      2  N   UNL     1       3.517   7.738  17.766  0.00  0.00    +0.000 NA
ATOM      3  C   UNL     1       2.427   7.277  18.456  0.00  0.00    +0.000 A 
ATOM      4  N   UNL     1       2.257   5.953  18.396  0.00  0.00    +0.000 NA
ATOM      5  N   UNL     1       3.276   5.572  17.596  0.00  0.00    +0.000 N 
ENDROOT
BRANCH   3   6
ATOM      6  C   UNL     1       1.453   8.189  19.132  0.00  0.00    +0.000 C 
ATOM      7  C   UNL     1       1.568   9.615  18.575  0.00  0.00    +0.000 C 
ATOM      8  C   UNL     1       0.661  10.571  19.333  0.00  0.00    +0.000 C 
ATOM      9  O   UNL     1       0.943  10.531  20.731  0.00  0.00    +0.000 OA
ATOM     10  C   UNL     1       0.700   9.243  21.290  0.00  0.00    +0.000 C 
ATOM     11  C   UNL     1       1.610   8.196  20.658  0.00  0.00    +0.000 C 
ENDBRANCH   3   6
BRANCH   1  12
ATOM     12  C   UNL     1       5.272   6.597  16.389  0.00  0.00    +0.000 C 
BRANCH  12  18
ATOM     13  C   UNL     1       6.776   4.281  14.944  0.00  0.00    +0.000 C 
ATOM     14  C   UNL     1       7.015   4.738  16.337  0.00  0.00    +0.000 A 
ATOM     15  N   UNL     1       7.933   4.252  17.147  0.00  0.00    +0.000 NA
ATOM     16  C   UNL     1       7.871   4.995  18.292  0.00  0.00    +0.000 A 
ATOM     17  C   UNL     1       6.881   5.940  18.196  0.00  0.00    +0.000 A 
ATOM     18  N   UNL     1       6.314   5.751  16.958  0.00  0.00    +0.000 N 
ENDBRANCH  12  18
ENDBRANCH   1  12
BRANCH   5  19
ATOM     19  C   UNL     1       3.353   4.192  17.161  0.00  0.00    +0.000 C 
BRANCH  19  20
ATOM     20  C   UNL     1       3.226   3.191  18.307  0.00  0.00    +0.000 C 
ATOM     21  C   UNL     1       4.306   3.471  19.367  0.00  0.00    +0.000 C 
ATOM     22  O   UNL     1       4.190   2.549  20.460  0.00  0.00    +0.000 OA
ATOM     23  C   UNL     1       2.889   2.643  21.058  0.00  0.00    +0.000 C 
ATOM     24  C   UNL     1       1.803   2.393  20.013  0.00  0.00    +0.000 C 
ATOM     25  O   UNL     1       1.929   3.326  18.926  0.00  0.00    +0.000 OA
ENDBRANCH  19  20
ENDBRANCH   5  19
TORSDOF 5
ENDMDL
MODEL 6
REMARK VINA RESULT:      -7.2      2.523      4.993
REMARK  Name = 
REMARK  6 active torsions:
REMARK  status: ('A' for Active; 'I' for Inactive)
REMARK    1  A    between atoms: C_1  and  C_2
REMARK    2  A    between atoms: N_6  and  C_7
REMARK    3  A    between atoms: C_7  and  C_8
REMARK    4  A    between atoms: C_10  and  C_11
REMARK    5  A    between atoms: N_18  and  C_19
REMARK    6  A    between atoms: C_19  and  C_20
REMARK                            x       y       z     vdW  Elec       q    Type
REMARK                         _______ _______ _______ _____ _____    ______ ____
ROOT
ATOM      1  C   UNL     1       3.872   6.999  17.159  0.00  0.00    +0.000 A 
ATOM      2  N   UNL     1       3.461   8.235  17.380  0.00  0.00    +0.000 NA
ATOM      3  C   UNL     1       2.477   8.098  18.323  0.00  0.00    +0.000 A 
ATOM      4  N   UNL     1       2.272   6.840  18.726  0.00  0.00    +0.000 NA
ATOM      5  N   UNL     1       3.152   6.153  17.967  0.00  0.00    +0.000 N 
ENDROOT
BRANCH   3   6
ATOM      6  C   UNL     1       1.633   9.243  18.785  0.00  0.00    +0.000 C 
ATOM      7  C   UNL     1       1.120   8.998  20.211  0.00  0.00    +0.000 C 
ATOM      8  C   UNL     1       0.172  10.104  20.647  0.00  0.00    +0.000 C 
ATOM      9  O   UNL     1      -0.904  10.239  19.720  0.00  0.00    +0.000 OA
ATOM     10  C   UNL     1      -0.449  10.609  18.421  0.00  0.00    +0.000 C 
ATOM     11  C   UNL     1       0.463   9.536  17.837  0.00  0.00    +0.000 C 
ENDBRANCH   3   6
BRANCH   1  12
ATOM     12  C   UNL     1       4.967   6.594  16.233  0.00  0.00    +0.000 C 
BRANCH  12  18
ATOM     13  C   UNL     1       6.503   4.104  15.161  0.00  0.00    +0.000 C 
ATOM     14  C   UNL     1       6.772   4.808  16.441  0.00  0.00    +0.000 A 
ATOM     15  N   UNL     1       7.733   4.500  17.287  0.00  0.00    +0.000 NA
ATOM     16  C   UNL     1       7.683   5.431  18.285  0.00  0.00    +0.000 A 
ATOM     17  C   UNL     1       6.658   6.315  18.063  0.00  0.00    +0.000 A 
ATOM     18  N   UNL     1       6.057   5.894  16.901  0.00  0.00    +0.000 N 
ENDBRANCH  12  18
ENDBRANCH   1  12
BRANCH   5  19
ATOM     19  C   UNL     1       3.136   4.704  18.004  0.00  0.00    +0.000 C 
BRANCH  19  20
ATOM     20  C   UNL     1       2.301   4.141  19.152  0.00  0.00    +0.000 C 
ATOM     21  C   UNL     1       2.172   2.615  19.005  0.00  0.00    +0.000 C 
ATOM     22  O   UNL     1       1.405   2.068  20.087  0.00  0.00    +0.000 OA
ATOM     23  C   UNL     1       2.018   2.382  21.345  0.00  0.00    +0.000 C 
ATOM     24  C   UNL     1       2.178   3.894  21.497  0.00  0.00    +0.000 C 
ATOM     25  O   UNL     1       2.952   4.428  20.409  0.00  0.00    +0.000 OA
ENDBRANCH  19  20
ENDBRANCH   5  19
TORSDOF 5
ENDMDL
MODEL 7
REMARK VINA RESULT:      -7.2      1.360      2.193
REMARK  Name = 
REMARK  6 active torsions:
REMARK  status: ('A' for Active; 'I' for Inactive)
REMARK    1  A    between atoms: C_1  and  C_2
REMARK    2  A    between atoms: N_6  and  C_7
REMARK    3  A    between atoms: C_7  and  C_8
REMARK    4  A    between atoms: C_10  and  C_11
REMARK    5  A    between atoms: N_18  and  C_19
REMARK    6  A    between atoms: C_19  and  C_20
REMARK                            x       y       z     vdW  Elec       q    Type
REMARK                         _______ _______ _______ _____ _____    ______ ____
ROOT
ATOM      1  C   UNL     1       2.635   4.839  18.377  0.00  0.00    +0.000 A 
ATOM      2  N   UNL     1       1.989   5.812  18.994  0.00  0.00    +0.000 NA
ATOM      3  C   UNL     1       2.528   6.957  18.472  0.00  0.00    +0.000 A 
ATOM      4  N   UNL     1       3.460   6.749  17.536  0.00  0.00    +0.000 NA
ATOM      5  N   UNL     1       3.529   5.402  17.499  0.00  0.00    +0.000 N 
ENDROOT
BRANCH   3   6
ATOM      6  C   UNL     1       2.180   8.321  18.979  0.00  0.00    +0.000 C 
ATOM      7  C   UNL     1       1.393   8.227  20.293  0.00  0.00    +0.000 C 
ATOM      8  C   UNL     1       0.940   9.601  20.758  0.00  0.00    +0.000 C 
ATOM      9  O   UNL     1       0.181  10.251  19.739  0.00  0.00    +0.000 OA
ATOM     10  C   UNL     1       0.948  10.474  18.559  0.00  0.00    +0.000 C 
ATOM     11  C   UNL     1       1.406   9.155  17.949  0.00  0.00    +0.000 C 
ENDBRANCH   3   6
BRANCH   1  12
ATOM     12  C   UNL     1       2.399   3.379  18.560  0.00  0.00    +0.000 C 
BRANCH  12  18
ATOM     13  C   UNL     1       1.412   2.889  21.475  0.00  0.00    +0.000 C 
ATOM     14  C   UNL     1       2.756   2.549  20.942  0.00  0.00    +0.000 A 
ATOM     15  N   UNL     1       3.710   1.948  21.622  0.00  0.00    +0.000 NA
ATOM     16  C   UNL     1       4.743   1.753  20.750  0.00  0.00    +0.000 A 
ATOM     17  C   UNL     1       4.430   2.265  19.517  0.00  0.00    +0.000 A 
ATOM     18  N   UNL     1       3.172   2.802  19.652  0.00  0.00    +0.000 N 
ENDBRANCH  12  18
ENDBRANCH   1  12
BRANCH   5  19
ATOM     19  C   UNL     1       4.553   4.769  16.692  0.00  0.00    +0.000 C 
BRANCH  19  20
ATOM     20  C   UNL     1       5.971   5.102  17.150  0.00  0.00    +0.000 C 
ATOM     21  C   UNL     1       6.468   6.371  16.435  0.00  0.00    +0.000 C 
ATOM     22  O   UNL     1       7.794   6.707  16.868  0.00  0.00    +0.000 OA
ATOM     23  C   UNL     1       7.821   6.909  18.287  0.00  0.00    +0.000 C 
ATOM     24  C   UNL     1       7.306   5.667  19.013  0.00  0.00    +0.000 C 
ATOM     25  O   UNL     1       5.975   5.345  18.573  0.00  0.00    +0.000 OA
ENDBRANCH  19  20
ENDBRANCH   5  19
TORSDOF 5
ENDMDL
MODEL 8
REMARK VINA RESULT:      -7.1      0.671      1.351
REMARK  Name = 
REMARK  6 active torsions:
REMARK  status: ('A' for Active; 'I' for Inactive)
REMARK    1  A    between atoms: C_1  and  C_2
REMARK    2  A    between atoms: N_6  and  C_7
REMARK    3  A    between atoms: C_7  and  C_8
REMARK    4  A    between atoms: C_10  and  C_11
REMARK    5  A    between atoms: N_18  and  C_19
REMARK    6  A    between atoms: C_19  and  C_20
REMARK                            x       y       z     vdW  Elec       q    Type
REMARK                         _______ _______ _______ _____ _____    ______ ____
ROOT
ATOM      1  C   UNL     1       2.818   5.578  18.109  0.00  0.00    +0.000 A 
ATOM      2  N   UNL     1       1.850   6.429  18.401  0.00  0.00    +0.000 NA
ATOM      3  C   UNL     1       2.452   7.657  18.332  0.00  0.00    +0.000 A 
ATOM      4  N   UNL     1       3.742   7.619  17.982  0.00  0.00    +0.000 NA
ATOM      5  N   UNL     1       3.964   6.294  17.861  0.00  0.00    +0.000 N 
ENDROOT
BRANCH   3   6
ATOM      6  C   UNL     1       1.755   8.924  18.717  0.00  0.00    +0.000 C 
ATOM      7  C   UNL     1       1.263   8.852  20.169  0.00  0.00    +0.000 C 
ATOM      8  C   UNL     1       0.456  10.088  20.533  0.00  0.00    +0.000 C 
ATOM      9  O   UNL     1      -0.627  10.269  19.622  0.00  0.00    +0.000 OA
ATOM     10  C   UNL     1      -0.175  10.481  18.287  0.00  0.00    +0.000 C 
ATOM     11  C   UNL     1       0.594   9.269  17.774  0.00  0.00    +0.000 C 
ENDBRANCH   3   6
BRANCH   1  12
ATOM     12  C   UNL     1       2.680   4.098  18.011  0.00  0.00    +0.000 C 
BRANCH  12  18
ATOM     13  C   UNL     1       1.039   3.614  20.615  0.00  0.00    +0.000 C 
ATOM     14  C   UNL     1       2.424   3.143  20.360  0.00  0.00    +0.000 A 
ATOM     15  N   UNL     1       3.142   2.412  21.188  0.00  0.00    +0.000 NA
ATOM     16  C   UNL     1       4.313   2.134  20.544  0.00  0.00    +0.000 A 
ATOM     17  C   UNL     1       4.330   2.724  19.306  0.00  0.00    +0.000 A 
ATOM     18  N   UNL     1       3.134   3.395  19.204  0.00  0.00    +0.000 N 
ENDBRANCH  12  18
ENDBRANCH   1  12
BRANCH   5  19
ATOM     19  C   UNL     1       5.315   5.823  17.629  0.00  0.00    +0.000 C 
BRANCH  19  20
ATOM     20  C   UNL     1       5.659   5.685  16.147  0.00  0.00    +0.000 C 
ATOM     21  C   UNL     1       7.184   5.589  15.972  0.00  0.00    +0.000 C 
ATOM     22  O   UNL     1       7.523   5.441  14.585  0.00  0.00    +0.000 OA
ATOM     23  C   UNL     1       6.899   4.271  14.039  0.00  0.00    +0.000 C 
ATOM     24  C   UNL     1       5.384   4.338  14.228  0.00  0.00    +0.000 C 
ATOM     25  O   UNL     1       5.058   4.481  15.622  0.00  0.00    +0.000 OA
ENDBRANCH  19  20
ENDBRANCH   5  19
TORSDOF 5
ENDMDL
MODEL 9
REMARK VINA RESULT:      -7.1      1.969      2.505
REMARK  Name = 
REMARK  6 active torsions:
REMARK  status: ('A' for Active; 'I' for Inactive)
REMARK    1  A    between atoms: C_1  and  C_2
REMARK    2  A    between atoms: N_6  and  C_7
REMARK    3  A    between atoms: C_7  and  C_8
REMARK    4  A    between atoms: C_10  and  C_11
REMARK    5  A    between atoms: N_18  and  C_19
REMARK    6  A    between atoms: C_19  and  C_20
REMARK                            x       y       z     vdW  Elec       q    Type
REMARK                         _______ _______ _______ _____ _____    ______ ____
ROOT
ATOM      1  C   UNL     1       2.235   6.113  20.181  0.00  0.00    +0.000 A 
ATOM      2  N   UNL     1       1.526   7.118  20.665  0.00  0.00    +0.000 NA
ATOM      3  C   UNL     1       1.624   8.090  19.706  0.00  0.00    +0.000 A 
ATOM      4  N   UNL     1       2.333   7.733  18.630  0.00  0.00    +0.000 NA
ATOM      5  N   UNL     1       2.728   6.484  18.954  0.00  0.00    +0.000 N 
ENDROOT
BRANCH   3   6
ATOM      6  C   UNL     1       1.072   9.468  19.891  0.00  0.00    +0.000 C 
ATOM      7  C   UNL     1       0.083   9.504  21.064  0.00  0.00    +0.000 C 
ATOM      8  C   UNL     1      -0.566  10.872  21.190  0.00  0.00    +0.000 C 
ATOM      9  O   UNL     1      -1.196  11.245  19.964  0.00  0.00    +0.000 OA
ATOM     10  C   UNL     1      -0.261  11.356  18.894  0.00  0.00    +0.000 C 
ATOM     11  C   UNL     1       0.413  10.017  18.618  0.00  0.00    +0.000 C 
ENDBRANCH   3   6
BRANCH   1  12
ATOM     12  C   UNL     1       2.423   4.784  20.827  0.00  0.00    +0.000 C 
BRANCH  12  18
ATOM     13  C   UNL     1       4.133   2.273  20.132  0.00  0.00    +0.000 C 
ATOM     14  C   UNL     1       2.743   2.534  19.675  0.00  0.00    +0.000 A 
ATOM     15  N   UNL     1       2.020   1.713  18.942  0.00  0.00    +0.000 NA
ATOM     16  C   UNL     1       0.790   2.290  18.814  0.00  0.00    +0.000 A 
ATOM     17  C   UNL     1       0.760   3.501  19.458  0.00  0.00    +0.000 A 
ATOM     18  N   UNL     1       2.021   3.669  19.980  0.00  0.00    +0.000 N 
ENDBRANCH  12  18
ENDBRANCH   1  12
BRANCH   5  19
ATOM     19  C   UNL     1       3.661   5.792  18.087  0.00  0.00    +0.000 C 
BRANCH  19  20
ATOM     20  C   UNL     1       5.121   6.135  18.378  0.00  0.00    +0.000 C 
ATOM     21  C   UNL     1       5.695   5.144  19.407  0.00  0.00    +0.000 C 
ATOM     22  O   UNL     1       7.072   5.442  19.678  0.00  0.00    +0.000 OA
ATOM     23  C   UNL     1       7.844   5.387  18.470  0.00  0.00    +0.000 C 
ATOM     24  C   UNL     1       7.272   6.346  17.428  0.00  0.00    +0.000 C 
ATOM     25  O   UNL     1       5.893   6.033  17.162  0.00  0.00    +0.000 OA
ENDBRANCH  19  20
ENDBRANCH   5  19
TORSDOF 5
ENDMDL
