MODEL 1
REMARK VINA RESULT:      -8.8      0.000      0.000
REMARK  Name = 
REMARK  5 active torsions:
REMARK  status: ('A' for Active; 'I' for Inactive)
REMARK    1  A    between atoms: C_1  and  N_2
REMARK    2  A    between atoms: C_3  and  C_5
REMARK    3  A    between atoms: C_7  and  O_8
REMARK    4  A    between atoms: O_8  and  C_9
REMARK    5  A    between atoms: N_18  and  C_19
REMARK                            x       y       z     vdW  Elec       q    Type
REMARK                         _______ _______ _______ _____ _____    ______ ____
ROOT
ATOM      1  C   UNL     1      -1.628  12.528  21.534  0.00  0.00    +0.000 A 
ATOM      2  C   UNL     1      -1.528  12.075  22.852  0.00  0.00    +0.000 A 
ATOM      3  C   UNL     1      -0.808  10.909  23.161  0.00  0.00    +0.000 A 
ATOM      4  C   UNL     1      -0.239  10.137  22.130  0.00  0.00    +0.000 A 
ATOM      5  N   UNL     1       0.506   8.964  22.269  0.00  0.00    +0.000 NA
ATOM      6  C   UNL     1       0.883   8.537  21.083  0.00  0.00    +0.000 A 
ATOM      7  N   UNL     1       1.690   7.419  20.904  0.00  0.00    +0.000 N 
ATOM      8  C   UNL     1       2.318   7.133  19.709  0.00  0.00    +0.000 C 
ATOM      9  O   UNL     1       2.217   7.816  18.697  0.00  0.00    +0.000 OA
ATOM     10  N   UNL     1       3.090   5.971  19.736  0.00  0.00    +0.000 N 
ATOM     11  S   UNL     1       0.266   9.428  19.761  0.00  0.00    +0.000 S 
ATOM     12  C   UNL     1      -0.432  10.571  20.816  0.00  0.00    +0.000 A 
ATOM     13  C   UNL     1      -1.109  11.756  20.492  0.00  0.00    +0.000 A 
ATOM     14  H   UNL     1       1.991   6.982  21.756  0.00  0.00    +0.000 HD
ATOM     15  H   UNL     1       2.829   5.266  20.405  0.00  0.00    +0.000 HD
ENDROOT
BRANCH  10  16
ATOM     16  C   UNL     1       3.881   5.565  18.622  0.00  0.00    +0.000 A 
ATOM     17  C   UNL     1       3.491   4.515  17.774  0.00  0.00    +0.000 A 
ATOM     18  C   UNL     1       4.328   4.045  16.760  0.00  0.00    +0.000 A 
ATOM     19  C   UNL     1       5.559   4.651  16.544  0.00  0.00    +0.000 A 
ATOM     20 CL   UNL     1       6.554   4.008  15.286  0.00  0.00    +0.000 Cl
ATOM     21  C   UNL     1       5.938   5.741  17.337  0.00  0.00    +0.000 A 
ATOM     22 CL   UNL     1       7.449   6.550  17.107  0.00  0.00    +0.000 Cl
ATOM     23  C   UNL     1       5.096   6.202  18.367  0.00  0.00    +0.000 A 
ENDBRANCH  10  16
BRANCH   1  24
ATOM     24  O   UNL     1      -2.272  13.688  21.154  0.00  0.00    +0.000 OA
BRANCH  24  27
ATOM     25  C   UNL     1      -5.827  13.136  21.883  0.00  0.00    +0.000 A 
ATOM     26  C   UNL     1      -4.495  12.820  21.674  0.00  0.00    +0.000 A 
ATOM     27  C   UNL     1      -3.602  13.863  21.468  0.00  0.00    +0.000 A 
ATOM     28  C   UNL     1      -4.041  15.175  21.610  0.00  0.00    +0.000 A 
ATOM     29  C   UNL     1      -5.387  15.395  21.870  0.00  0.00    +0.000 A 
ATOM     30  N   UNL     1      -6.303  14.408  21.985  0.00  0.00    +0.000 NA
BRANCH  25  33
ATOM     31  C   UNL     1      -7.824  10.140  20.731  0.00  0.00    +0.000 C 
ATOM     32  N   UNL     1      -6.900  11.236  20.813  0.00  0.00    +0.000 N 
ATOM     33  C   UNL     1      -6.823  12.020  21.942  0.00  0.00    +0.000 C 
ATOM     34  O   UNL     1      -7.499  11.826  22.947  0.00  0.00    +0.000 OA
ATOM     35  H   UNL     1      -6.283  11.471  20.039  0.00  0.00    +0.000 HD
ENDBRANCH  25  33
ENDBRANCH  24  27
ENDBRANCH   1  24
TORSDOF 4
ENDMDL
MODEL 2
REMARK VINA RESULT:      -8.5      4.725     11.731
REMARK  Name = 
REMARK  5 active torsions:
REMARK  status: ('A' for Active; 'I' for Inactive)
REMARK    1  A    between atoms: C_1  and  N_2
REMARK    2  A    between atoms: C_3  and  C_5
REMARK    3  A    between atoms: C_7  and  O_8
REMARK    4  A    between atoms: O_8  and  C_9
REMARK    5  A    between atoms: N_18  and  C_19
REMARK                            x       y       z     vdW  Elec       q    Type
REMARK                         _______ _______ _______ _____ _____    ______ ____
ROOT
ATOM      1  C   UNL     1       2.935   4.626  18.614  0.00  0.00    +0.000 A 
ATOM      2  C   UNL     1       2.358   4.124  19.783  0.00  0.00    +0.000 A 
ATOM      3  C   UNL     1       1.707   4.978  20.691  0.00  0.00    +0.000 A 
ATOM      4  C   UNL     1       1.696   6.368  20.466  0.00  0.00    +0.000 A 
ATOM      5  N   UNL     1       1.093   7.344  21.262  0.00  0.00    +0.000 NA
ATOM      6  C   UNL     1       1.280   8.530  20.725  0.00  0.00    +0.000 A 
ATOM      7  N   UNL     1       0.744   9.696  21.260  0.00  0.00    +0.000 N 
ATOM      8  C   UNL     1       0.692  10.886  20.563  0.00  0.00    +0.000 C 
ATOM      9  O   UNL     1       1.120  11.036  19.425  0.00  0.00    +0.000 OA
ATOM     10  N   UNL     1       0.109  11.936  21.272  0.00  0.00    +0.000 N 
ATOM     11  S   UNL     1       2.279   8.549  19.338  0.00  0.00    +0.000 S 
ATOM     12  C   UNL     1       2.357   6.846  19.332  0.00  0.00    +0.000 A 
ATOM     13  C   UNL     1       2.973   6.004  18.393  0.00  0.00    +0.000 A 
ATOM     14  H   UNL     1       0.173   9.556  22.073  0.00  0.00    +0.000 HD
ATOM     15  H   UNL     1       0.150  11.887  22.276  0.00  0.00    +0.000 HD
ENDROOT
BRANCH  10  16
ATOM     16  C   UNL     1      -0.111  13.215  20.682  0.00  0.00    +0.000 A 
ATOM     17  C   UNL     1      -1.366  13.844  20.710  0.00  0.00    +0.000 A 
ATOM     18  C   UNL     1      -1.601  15.038  20.024  0.00  0.00    +0.000 A 
ATOM     19  C   UNL     1      -0.565  15.653  19.333  0.00  0.00    +0.000 A 
ATOM     20 CL   UNL     1      -0.929  17.117  18.491  0.00  0.00    +0.000 Cl
ATOM     21  C   UNL     1       0.710  15.075  19.347  0.00  0.00    +0.000 A 
ATOM     22 CL   UNL     1       2.046  15.801  18.521  0.00  0.00    +0.000 Cl
ATOM     23  C   UNL     1       0.938  13.864  20.028  0.00  0.00    +0.000 A 
ENDBRANCH  10  16
BRANCH   1  24
ATOM     24  O   UNL     1       3.546   3.850  17.651  0.00  0.00    +0.000 OA
BRANCH  24  27
ATOM     25  C   UNL     1       6.525   4.546  15.623  0.00  0.00    +0.000 A 
ATOM     26  C   UNL     1       5.186   4.341  15.910  0.00  0.00    +0.000 A 
ATOM     27  C   UNL     1       4.824   4.157  17.237  0.00  0.00    +0.000 A 
ATOM     28  C   UNL     1       5.780   4.317  18.234  0.00  0.00    +0.000 A 
ATOM     29  C   UNL     1       7.091   4.571  17.854  0.00  0.00    +0.000 A 
ATOM     30  N   UNL     1       7.498   4.665  16.569  0.00  0.00    +0.000 NA
BRANCH  25  33
ATOM     31  C   UNL     1       6.699   3.546  11.982  0.00  0.00    +0.000 C 
ATOM     32  N   UNL     1       6.369   3.632  13.377  0.00  0.00    +0.000 N 
ATOM     33  C   UNL     1       6.950   4.580  14.188  0.00  0.00    +0.000 C 
ATOM     34  O   UNL     1       7.750   5.419  13.783  0.00  0.00    +0.000 OA
ATOM     35  H   UNL     1       5.706   2.993  13.807  0.00  0.00    +0.000 HD
ENDBRANCH  25  33
ENDBRANCH  24  27
ENDBRANCH   1  24
TORSDOF 4
ENDMDL
MODEL 3
REMARK VINA RESULT:      -8.5      2.518      3.452
REMARK  Name = 
REMARK  5 active torsions:
REMARK  status: ('A' for Active; 'I' for Inactive)
REMARK    1  A    between atoms: C_1  and  N_2
REMARK    2  A    between atoms: C_3  and  C_5
REMARK    3  A    between atoms: C_7  and  O_8
REMARK    4  A    between atoms: O_8  and  C_9
REMARK    5  A    between atoms: N_18  and  C_19
REMARK                            x       y       z     vdW  Elec       q    Type
REMARK                         _______ _______ _______ _____ _____    ______ ____
ROOT
ATOM      1  C   UNL     1      -0.288  11.008  21.066  0.00  0.00    +0.000 A 
ATOM      2  C   UNL     1      -0.261  10.216  22.217  0.00  0.00    +0.000 A 
ATOM      3  C   UNL     1       0.445   9.000  22.239  0.00  0.00    +0.000 A 
ATOM      4  C   UNL     1       1.074   8.529  21.070  0.00  0.00    +0.000 A 
ATOM      5  N   UNL     1       1.814   7.354  20.929  0.00  0.00    +0.000 NA
ATOM      6  C   UNL     1       2.259   7.257  19.694  0.00  0.00    +0.000 A 
ATOM      7  N   UNL     1       3.078   6.220  19.265  0.00  0.00    +0.000 N 
ATOM      8  C   UNL     1       3.773   6.259  18.073  0.00  0.00    +0.000 C 
ATOM      9  O   UNL     1       3.727   7.190  17.279  0.00  0.00    +0.000 OA
ATOM     10  N   UNL     1       4.547   5.123  17.829  0.00  0.00    +0.000 N 
ATOM     11  S   UNL     1       1.714   8.478  18.630  0.00  0.00    +0.000 S 
ATOM     12  C   UNL     1       0.954   9.303  19.914  0.00  0.00    +0.000 A 
ATOM     13  C   UNL     1       0.291  10.540  19.885  0.00  0.00    +0.000 A 
ATOM     14  H   UNL     1       3.333   5.566  19.982  0.00  0.00    +0.000 HD
ATOM     15  H   UNL     1       4.252   4.268  18.267  0.00  0.00    +0.000 HD
ENDROOT
BRANCH  10  16
ATOM     16  C   UNL     1       5.400   5.023  16.691  0.00  0.00    +0.000 A 
ATOM     17  C   UNL     1       6.700   5.554  16.685  0.00  0.00    +0.000 A 
ATOM     18  C   UNL     1       7.483   5.560  15.529  0.00  0.00    +0.000 A 
ATOM     19  C   UNL     1       6.995   4.987  14.361  0.00  0.00    +0.000 A 
ATOM     20 CL   UNL     1       8.006   5.045  12.962  0.00  0.00    +0.000 Cl
ATOM     21  C   UNL     1       5.726   4.395  14.364  0.00  0.00    +0.000 A 
ATOM     22 CL   UNL     1       5.067   3.650  12.949  0.00  0.00    +0.000 Cl
ATOM     23  C   UNL     1       4.935   4.405  15.530  0.00  0.00    +0.000 A 
ENDBRANCH  10  16
BRANCH   1  24
ATOM     24  O   UNL     1      -0.914  12.234  20.979  0.00  0.00    +0.000 OA
BRANCH  24  27
ATOM     25  C   UNL     1      -3.839  12.059  18.769  0.00  0.00    +0.000 A 
ATOM     26  C   UNL     1      -2.549  11.822  19.212  0.00  0.00    +0.000 A 
ATOM     27  C   UNL     1      -2.187  12.315  20.459  0.00  0.00    +0.000 A 
ATOM     28  C   UNL     1      -3.155  12.902  21.267  0.00  0.00    +0.000 A 
ATOM     29  C   UNL     1      -4.437  13.053  20.757  0.00  0.00    +0.000 A 
ATOM     30  N   UNL     1      -4.803  12.670  19.514  0.00  0.00    +0.000 NA
BRANCH  25  33
ATOM     31  C   UNL     1      -3.335  10.870  15.216  0.00  0.00    +0.000 C 
ATOM     32  N   UNL     1      -3.138  11.252  16.586  0.00  0.00    +0.000 N 
ATOM     33  C   UNL     1      -4.190  11.679  17.364  0.00  0.00    +0.000 C 
ATOM     34  O   UNL     1      -5.349  11.736  16.962  0.00  0.00    +0.000 OA
ATOM     35  H   UNL     1      -2.219  11.225  17.019  0.00  0.00    +0.000 HD
ENDBRANCH  25  33
ENDBRANCH  24  27
ENDBRANCH   1  24
TORSDOF 4
ENDMDL
MODEL 4
REMARK VINA RESULT:      -8.5      4.943     12.050
REMARK  Name = 
REMARK  5 active torsions:
REMARK  status: ('A' for Active; 'I' for Inactive)
REMARK    1  A    between atoms: C_1  and  N_2
REMARK    2  A    between atoms: C_3  and  C_5
REMARK    3  A    between atoms: C_7  and  O_8
REMARK    4  A    between atoms: O_8  and  C_9
REMARK    5  A    between atoms: N_18  and  C_19
REMARK                            x       y       z     vdW  Elec       q    Type
REMARK                         _______ _______ _______ _____ _____    ______ ____
ROOT
ATOM      1  C   UNL     1       2.888   5.038  18.418  0.00  0.00    +0.000 A 
ATOM      2  C   UNL     1       2.669   4.431  19.657  0.00  0.00    +0.000 A 
ATOM      3  C   UNL     1       2.092   5.148  20.719  0.00  0.00    +0.000 A 
ATOM      4  C   UNL     1       1.797   6.517  20.568  0.00  0.00    +0.000 A 
ATOM      5  N   UNL     1       1.222   7.364  21.517  0.00  0.00    +0.000 NA
ATOM      6  C   UNL     1       1.085   8.570  21.009  0.00  0.00    +0.000 A 
ATOM      7  N   UNL     1       0.487   9.618  21.698  0.00  0.00    +0.000 N 
ATOM      8  C   UNL     1       0.085  10.786  21.084  0.00  0.00    +0.000 C 
ATOM      9  O   UNL     1       0.227  11.021  19.889  0.00  0.00    +0.000 OA
ATOM     10  N   UNL     1      -0.503  11.710  21.948  0.00  0.00    +0.000 N 
ATOM     11  S   UNL     1       1.746   8.777  19.446  0.00  0.00    +0.000 S 
ATOM     12  C   UNL     1       2.109   7.114  19.344  0.00  0.00    +0.000 A 
ATOM     13  C   UNL     1       2.643   6.403  18.259  0.00  0.00    +0.000 A 
ATOM     14  H   UNL     1       0.135   9.372  22.605  0.00  0.00    +0.000 HD
ATOM     15  H   UNL     1      -0.239  11.660  22.917  0.00  0.00    +0.000 HD
ENDROOT
BRANCH  10  16
ATOM     16  C   UNL     1      -1.057  12.937  21.477  0.00  0.00    +0.000 A 
ATOM     17  C   UNL     1      -0.276  14.091  21.305  0.00  0.00    +0.000 A 
ATOM     18  C   UNL     1      -0.849  15.317  20.961  0.00  0.00    +0.000 A 
ATOM     19  C   UNL     1      -2.217  15.401  20.734  0.00  0.00    +0.000 A 
ATOM     20 CL   UNL     1      -2.864  16.951  20.330  0.00  0.00    +0.000 Cl
ATOM     21  C   UNL     1      -3.003  14.247  20.836  0.00  0.00    +0.000 A 
ATOM     22 CL   UNL     1      -4.709  14.281  20.548  0.00  0.00    +0.000 Cl
ATOM     23  C   UNL     1      -2.422  13.016  21.197  0.00  0.00    +0.000 A 
ENDBRANCH  10  16
BRANCH   1  24
ATOM     24  O   UNL     1       3.400   4.390  17.312  0.00  0.00    +0.000 OA
BRANCH  24  27
ATOM     25  C   UNL     1       6.572   4.732  15.497  0.00  0.00    +0.000 A 
ATOM     26  C   UNL     1       5.202   4.688  15.691  0.00  0.00    +0.000 A 
ATOM     27  C   UNL     1       4.731   4.543  16.988  0.00  0.00    +0.000 A 
ATOM     28  C   UNL     1       5.630   4.584  18.049  0.00  0.00    +0.000 A 
ATOM     29  C   UNL     1       6.984   4.680  17.761  0.00  0.00    +0.000 A 
ATOM     30  N   UNL     1       7.486   4.730  16.507  0.00  0.00    +0.000 NA
BRANCH  25  33
ATOM     31  C   UNL     1       6.958   3.646  11.896  0.00  0.00    +0.000 C 
ATOM     32  N   UNL     1       6.538   3.774  13.264  0.00  0.00    +0.000 N 
ATOM     33  C   UNL     1       7.094   4.720  14.094  0.00  0.00    +0.000 C 
ATOM     34  O   UNL     1       7.948   5.523  13.728  0.00  0.00    +0.000 OA
ATOM     35  H   UNL     1       5.825   3.167  13.660  0.00  0.00    +0.000 HD
ENDBRANCH  25  33
ENDBRANCH  24  27
ENDBRANCH   1  24
TORSDOF 4
ENDMDL
MODEL 5
REMARK VINA RESULT:      -8.4      1.988      2.881
REMARK  Name = 
REMARK  5 active torsions:
REMARK  status: ('A' for Active; 'I' for Inactive)
REMARK    1  A    between atoms: C_1  and  N_2
REMARK    2  A    between atoms: C_3  and  C_5
REMARK    3  A    between atoms: C_7  and  O_8
REMARK    4  A    between atoms: O_8  and  C_9
REMARK    5  A    between atoms: N_18  and  C_19
REMARK                            x       y       z     vdW  Elec       q    Type
REMARK                         _______ _______ _______ _____ _____    ______ ____
ROOT
ATOM      1  C   UNL     1      -0.221  11.175  21.212  0.00  0.00    +0.000 A 
ATOM      2  C   UNL     1      -0.289  10.334  22.325  0.00  0.00    +0.000 A 
ATOM      3  C   UNL     1       0.338   9.076  22.319  0.00  0.00    +0.000 A 
ATOM      4  C   UNL     1       0.983   8.616  21.155  0.00  0.00    +0.000 A 
ATOM      5  N   UNL     1       1.653   7.403  20.988  0.00  0.00    +0.000 NA
ATOM      6  C   UNL     1       2.141   7.331  19.768  0.00  0.00    +0.000 A 
ATOM      7  N   UNL     1       2.910   6.263  19.322  0.00  0.00    +0.000 N 
ATOM      8  C   UNL     1       3.654   6.308  18.161  0.00  0.00    +0.000 C 
ATOM      9  O   UNL     1       3.698   7.274  17.408  0.00  0.00    +0.000 OA
ATOM     10  N   UNL     1       4.364   5.137  17.894  0.00  0.00    +0.000 N 
ATOM     11  S   UNL     1       1.716   8.629  18.740  0.00  0.00    +0.000 S 
ATOM     12  C   UNL     1       0.957   9.445  20.031  0.00  0.00    +0.000 A 
ATOM     13  C   UNL     1       0.375  10.722  20.033  0.00  0.00    +0.000 A 
ATOM     14  H   UNL     1       3.095   5.564  20.019  0.00  0.00    +0.000 HD
ATOM     15  H   UNL     1       4.000   4.284  18.282  0.00  0.00    +0.000 HD
ENDROOT
BRANCH  10  16
ATOM     16  C   UNL     1       5.255   5.032  16.786  0.00  0.00    +0.000 A 
ATOM     17  C   UNL     1       6.566   5.533  16.832  0.00  0.00    +0.000 A 
ATOM     18  C   UNL     1       7.389   5.535  15.704  0.00  0.00    +0.000 A 
ATOM     19  C   UNL     1       6.929   4.988  14.512  0.00  0.00    +0.000 A 
ATOM     20 CL   UNL     1       7.990   5.039  13.151  0.00  0.00    +0.000 Cl
ATOM     21  C   UNL     1       5.648   4.425  14.464  0.00  0.00    +0.000 A 
ATOM     22 CL   UNL     1       5.023   3.713  13.016  0.00  0.00    +0.000 Cl
ATOM     23  C   UNL     1       4.817   4.438  15.601  0.00  0.00    +0.000 A 
ENDBRANCH  10  16
BRANCH   1  24
ATOM     24  O   UNL     1      -0.765  12.442  21.157  0.00  0.00    +0.000 OA
BRANCH  24  27
ATOM     25  C   UNL     1      -3.429  13.032  23.612  0.00  0.00    +0.000 A 
ATOM     26  C   UNL     1      -2.744  12.401  22.587  0.00  0.00    +0.000 A 
ATOM     27  C   UNL     1      -1.507  12.912  22.218  0.00  0.00    +0.000 A 
ATOM     28  C   UNL     1      -0.942  13.939  22.967  0.00  0.00    +0.000 A 
ATOM     29  C   UNL     1      -1.682  14.478  24.010  0.00  0.00    +0.000 A 
ATOM     30  N   UNL     1      -2.928  14.069  24.340  0.00  0.00    +0.000 NA
BRANCH  25  33
ATOM     31  C   UNL     1      -7.149  12.576  23.115  0.00  0.00    +0.000 C 
ATOM     32  N   UNL     1      -5.765  12.923  22.950  0.00  0.00    +0.000 N 
ATOM     33  C   UNL     1      -4.830  12.596  23.907  0.00  0.00    +0.000 C 
ATOM     34  O   UNL     1      -5.099  11.974  24.930  0.00  0.00    +0.000 OA
ATOM     35  H   UNL     1      -5.436  13.425  22.130  0.00  0.00    +0.000 HD
ENDBRANCH  25  33
ENDBRANCH  24  27
ENDBRANCH   1  24
TORSDOF 4
ENDMDL
MODEL 6
REMARK VINA RESULT:      -8.4      4.861     11.690
REMARK  Name = 
REMARK  5 active torsions:
REMARK  status: ('A' for Active; 'I' for Inactive)
REMARK    1  A    between atoms: C_1  and  N_2
REMARK    2  A    between atoms: C_3  and  C_5
REMARK    3  A    between atoms: C_7  and  O_8
REMARK    4  A    between atoms: O_8  and  C_9
REMARK    5  A    between atoms: N_18  and  C_19
REMARK                            x       y       z     vdW  Elec       q    Type
REMARK                         _______ _______ _______ _____ _____    ______ ____
ROOT
ATOM      1  C   UNL     1       3.033   5.078  18.169  0.00  0.00    +0.000 A 
ATOM      2  C   UNL     1       2.726   4.302  19.290  0.00  0.00    +0.000 A 
ATOM      3  C   UNL     1       2.062   4.861  20.395  0.00  0.00    +0.000 A 
ATOM      4  C   UNL     1       1.763   6.237  20.415  0.00  0.00    +0.000 A 
ATOM      5  N   UNL     1       1.107   6.941  21.427  0.00  0.00    +0.000 NA
ATOM      6  C   UNL     1       0.996   8.206  21.085  0.00  0.00    +0.000 A 
ATOM      7  N   UNL     1       0.334   9.146  21.867  0.00  0.00    +0.000 N 
ATOM      8  C   UNL     1      -0.033  10.390  21.394  0.00  0.00    +0.000 C 
ATOM      9  O   UNL     1       0.198  10.791  20.260  0.00  0.00    +0.000 OA
ATOM     10  N   UNL     1      -0.695  11.182  22.332  0.00  0.00    +0.000 N 
ATOM     11  S   UNL     1       1.772   8.633  19.623  0.00  0.00    +0.000 S 
ATOM     12  C   UNL     1       2.161   7.002  19.316  0.00  0.00    +0.000 A 
ATOM     13  C   UNL     1       2.785   6.452  18.186  0.00  0.00    +0.000 A 
ATOM     14  H   UNL     1      -0.084   8.774  22.701  0.00  0.00    +0.000 HD
ATOM     15  H   UNL     1      -0.507  10.995  23.302  0.00  0.00    +0.000 HD
ENDROOT
BRANCH  10  16
ATOM     16  C   UNL     1      -1.226  12.462  21.997  0.00  0.00    +0.000 A 
ATOM     17  C   UNL     1      -0.464  13.637  22.104  0.00  0.00    +0.000 A 
ATOM     18  C   UNL     1      -1.028  14.896  21.892  0.00  0.00    +0.000 A 
ATOM     19  C   UNL     1      -2.362  15.002  21.519  0.00  0.00    +0.000 A 
ATOM     20 CL   UNL     1      -3.001  16.590  21.290  0.00  0.00    +0.000 Cl
ATOM     21  C   UNL     1      -3.121  13.839  21.344  0.00  0.00    +0.000 A 
ATOM     22 CL   UNL     1      -4.782  13.902  20.863  0.00  0.00    +0.000 Cl
ATOM     23  C   UNL     1      -2.551  12.572  21.573  0.00  0.00    +0.000 A 
ENDBRANCH  10  16
BRANCH   1  24
ATOM     24  O   UNL     1       3.636   4.594  17.027  0.00  0.00    +0.000 OA
BRANCH  24  27
ATOM     25  C   UNL     1       6.939   6.195  17.049  0.00  0.00    +0.000 A 
ATOM     26  C   UNL     1       5.714   5.772  17.536  0.00  0.00    +0.000 A 
ATOM     27  C   UNL     1       4.913   5.000  16.706  0.00  0.00    +0.000 A 
ATOM     28  C   UNL     1       5.416   4.568  15.483  0.00  0.00    +0.000 A 
ATOM     29  C   UNL     1       6.676   5.002  15.098  0.00  0.00    +0.000 A 
ATOM     30  N   UNL     1       7.447   5.829  15.839  0.00  0.00    +0.000 NA
BRANCH  25  33
ATOM     31  C   UNL     1       8.505   9.478  18.080  0.00  0.00    +0.000 C 
ATOM     32  N   UNL     1       7.765   8.454  17.396  0.00  0.00    +0.000 N 
ATOM     33  C   UNL     1       7.737   7.161  17.869  0.00  0.00    +0.000 C 
ATOM     34  O   UNL     1       8.302   6.805  18.898  0.00  0.00    +0.000 OA
ATOM     35  H   UNL     1       7.250   8.650  16.542  0.00  0.00    +0.000 HD
ENDBRANCH  25  33
ENDBRANCH  24  27
ENDBRANCH   1  24
TORSDOF 4
ENDMDL
MODEL 7
REMARK VINA RESULT:      -8.3      4.648     11.534
REMARK  Name = 
REMARK  5 active torsions:
REMARK  status: ('A' for Active; 'I' for Inactive)
REMARK    1  A    between atoms: C_1  and  N_2
REMARK    2  A    between atoms: C_3  and  C_5
REMARK    3  A    between atoms: C_7  and  O_8
REMARK    4  A    between atoms: O_8  and  C_9
REMARK    5  A    between atoms: N_18  and  C_19
REMARK                            x       y       z     vdW  Elec       q    Type
REMARK                         _______ _______ _______ _____ _____    ______ ____
ROOT
ATOM      1  C   UNL     1       3.035   4.935  18.200  0.00  0.00    +0.000 A 
ATOM      2  C   UNL     1       2.685   4.174  19.318  0.00  0.00    +0.000 A 
ATOM      3  C   UNL     1       2.014   4.758  20.406  0.00  0.00    +0.000 A 
ATOM      4  C   UNL     1       1.753   6.141  20.413  0.00  0.00    +0.000 A 
ATOM      5  N   UNL     1       1.095   6.869  21.407  0.00  0.00    +0.000 NA
ATOM      6  C   UNL     1       1.026   8.135  21.056  0.00  0.00    +0.000 A 
ATOM      7  N   UNL     1       0.374   9.097  21.819  0.00  0.00    +0.000 N 
ATOM      8  C   UNL     1       0.051  10.347  21.332  0.00  0.00    +0.000 C 
ATOM      9  O   UNL     1       0.315  10.735  20.200  0.00  0.00    +0.000 OA
ATOM     10  N   UNL     1      -0.609  11.162  22.252  0.00  0.00    +0.000 N 
ATOM     11  S   UNL     1       1.842   8.531  19.607  0.00  0.00    +0.000 S 
ATOM     12  C   UNL     1       2.193   6.888  19.318  0.00  0.00    +0.000 A 
ATOM     13  C   UNL     1       2.824   6.314  18.204  0.00  0.00    +0.000 A 
ATOM     14  H   UNL     1      -0.070   8.741  22.646  0.00  0.00    +0.000 HD
ATOM     15  H   UNL     1      -0.444  10.977  23.226  0.00  0.00    +0.000 HD
ENDROOT
BRANCH  10  16
ATOM     16  C   UNL     1      -1.098  12.454  21.899  0.00  0.00    +0.000 A 
ATOM     17  C   UNL     1      -2.383  12.645  21.365  0.00  0.00    +0.000 A 
ATOM     18  C   UNL     1      -2.807  13.895  20.909  0.00  0.00    +0.000 A 
ATOM     19  C   UNL     1      -1.966  14.995  21.024  0.00  0.00    +0.000 A 
ATOM     20 CL   UNL     1      -2.545  16.507  20.424  0.00  0.00    +0.000 Cl
ATOM     21  C   UNL     1      -0.706  14.837  21.613  0.00  0.00    +0.000 A 
ATOM     22 CL   UNL     1       0.382  16.170  21.801  0.00  0.00    +0.000 Cl
ATOM     23  C   UNL     1      -0.277  13.572  22.058  0.00  0.00    +0.000 A 
ENDBRANCH  10  16
BRANCH   1  24
ATOM     24  O   UNL     1       3.648   4.427  17.072  0.00  0.00    +0.000 OA
BRANCH  24  27
ATOM     25  C   UNL     1       6.914   6.101  17.034  0.00  0.00    +0.000 A 
ATOM     26  C   UNL     1       5.710   5.647  17.545  0.00  0.00    +0.000 A 
ATOM     27  C   UNL     1       4.908   4.864  16.726  0.00  0.00    +0.000 A 
ATOM     28  C   UNL     1       5.391   4.455  15.487  0.00  0.00    +0.000 A 
ATOM     29  C   UNL     1       6.632   4.920  15.078  0.00  0.00    +0.000 A 
ATOM     30  N   UNL     1       7.401   5.758  15.809  0.00  0.00    +0.000 NA
BRANCH  25  33
ATOM     31  C   UNL     1       8.418   9.412  18.066  0.00  0.00    +0.000 C 
ATOM     32  N   UNL     1       7.688   8.378  17.389  0.00  0.00    +0.000 N 
ATOM     33  C   UNL     1       7.709   7.078  17.843  0.00  0.00    +0.000 C 
ATOM     34  O   UNL     1       8.314   6.724  18.850  0.00  0.00    +0.000 OA
ATOM     35  H   UNL     1       7.141   8.571  16.554  0.00  0.00    +0.000 HD
ENDBRANCH  25  33
ENDBRANCH  24  27
ENDBRANCH   1  24
TORSDOF 4
ENDMDL
MODEL 8
REMARK VINA RESULT:      -8.3      1.988      2.819
REMARK  Name = 
REMARK  5 active torsions:
REMARK  status: ('A' for Active; 'I' for Inactive)
REMARK    1  A    between atoms: C_1  and  N_2
REMARK    2  A    between atoms: C_3  and  C_5
REMARK    3  A    between atoms: C_7  and  O_8
REMARK    4  A    between atoms: O_8  and  C_9
REMARK    5  A    between atoms: N_18  and  C_19
REMARK                            x       y       z     vdW  Elec       q    Type
REMARK                         _______ _______ _______ _____ _____    ______ ____
ROOT
ATOM      1  C   UNL     1      -0.150  11.187  21.116  0.00  0.00    +0.000 A 
ATOM      2  C   UNL     1      -0.249  10.331  22.216  0.00  0.00    +0.000 A 
ATOM      3  C   UNL     1       0.354   9.061  22.198  0.00  0.00    +0.000 A 
ATOM      4  C   UNL     1       1.005   8.606  21.034  0.00  0.00    +0.000 A 
ATOM      5  N   UNL     1       1.654   7.383  20.857  0.00  0.00    +0.000 NA
ATOM      6  C   UNL     1       2.156   7.320  19.643  0.00  0.00    +0.000 A 
ATOM      7  N   UNL     1       2.910   6.244  19.190  0.00  0.00    +0.000 N 
ATOM      8  C   UNL     1       3.670   6.293  18.039  0.00  0.00    +0.000 C 
ATOM      9  O   UNL     1       3.742   7.270  17.302  0.00  0.00    +0.000 OA
ATOM     10  N   UNL     1       4.361   5.113  17.763  0.00  0.00    +0.000 N 
ATOM     11  S   UNL     1       1.770   8.643  18.630  0.00  0.00    +0.000 S 
ATOM     12  C   UNL     1       1.010   9.453  19.923  0.00  0.00    +0.000 A 
ATOM     13  C   UNL     1       0.453  10.741  19.939  0.00  0.00    +0.000 A 
ATOM     14  H   UNL     1       3.072   5.531  19.878  0.00  0.00    +0.000 HD
ATOM     15  H   UNL     1       3.975   4.262  18.133  0.00  0.00    +0.000 HD
ENDROOT
BRANCH  10  16
ATOM     16  C   UNL     1       5.264   5.007  16.665  0.00  0.00    +0.000 A 
ATOM     17  C   UNL     1       6.568   5.525  16.719  0.00  0.00    +0.000 A 
ATOM     18  C   UNL     1       7.402   5.526  15.599  0.00  0.00    +0.000 A 
ATOM     19  C   UNL     1       6.961   4.961  14.409  0.00  0.00    +0.000 A 
ATOM     20 CL   UNL     1       8.035   5.012  13.058  0.00  0.00    +0.000 Cl
ATOM     21  C   UNL     1       5.688   4.381  14.354  0.00  0.00    +0.000 A 
ATOM     22 CL   UNL     1       5.087   3.645  12.908  0.00  0.00    +0.000 Cl
ATOM     23  C   UNL     1       4.846   4.396  15.482  0.00  0.00    +0.000 A 
ENDBRANCH  10  16
BRANCH   1  24
ATOM     24  O   UNL     1      -0.668  12.465  21.074  0.00  0.00    +0.000 OA
BRANCH  24  27
ATOM     25  C   UNL     1      -4.300  12.672  20.581  0.00  0.00    +0.000 A 
ATOM     26  C   UNL     1      -2.985  12.331  20.312  0.00  0.00    +0.000 A 
ATOM     27  C   UNL     1      -2.021  12.659  21.256  0.00  0.00    +0.000 A 
ATOM     28  C   UNL     1      -2.416  13.186  22.481  0.00  0.00    +0.000 A 
ATOM     29  C   UNL     1      -3.764  13.448  22.681  0.00  0.00    +0.000 A 
ATOM     30  N   UNL     1      -4.720  13.229  21.751  0.00  0.00    +0.000 NA
BRANCH  25  33
ATOM     31  C   UNL     1      -5.708  12.324  17.090  0.00  0.00    +0.000 C 
ATOM     32  N   UNL     1      -4.834  12.488  18.217  0.00  0.00    +0.000 N 
ATOM     33  C   UNL     1      -5.321  12.475  19.504  0.00  0.00    +0.000 C 
ATOM     34  O   UNL     1      -6.504  12.296  19.777  0.00  0.00    +0.000 OA
ATOM     35  H   UNL     1      -3.834  12.627  18.099  0.00  0.00    +0.000 HD
ENDBRANCH  25  33
ENDBRANCH  24  27
ENDBRANCH   1  24
TORSDOF 4
ENDMDL
MODEL 9
REMARK VINA RESULT:      -8.3      5.164     11.867
REMARK  Name = 
REMARK  5 active torsions:
REMARK  status: ('A' for Active; 'I' for Inactive)
REMARK    1  A    between atoms: C_1  and  N_2
REMARK    2  A    between atoms: C_3  and  C_5
REMARK    3  A    between atoms: C_7  and  O_8
REMARK    4  A    between atoms: O_8  and  C_9
REMARK    5  A    between atoms: N_18  and  C_19
REMARK                            x       y       z     vdW  Elec       q    Type
REMARK                         _______ _______ _______ _____ _____    ______ ____
ROOT
ATOM      1  C   UNL     1       3.060   4.445  18.744  0.00  0.00    +0.000 A 
ATOM      2  C   UNL     1       2.497   3.940  19.918  0.00  0.00    +0.000 A 
ATOM      3  C   UNL     1       1.802   4.782  20.804  0.00  0.00    +0.000 A 
ATOM      4  C   UNL     1       1.730   6.165  20.553  0.00  0.00    +0.000 A 
ATOM      5  N   UNL     1       1.078   7.128  21.325  0.00  0.00    +0.000 NA
ATOM      6  C   UNL     1       1.216   8.311  20.766  0.00  0.00    +0.000 A 
ATOM      7  N   UNL     1       0.625   9.462  21.274  0.00  0.00    +0.000 N 
ATOM      8  C   UNL     1       0.525  10.634  20.553  0.00  0.00    +0.000 C 
ATOM      9  O   UNL     1       0.954  10.782  19.415  0.00  0.00    +0.000 OA
ATOM     10  N   UNL     1      -0.110  11.671  21.238  0.00  0.00    +0.000 N 
ATOM     11  S   UNL     1       2.224   8.348  19.385  0.00  0.00    +0.000 S 
ATOM     12  C   UNL     1       2.378   6.650  19.414  0.00  0.00    +0.000 A 
ATOM     13  C   UNL     1       3.038   5.819  18.496  0.00  0.00    +0.000 A 
ATOM     14  H   UNL     1       0.054   9.313  22.086  0.00  0.00    +0.000 HD
ATOM     15  H   UNL     1      -0.074  11.643  22.242  0.00  0.00    +0.000 HD
ENDROOT
BRANCH  10  16
ATOM     16  C   UNL     1      -0.382  12.927  20.621  0.00  0.00    +0.000 A 
ATOM     17  C   UNL     1      -0.056  13.184  19.279  0.00  0.00    +0.000 A 
ATOM     18  C   UNL     1      -0.213  14.454  18.719  0.00  0.00    +0.000 A 
ATOM     19  C   UNL     1      -0.748  15.485  19.482  0.00  0.00    +0.000 A 
ATOM     20 CL   UNL     1      -0.898  17.034  18.734  0.00  0.00    +0.000 Cl
ATOM     21  C   UNL     1      -1.139  15.231  20.802  0.00  0.00    +0.000 A 
ATOM     22 CL   UNL     1      -1.827  16.466  21.799  0.00  0.00    +0.000 Cl
ATOM     23  C   UNL     1      -0.965  13.953  21.366  0.00  0.00    +0.000 A 
ENDBRANCH  10  16
BRANCH   1  24
ATOM     24  O   UNL     1       3.712   3.679  17.800  0.00  0.00    +0.000 OA
BRANCH  24  27
ATOM     25  C   UNL     1       6.574   4.537  15.667  0.00  0.00    +0.000 A 
ATOM     26  C   UNL     1       5.263   4.238  15.998  0.00  0.00    +0.000 A 
ATOM     27  C   UNL     1       4.950   4.070  17.340  0.00  0.00    +0.000 A 
ATOM     28  C   UNL     1       5.917   4.338  18.304  0.00  0.00    +0.000 A 
ATOM     29  C   UNL     1       7.193   4.680  17.880  0.00  0.00    +0.000 A 
ATOM     30  N   UNL     1       7.559   4.763  16.581  0.00  0.00    +0.000 NA
BRANCH  25  33
ATOM     31  C   UNL     1       6.657   3.488  12.036  0.00  0.00    +0.000 C 
ATOM     32  N   UNL     1       6.365   3.590  13.439  0.00  0.00    +0.000 N 
ATOM     33  C   UNL     1       6.957   4.556  14.221  0.00  0.00    +0.000 C 
ATOM     34  O   UNL     1       7.734   5.398  13.782  0.00  0.00    +0.000 OA
ATOM     35  H   UNL     1       5.722   2.949  13.897  0.00  0.00    +0.000 HD
ENDBRANCH  25  33
ENDBRANCH  24  27
ENDBRANCH   1  24
TORSDOF 4
ENDMDL
