MODEL 1
REMARK VINA RESULT:      -7.2      0.000      0.000
REMARK  Name = 
REMARK  4 active torsions:
REMARK  status: ('A' for Active; 'I' for Inactive)
REMARK    1  A    between atoms: C_2  and  O_3
REMARK    2  A    between atoms: C_2  and  C_4
REMARK    3  A    between atoms: C_9  and  C_10
REMARK    4  A    between atoms: C_10  and  N_11
REMARK                            x       y       z     vdW  Elec       q    Type
REMARK                         _______ _______ _______ _____ _____    ______ ____
ROOT
ATOM      1  C   UNL     1       6.589   4.984  15.275  0.00  0.00    +0.000 C 
ATOM      2  C   UNL     1       5.920   3.649  15.616  0.00  0.00    +0.000 C 
ATOM      3  C   UNL     1       5.403   3.661  17.054  0.00  0.00    +0.000 C 
ATOM      4  C   UNL     1       4.617   4.904  17.394  0.00  0.00    +0.000 A 
ATOM      5  C   UNL     1       3.776   4.898  18.520  0.00  0.00    +0.000 A 
ATOM      6  C   UNL     1       3.034   6.034  18.880  0.00  0.00    +0.000 A 
ATOM      7  C   UNL     1       3.181   7.201  18.123  0.00  0.00    +0.000 A 
ATOM      8  C   UNL     1       4.023   7.221  17.010  0.00  0.00    +0.000 A 
ATOM      9  C   UNL     1       4.745   6.081  16.635  0.00  0.00    +0.000 A 
ATOM     10  C   UNL     1       5.576   6.124  15.378  0.00  0.00    +0.000 C 
ENDROOT
BRANCH   1  12
ATOM     11  O   UNL     1       8.100   5.641  13.492  0.00  0.00    +0.000 OA
ATOM     12  C   UNL     1       7.157   4.965  13.872  0.00  0.00    +0.000 C 
BRANCH  12  13
ATOM     13  O   UNL     1       6.536   4.079  13.060  0.00  0.00    +0.000 OA
ATOM     14  H   UNL     1       5.574   4.000  13.204  0.00  0.00    +0.000 HD
ENDBRANCH  12  13
ENDBRANCH   1  12
BRANCH   6  15
ATOM     15  C   UNL     1       2.072   5.991  20.040  0.00  0.00    +0.000 C 
BRANCH  15  16
ATOM     16  N   UNL     1       1.880   4.650  20.559  0.00  0.00    +0.000 N 
ATOM     17  C   UNL     1       0.955   3.737  20.131  0.00  0.00    +0.000 A 
ATOM     18  C   UNL     1       1.051   2.692  21.019  0.00  0.00    +0.000 A 
ATOM     19  N   UNL     1       2.006   2.946  21.968  0.00  0.00    +0.000 NA
ATOM     20  C   UNL     1       2.486   4.131  21.669  0.00  0.00    +0.000 A 
ENDBRANCH  15  16
ENDBRANCH   6  15
TORSDOF 4
ENDMDL
MODEL 2
REMARK VINA RESULT:      -7.1      4.683      7.000
REMARK  Name = 
REMARK  4 active torsions:
REMARK  status: ('A' for Active; 'I' for Inactive)
REMARK    1  A    between atoms: C_2  and  O_3
REMARK    2  A    between atoms: C_2  and  C_4
REMARK    3  A    between atoms: C_9  and  C_10
REMARK    4  A    between atoms: C_10  and  N_11
REMARK                            x       y       z     vdW  Elec       q    Type
REMARK                         _______ _______ _______ _____ _____    ______ ____
ROOT
ATOM      1  C   UNL     1       1.589   9.179  20.073  0.00  0.00    +0.000 C 
ATOM      2  C   UNL     1       1.350   9.234  18.562  0.00  0.00    +0.000 C 
ATOM      3  C   UNL     1       2.428   8.444  17.820  0.00  0.00    +0.000 C 
ATOM      4  C   UNL     1       2.671   7.073  18.406  0.00  0.00    +0.000 A 
ATOM      5  C   UNL     1       3.336   6.106  17.634  0.00  0.00    +0.000 A 
ATOM      6  C   UNL     1       3.593   4.822  18.141  0.00  0.00    +0.000 A 
ATOM      7  C   UNL     1       3.216   4.531  19.456  0.00  0.00    +0.000 A 
ATOM      8  C   UNL     1       2.566   5.489  20.235  0.00  0.00    +0.000 A 
ATOM      9  C   UNL     1       2.287   6.763  19.722  0.00  0.00    +0.000 A 
ATOM     10  C   UNL     1       1.508   7.736  20.570  0.00  0.00    +0.000 C 
ENDROOT
BRANCH   1  12
ATOM     11  O   UNL     1       0.771  10.606  21.858  0.00  0.00    +0.000 OA
ATOM     12  C   UNL     1       0.562  10.006  20.816  0.00  0.00    +0.000 C 
BRANCH  12  13
ATOM     13  O   UNL     1      -0.635  10.056  20.187  0.00  0.00    +0.000 OA
ATOM     14  H   UNL     1      -1.397   9.799  20.741  0.00  0.00    +0.000 HD
ENDBRANCH  12  13
ENDBRANCH   1  12
BRANCH   6  15
ATOM     15  C   UNL     1       4.232   3.764  17.277  0.00  0.00    +0.000 C 
BRANCH  15  16
ATOM     16  N   UNL     1       5.432   4.236  16.612  0.00  0.00    +0.000 N 
ATOM     17  C   UNL     1       5.631   4.325  15.261  0.00  0.00    +0.000 A 
ATOM     18  C   UNL     1       6.955   4.667  15.118  0.00  0.00    +0.000 A 
ATOM     19  N   UNL     1       7.560   4.788  16.342  0.00  0.00    +0.000 NA
ATOM     20  C   UNL     1       6.622   4.521  17.221  0.00  0.00    +0.000 A 
ENDBRANCH  15  16
ENDBRANCH   6  15
TORSDOF 4
ENDMDL
MODEL 3
REMARK VINA RESULT:      -7.0      0.491      1.131
REMARK  Name = 
REMARK  4 active torsions:
REMARK  status: ('A' for Active; 'I' for Inactive)
REMARK    1  A    between atoms: C_2  and  O_3
REMARK    2  A    between atoms: C_2  and  C_4
REMARK    3  A    between atoms: C_9  and  C_10
REMARK    4  A    between atoms: C_10  and  N_11
REMARK                            x       y       z     vdW  Elec       q    Type
REMARK                         _______ _______ _______ _____ _____    ______ ____
ROOT
ATOM      1  C   UNL     1       6.438   4.803  15.321  0.00  0.00    +0.000 C 
ATOM      2  C   UNL     1       5.638   3.529  15.605  0.00  0.00    +0.000 C 
ATOM      3  C   UNL     1       5.106   3.538  17.039  0.00  0.00    +0.000 C 
ATOM      4  C   UNL     1       4.440   4.840  17.418  0.00  0.00    +0.000 A 
ATOM      5  C   UNL     1       3.589   4.875  18.534  0.00  0.00    +0.000 A 
ATOM      6  C   UNL     1       2.956   6.064  18.930  0.00  0.00    +0.000 A 
ATOM      7  C   UNL     1       3.226   7.238  18.219  0.00  0.00    +0.000 A 
ATOM      8  C   UNL     1       4.080   7.216  17.115  0.00  0.00    +0.000 A 
ATOM      9  C   UNL     1       4.693   6.025  16.705  0.00  0.00    +0.000 A 
ATOM     10  C   UNL     1       5.540   6.033  15.457  0.00  0.00    +0.000 C 
ENDROOT
BRANCH   1  12
ATOM     11  O   UNL     1       6.620   4.071  13.014  0.00  0.00    +0.000 OA
ATOM     12  C   UNL     1       7.019   4.780  13.924  0.00  0.00    +0.000 C 
BRANCH  12  13
ATOM     13  O   UNL     1       8.026   5.667  13.753  0.00  0.00    +0.000 OA
ATOM     14  H   UNL     1       7.939   6.234  12.963  0.00  0.00    +0.000 HD
ENDBRANCH  12  13
ENDBRANCH   1  12
BRANCH   6  15
ATOM     15  C   UNL     1       1.979   6.074  20.078  0.00  0.00    +0.000 C 
BRANCH  15  16
ATOM     16  N   UNL     1       1.729   4.747  20.611  0.00  0.00    +0.000 N 
ATOM     17  C   UNL     1       2.438   4.121  21.599  0.00  0.00    +0.000 A 
ATOM     18  C   UNL     1       1.934   2.842  21.643  0.00  0.00    +0.000 A 
ATOM     19  N   UNL     1       0.941   2.680  20.712  0.00  0.00    +0.000 NA
ATOM     20  C   UNL     1       0.841   3.840  20.105  0.00  0.00    +0.000 A 
ENDBRANCH  15  16
ENDBRANCH   6  15
TORSDOF 4
ENDMDL
MODEL 4
REMARK VINA RESULT:      -6.9      4.876      7.094
REMARK  Name = 
REMARK  4 active torsions:
REMARK  status: ('A' for Active; 'I' for Inactive)
REMARK    1  A    between atoms: C_2  and  O_3
REMARK    2  A    between atoms: C_2  and  C_4
REMARK    3  A    between atoms: C_9  and  C_10
REMARK    4  A    between atoms: C_10  and  N_11
REMARK                            x       y       z     vdW  Elec       q    Type
REMARK                         _______ _______ _______ _____ _____    ______ ____
ROOT
ATOM      1  C   UNL     1       1.309   9.667  20.017  0.00  0.00    +0.000 C 
ATOM      2  C   UNL     1       1.104   9.649  18.500  0.00  0.00    +0.000 C 
ATOM      3  C   UNL     1       2.205   8.834  17.821  0.00  0.00    +0.000 C 
ATOM      4  C   UNL     1       2.445   7.495  18.476  0.00  0.00    +0.000 A 
ATOM      5  C   UNL     1       3.135   6.498  17.766  0.00  0.00    +0.000 A 
ATOM      6  C   UNL     1       3.389   5.242  18.338  0.00  0.00    +0.000 A 
ATOM      7  C   UNL     1       2.986   5.009  19.657  0.00  0.00    +0.000 A 
ATOM      8  C   UNL     1       2.310   5.997  20.375  0.00  0.00    +0.000 A 
ATOM      9  C   UNL     1       2.033   7.243  19.796  0.00  0.00    +0.000 A 
ATOM     10  C   UNL     1       1.228   8.248  20.580  0.00  0.00    +0.000 C 
ENDROOT
BRANCH   1  12
ATOM     11  O   UNL     1      -0.828  10.803  20.216  0.00  0.00    +0.000 OA
ATOM     12  C   UNL     1       0.258  10.519  20.697  0.00  0.00    +0.000 C 
BRANCH  12  13
ATOM     13  O   UNL     1       0.620  10.919  21.938  0.00  0.00    +0.000 OA
ATOM     14  H   UNL     1       1.470  11.398  21.979  0.00  0.00    +0.000 HD
ENDBRANCH  12  13
ENDBRANCH   1  12
BRANCH   6  15
ATOM     15  C   UNL     1       4.057   4.150  17.540  0.00  0.00    +0.000 C 
BRANCH  15  16
ATOM     16  N   UNL     1       5.493   4.329  17.440  0.00  0.00    +0.000 N 
ATOM     17  C   UNL     1       6.335   4.722  18.444  0.00  0.00    +0.000 A 
ATOM     18  C   UNL     1       7.555   4.901  17.836  0.00  0.00    +0.000 A 
ATOM     19  N   UNL     1       7.474   4.627  16.496  0.00  0.00    +0.000 NA
ATOM     20  C   UNL     1       6.223   4.289  16.285  0.00  0.00    +0.000 A 
ENDBRANCH  15  16
ENDBRANCH   6  15
TORSDOF 4
ENDMDL
MODEL 5
REMARK VINA RESULT:      -6.9      4.859      7.239
REMARK  Name = 
REMARK  4 active torsions:
REMARK  status: ('A' for Active; 'I' for Inactive)
REMARK    1  A    between atoms: C_2  and  O_3
REMARK    2  A    between atoms: C_2  and  C_4
REMARK    3  A    between atoms: C_9  and  C_10
REMARK    4  A    between atoms: C_10  and  N_11
REMARK                            x       y       z     vdW  Elec       q    Type
REMARK                         _______ _______ _______ _____ _____    ______ ____
ROOT
ATOM      1  C   UNL     1       1.397   8.698  20.918  0.00  0.00    +0.000 C 
ATOM      2  C   UNL     1       1.104   9.070  19.462  0.00  0.00    +0.000 C 
ATOM      3  C   UNL     1       2.180   8.501  18.536  0.00  0.00    +0.000 C 
ATOM      4  C   UNL     1       2.484   7.046  18.802  0.00  0.00    +0.000 A 
ATOM      5  C   UNL     1       3.152   6.294  17.821  0.00  0.00    +0.000 A 
ATOM      6  C   UNL     1       3.465   4.942  18.028  0.00  0.00    +0.000 A 
ATOM      7  C   UNL     1       3.144   4.358  19.258  0.00  0.00    +0.000 A 
ATOM      8  C   UNL     1       2.492   5.100  20.245  0.00  0.00    +0.000 A 
ATOM      9  C   UNL     1       2.156   6.443  20.029  0.00  0.00    +0.000 A 
ATOM     10  C   UNL     1       1.378   7.180  21.090  0.00  0.00    +0.000 C 
ENDROOT
BRANCH   1  12
ATOM     11  O   UNL     1      -0.713   8.809  22.113  0.00  0.00    +0.000 OA
ATOM     12  C   UNL     1       0.372   9.305  21.851  0.00  0.00    +0.000 C 
BRANCH  12  13
ATOM     13  O   UNL     1       0.788  10.461  22.418  0.00  0.00    +0.000 OA
ATOM     14  H   UNL     1       0.082  10.977  22.852  0.00  0.00    +0.000 HD
ENDBRANCH  12  13
ENDBRANCH   1  12
BRANCH   6  15
ATOM     15  C   UNL     1       4.106   4.122  16.938  0.00  0.00    +0.000 C 
BRANCH  15  16
ATOM     16  N   UNL     1       5.552   4.248  16.919  0.00  0.00    +0.000 N 
ATOM     17  C   UNL     1       6.365   4.430  18.004  0.00  0.00    +0.000 A 
ATOM     18  C   UNL     1       7.616   4.651  17.477  0.00  0.00    +0.000 A 
ATOM     19  N   UNL     1       7.580   4.607  16.108  0.00  0.00    +0.000 NA
ATOM     20  C   UNL     1       6.327   4.366  15.800  0.00  0.00    +0.000 A 
ENDBRANCH  15  16
ENDBRANCH   6  15
TORSDOF 4
ENDMDL
MODEL 6
REMARK VINA RESULT:      -6.7      5.117      6.985
REMARK  Name = 
REMARK  4 active torsions:
REMARK  status: ('A' for Active; 'I' for Inactive)
REMARK    1  A    between atoms: C_2  and  O_3
REMARK    2  A    between atoms: C_2  and  C_4
REMARK    3  A    between atoms: C_9  and  C_10
REMARK    4  A    between atoms: C_10  and  N_11
REMARK                            x       y       z     vdW  Elec       q    Type
REMARK                         _______ _______ _______ _____ _____    ______ ____
ROOT
ATOM      1  C   UNL     1      -0.320  11.143  19.431  0.00  0.00    +0.000 C 
ATOM      2  C   UNL     1       0.168  10.957  20.870  0.00  0.00    +0.000 C 
ATOM      3  C   UNL     1       0.393   9.475  21.172  0.00  0.00    +0.000 C 
ATOM      4  C   UNL     1       1.189   8.764  20.103  0.00  0.00    +0.000 A 
ATOM      5  C   UNL     1       1.791   7.530  20.402  0.00  0.00    +0.000 A 
ATOM      6  C   UNL     1       2.530   6.829  19.437  0.00  0.00    +0.000 A 
ATOM      7  C   UNL     1       2.621   7.356  18.145  0.00  0.00    +0.000 A 
ATOM      8  C   UNL     1       2.016   8.575  17.834  0.00  0.00    +0.000 A 
ATOM      9  C   UNL     1       1.299   9.289  18.803  0.00  0.00    +0.000 A 
ATOM     10  C   UNL     1       0.735  10.641  18.445  0.00  0.00    +0.000 C 
ENDROOT
BRANCH   1  12
ATOM     11  O   UNL     1      -1.058  13.398  19.941  0.00  0.00    +0.000 OA
ATOM     12  C   UNL     1      -0.603  12.600  19.137  0.00  0.00    +0.000 C 
BRANCH  12  13
ATOM     13  O   UNL     1      -0.262  12.965  17.879  0.00  0.00    +0.000 OA
ATOM     14  H   UNL     1      -0.765  13.723  17.526  0.00  0.00    +0.000 HD
ENDBRANCH  12  13
ENDBRANCH   1  12
BRANCH   6  15
ATOM     15  C   UNL     1       3.242   5.547  19.791  0.00  0.00    +0.000 C 
BRANCH  15  16
ATOM     16  N   UNL     1       2.327   4.485  20.165  0.00  0.00    +0.000 N 
ATOM     17  C   UNL     1       2.206   3.915  21.403  0.00  0.00    +0.000 A 
ATOM     18  C   UNL     1       1.340   2.862  21.226  0.00  0.00    +0.000 A 
ATOM     19  N   UNL     1       0.933   2.781  19.920  0.00  0.00    +0.000 NA
ATOM     20  C   UNL     1       1.545   3.767  19.305  0.00  0.00    +0.000 A 
ENDBRANCH  15  16
ENDBRANCH   6  15
TORSDOF 4
ENDMDL
MODEL 7
REMARK VINA RESULT:      -6.7      4.564      7.056
REMARK  Name = 
REMARK  4 active torsions:
REMARK  status: ('A' for Active; 'I' for Inactive)
REMARK    1  A    between atoms: C_2  and  O_3
REMARK    2  A    between atoms: C_2  and  C_4
REMARK    3  A    between atoms: C_9  and  C_10
REMARK    4  A    between atoms: C_10  and  N_11
REMARK                            x       y       z     vdW  Elec       q    Type
REMARK                         _______ _______ _______ _____ _____    ______ ____
ROOT
ATOM      1  C   UNL     1       1.972   4.079  18.993  0.00  0.00    +0.000 C 
ATOM      2  C   UNL     1       2.987   2.958  19.229  0.00  0.00    +0.000 C 
ATOM      3  C   UNL     1       3.861   2.756  17.991  0.00  0.00    +0.000 C 
ATOM      4  C   UNL     1       4.414   4.047  17.437  0.00  0.00    +0.000 A 
ATOM      5  C   UNL     1       5.510   4.003  16.558  0.00  0.00    +0.000 A 
ATOM      6  C   UNL     1       6.050   5.177  16.010  0.00  0.00    +0.000 A 
ATOM      7  C   UNL     1       5.447   6.402  16.315  0.00  0.00    +0.000 A 
ATOM      8  C   UNL     1       4.351   6.455  17.178  0.00  0.00    +0.000 A 
ATOM      9  C   UNL     1       3.825   5.286  17.745  0.00  0.00    +0.000 A 
ATOM     10  C   UNL     1       2.695   5.401  18.736  0.00  0.00    +0.000 C 
ENDROOT
BRANCH   1  12
ATOM     11  O   UNL     1       0.910   5.291  20.809  0.00  0.00    +0.000 OA
ATOM     12  C   UNL     1       1.062   4.249  20.190  0.00  0.00    +0.000 C 
BRANCH  12  13
ATOM     13  O   UNL     1       0.380   3.124  20.503  0.00  0.00    +0.000 OA
ATOM     14  H   UNL     1       0.839   2.293  20.275  0.00  0.00    +0.000 HD
ENDBRANCH  12  13
ENDBRANCH   1  12
BRANCH   6  15
ATOM     15  C   UNL     1       7.277   5.127  15.135  0.00  0.00    +0.000 C 
BRANCH  15  16
ATOM     16  N   UNL     1       6.989   4.651  13.795  0.00  0.00    +0.000 N 
ATOM     17  C   UNL     1       6.120   3.649  13.458  0.00  0.00    +0.000 A 
ATOM     18  C   UNL     1       6.307   3.456  12.110  0.00  0.00    +0.000 A 
ATOM     19  N   UNL     1       7.260   4.312  11.624  0.00  0.00    +0.000 NA
ATOM     20  C   UNL     1       7.655   5.016  12.659  0.00  0.00    +0.000 A 
ENDBRANCH  15  16
ENDBRANCH   6  15
TORSDOF 4
ENDMDL
MODEL 8
REMARK VINA RESULT:      -6.7      4.502      6.141
REMARK  Name = 
REMARK  4 active torsions:
REMARK  status: ('A' for Active; 'I' for Inactive)
REMARK    1  A    between atoms: C_2  and  O_3
REMARK    2  A    between atoms: C_2  and  C_4
REMARK    3  A    between atoms: C_9  and  C_10
REMARK    4  A    between atoms: C_10  and  N_11
REMARK                            x       y       z     vdW  Elec       q    Type
REMARK                         _______ _______ _______ _____ _____    ______ ____
ROOT
ATOM      1  C   UNL     1       3.414   4.521  19.018  0.00  0.00    +0.000 C 
ATOM      2  C   UNL     1       4.290   5.342  18.067  0.00  0.00    +0.000 C 
ATOM      3  C   UNL     1       3.481   6.479  17.442  0.00  0.00    +0.000 C 
ATOM      4  C   UNL     1       2.679   7.264  18.452  0.00  0.00    +0.000 A 
ATOM      5  C   UNL     1       2.198   8.538  18.106  0.00  0.00    +0.000 A 
ATOM      6  C   UNL     1       1.440   9.300  19.009  0.00  0.00    +0.000 A 
ATOM      7  C   UNL     1       1.125   8.748  20.255  0.00  0.00    +0.000 A 
ATOM      8  C   UNL     1       1.588   7.478  20.605  0.00  0.00    +0.000 A 
ATOM      9  C   UNL     1       2.366   6.727  19.713  0.00  0.00    +0.000 A 
ATOM     10  C   UNL     1       2.914   5.397  20.165  0.00  0.00    +0.000 C 
ENDROOT
BRANCH   1  12
ATOM     11  O   UNL     1       3.727   2.530  20.371  0.00  0.00    +0.000 OA
ATOM     12  C   UNL     1       4.187   3.356  19.598  0.00  0.00    +0.000 C 
BRANCH  12  13
ATOM     13  O   UNL     1       5.459   3.284  19.144  0.00  0.00    +0.000 OA
ATOM     14  H   UNL     1       5.571   3.531  18.207  0.00  0.00    +0.000 HD
ENDBRANCH  12  13
ENDBRANCH   1  12
BRANCH   6  15
ATOM     15  C   UNL     1       0.999  10.699  18.660  0.00  0.00    +0.000 C 
BRANCH  15  16
ATOM     16  N   UNL     1      -0.445  10.848  18.667  0.00  0.00    +0.000 N 
ATOM     17  C   UNL     1      -1.327  10.253  17.807  0.00  0.00    +0.000 A 
ATOM     18  C   UNL     1      -2.546  10.817  18.102  0.00  0.00    +0.000 A 
ATOM     19  N   UNL     1      -2.425  11.732  19.115  0.00  0.00    +0.000 NA
ATOM     20  C   UNL     1      -1.151  11.732  19.433  0.00  0.00    +0.000 A 
ENDBRANCH  15  16
ENDBRANCH   6  15
TORSDOF 4
ENDMDL
MODEL 9
REMARK VINA RESULT:      -6.6      5.404      7.599
REMARK  Name = 
REMARK  4 active torsions:
REMARK  status: ('A' for Active; 'I' for Inactive)
REMARK    1  A    between atoms: C_2  and  O_3
REMARK    2  A    between atoms: C_2  and  C_4
REMARK    3  A    between atoms: C_9  and  C_10
REMARK    4  A    between atoms: C_10  and  N_11
REMARK                            x       y       z     vdW  Elec       q    Type
REMARK                         _______ _______ _______ _____ _____    ______ ____
ROOT
ATOM      1  C   UNL     1       0.019  10.153  20.982  0.00  0.00    +0.000 C 
ATOM      2  C   UNL     1       0.829   9.355  22.007  0.00  0.00    +0.000 C 
ATOM      3  C   UNL     1       1.179   7.973  21.454  0.00  0.00    +0.000 C 
ATOM      4  C   UNL     1       1.739   8.017  20.052  0.00  0.00    +0.000 A 
ATOM      5  C   UNL     1       2.444   6.906  19.560  0.00  0.00    +0.000 A 
ATOM      6  C   UNL     1       2.973   6.898  18.260  0.00  0.00    +0.000 A 
ATOM      7  C   UNL     1       2.745   8.003  17.434  0.00  0.00    +0.000 A 
ATOM      8  C   UNL     1       2.035   9.107  17.909  0.00  0.00    +0.000 A 
ATOM      9  C   UNL     1       1.528   9.127  19.215  0.00  0.00    +0.000 A 
ATOM     10  C   UNL     1       0.842  10.374  19.713  0.00  0.00    +0.000 C 
ENDROOT
BRANCH   1  12
ATOM     11  O   UNL     1      -0.301  11.824  22.714  0.00  0.00    +0.000 OA
ATOM     12  C   UNL     1      -0.383  11.501  21.539  0.00  0.00    +0.000 C 
BRANCH  12  13
ATOM     13  O   UNL     1      -0.821  12.360  20.589  0.00  0.00    +0.000 OA
ATOM     14  H   UNL     1      -1.126  11.934  19.766  0.00  0.00    +0.000 HD
ENDBRANCH  12  13
ENDBRANCH   1  12
BRANCH   6  15
ATOM     15  C   UNL     1       3.799   5.735  17.769  0.00  0.00    +0.000 C 
BRANCH  15  16
ATOM     16  N   UNL     1       5.178   5.801  18.218  0.00  0.00    +0.000 N 
ATOM     17  C   UNL     1       6.220   6.388  17.555  0.00  0.00    +0.000 A 
ATOM     18  C   UNL     1       7.337   6.056  18.285  0.00  0.00    +0.000 A 
ATOM     19  N   UNL     1       6.999   5.288  19.369  0.00  0.00    +0.000 NA
ATOM     20  C   UNL     1       5.695   5.148  19.301  0.00  0.00    +0.000 A 
ENDBRANCH  15  16
ENDBRANCH   6  15
TORSDOF 4
ENDMDL
