MODEL 1
REMARK VINA RESULT:      -9.1      0.000      0.000
REMARK  Name = 
REMARK  8 active torsions:
REMARK  status: ('A' for Active; 'I' for Inactive)
REMARK    1  A    between atoms: C_1  and  C_2
REMARK    2  A    between atoms: C_4  and  N_5
REMARK    3  A    between atoms: C_8  and  N_9
REMARK    4  A    between atoms: N_9  and  C_10
REMARK    5  A    between atoms: C_11  and  C_13
REMARK    6  A    between atoms: C_13  and  C_14
REMARK    7  A    between atoms: C_14  and  S_15
REMARK    8  A    between atoms: S_15  and  C_18
REMARK                            x       y       z     vdW  Elec       q    Type
REMARK                         _______ _______ _______ _____ _____    ______ ____
ROOT
ATOM      1  N   UNL     1       1.440   8.558  20.306  0.00  0.00    +0.000 N 
ATOM      2  C   UNL     1       1.151   8.649  21.741  0.00  0.00    +0.000 C 
ATOM      3  C   UNL     1       2.056   7.387  19.833  0.00  0.00    +0.000 C 
ATOM      4  O   UNL     1       2.561   7.277  18.717  0.00  0.00    +0.000 OA
ENDROOT
BRANCH   1   8
ATOM      5  N   UNL     1      -1.051  10.174  18.207  0.00  0.00    +0.000 N 
ATOM      6  C   UNL     1      -0.954  10.389  19.648  0.00  0.00    +0.000 C 
ATOM      7  C   UNL     1       0.459  10.886  19.954  0.00  0.00    +0.000 C 
ATOM      8  C   UNL     1       1.505   9.833  19.511  0.00  0.00    +0.000 C 
ATOM      9  C   UNL     1       1.321   9.704  17.976  0.00  0.00    +0.000 C 
ATOM     10  C   UNL     1      -0.087   9.235  17.623  0.00  0.00    +0.000 C 
BRANCH   5  14
ATOM     11  C   UNL     1      -3.859  10.110  14.139  0.00  0.00    +0.000 C 
ATOM     12  C   UNL     1      -3.579  10.564  15.539  0.00  0.00    +0.000 A 
ATOM     13  C   UNL     1      -2.403  10.188  16.185  0.00  0.00    +0.000 A 
ATOM     14  C   UNL     1      -2.160  10.594  17.500  0.00  0.00    +0.000 A 
ATOM     15  C   UNL     1      -3.132  11.394  18.102  0.00  0.00    +0.000 A 
ATOM     16  C   UNL     1      -4.279  11.720  17.398  0.00  0.00    +0.000 A 
ATOM     17  N   UNL     1      -4.525  11.323  16.134  0.00  0.00    +0.000 NA
ENDBRANCH   5  14
ENDBRANCH   1   8
BRANCH   3  18
ATOM     18  C   UNL     1       2.079   6.192  20.769  0.00  0.00    +0.000 C 
BRANCH  18  19
ATOM     19  C   UNL     1       1.033   5.163  20.364  0.00  0.00    +0.000 C 
BRANCH  19  20
ATOM     20  S   UNL     1       1.760   3.551  20.286  0.00  0.00    +0.000 S 
ATOM     21  O   UNL     1       2.441   3.300  21.541  0.00  0.00    +0.000 OA
ATOM     22  O   UNL     1       0.755   2.627  19.799  0.00  0.00    +0.000 OA
BRANCH  20  23
ATOM     23  C   UNL     1       3.008   3.688  19.029  0.00  0.00    +0.000 A 
ATOM     24  C   UNL     1       2.668   3.477  17.695  0.00  0.00    +0.000 A 
ATOM     25  C   UNL     1       3.635   3.662  16.705  0.00  0.00    +0.000 A 
ATOM     26  C   UNL     1       4.954   4.073  17.019  0.00  0.00    +0.000 A 
ATOM     27  C   UNL     1       5.969   4.298  16.056  0.00  0.00    +0.000 A 
ATOM     28 CL   UNL     1       5.685   4.086  14.358  0.00  0.00    +0.000 Cl
ATOM     29  C   UNL     1       7.250   4.713  16.433  0.00  0.00    +0.000 A 
ATOM     30  C   UNL     1       7.549   4.913  17.775  0.00  0.00    +0.000 A 
ATOM     31  C   UNL     1       6.568   4.701  18.742  0.00  0.00    +0.000 A 
ATOM     32  C   UNL     1       5.275   4.285  18.386  0.00  0.00    +0.000 A 
ATOM     33  C   UNL     1       4.299   4.094  19.377  0.00  0.00    +0.000 A 
ENDBRANCH  20  23
ENDBRANCH  19  20
ENDBRANCH  18  19
ENDBRANCH   3  18
TORSDOF 6
ENDMDL
MODEL 2
REMARK VINA RESULT:      -8.4      1.400      1.679
REMARK  Name = 
REMARK  8 active torsions:
REMARK  status: ('A' for Active; 'I' for Inactive)
REMARK    1  A    between atoms: C_1  and  C_2
REMARK    2  A    between atoms: C_4  and  N_5
REMARK    3  A    between atoms: C_8  and  N_9
REMARK    4  A    between atoms: N_9  and  C_10
REMARK    5  A    between atoms: C_11  and  C_13
REMARK    6  A    between atoms: C_13  and  C_14
REMARK    7  A    between atoms: C_14  and  S_15
REMARK    8  A    between atoms: S_15  and  C_18
REMARK                            x       y       z     vdW  Elec       q    Type
REMARK                         _______ _______ _______ _____ _____    ______ ____
ROOT
ATOM      1  N   UNL     1       1.315   8.830  20.050  0.00  0.00    +0.000 N 
ATOM      2  C   UNL     1       1.153   8.974  21.501  0.00  0.00    +0.000 C 
ATOM      3  C   UNL     1       1.980   7.687  19.574  0.00  0.00    +0.000 C 
ATOM      4  O   UNL     1       2.388   7.558  18.421  0.00  0.00    +0.000 OA
ENDROOT
BRANCH   1   8
ATOM      5  N   UNL     1      -1.487  11.079  19.493  0.00  0.00    +0.000 N 
ATOM      6  C   UNL     1      -0.544  11.230  20.597  0.00  0.00    +0.000 C 
ATOM      7  C   UNL     1       0.861  11.339  20.002  0.00  0.00    +0.000 C 
ATOM      8  C   UNL     1       1.201  10.062  19.195  0.00  0.00    +0.000 C 
ATOM      9  C   UNL     1       0.155  10.018  18.050  0.00  0.00    +0.000 C 
ATOM     10  C   UNL     1      -1.266   9.936  18.600  0.00  0.00    +0.000 C 
BRANCH   5  14
ATOM     11  C   UNL     1      -5.915  12.025  17.510  0.00  0.00    +0.000 C 
ATOM     12  C   UNL     1      -4.861  12.256  18.549  0.00  0.00    +0.000 A 
ATOM     13  C   UNL     1      -3.641  11.586  18.483  0.00  0.00    +0.000 A 
ATOM     14  C   UNL     1      -2.673  11.787  19.470  0.00  0.00    +0.000 A 
ATOM     15  C   UNL     1      -2.985  12.691  20.486  0.00  0.00    +0.000 A 
ATOM     16  C   UNL     1      -4.223  13.314  20.487  0.00  0.00    +0.000 A 
ATOM     17  N   UNL     1      -5.166  13.117  19.544  0.00  0.00    +0.000 NA
ENDBRANCH   5  14
ENDBRANCH   1   8
BRANCH   3  18
ATOM     18  C   UNL     1       2.188   6.549  20.558  0.00  0.00    +0.000 C 
BRANCH  18  19
ATOM     19  C   UNL     1       1.067   5.524  20.448  0.00  0.00    +0.000 C 
BRANCH  19  20
ATOM     20  S   UNL     1       1.740   3.887  20.402  0.00  0.00    +0.000 S 
ATOM     21  O   UNL     1       2.444   3.652  21.649  0.00  0.00    +0.000 OA
ATOM     22  O   UNL     1       0.693   2.983  19.969  0.00  0.00    +0.000 OA
BRANCH  20  23
ATOM     23  C   UNL     1       2.960   3.945  19.112  0.00  0.00    +0.000 A 
ATOM     24  C   UNL     1       2.572   3.752  17.789  0.00  0.00    +0.000 A 
ATOM     25  C   UNL     1       3.521   3.875  16.772  0.00  0.00    +0.000 A 
ATOM     26  C   UNL     1       4.870   4.205  17.050  0.00  0.00    +0.000 A 
ATOM     27  C   UNL     1       5.871   4.365  16.059  0.00  0.00    +0.000 A 
ATOM     28 CL   UNL     1       5.530   4.168  14.370  0.00  0.00    +0.000 Cl
ATOM     29  C   UNL     1       7.185   4.702  16.400  0.00  0.00    +0.000 A 
ATOM     30  C   UNL     1       7.532   4.886  17.734  0.00  0.00    +0.000 A 
ATOM     31  C   UNL     1       6.566   4.737  18.727  0.00  0.00    +0.000 A 
ATOM     32  C   UNL     1       5.241   4.401  18.406  0.00  0.00    +0.000 A 
ATOM     33  C   UNL     1       4.281   4.271  19.424  0.00  0.00    +0.000 A 
ENDBRANCH  20  23
ENDBRANCH  19  20
ENDBRANCH  18  19
ENDBRANCH   3  18
TORSDOF 6
ENDMDL
MODEL 3
REMARK VINA RESULT:      -8.1      0.974      1.525
REMARK  Name = 
REMARK  8 active torsions:
REMARK  status: ('A' for Active; 'I' for Inactive)
REMARK    1  A    between atoms: C_1  and  C_2
REMARK    2  A    between atoms: C_4  and  N_5
REMARK    3  A    between atoms: C_8  and  N_9
REMARK    4  A    between atoms: N_9  and  C_10
REMARK    5  A    between atoms: C_11  and  C_13
REMARK    6  A    between atoms: C_13  and  C_14
REMARK    7  A    between atoms: C_14  and  S_15
REMARK    8  A    between atoms: S_15  and  C_18
REMARK                            x       y       z     vdW  Elec       q    Type
REMARK                         _______ _______ _______ _____ _____    ______ ____
ROOT
ATOM      1  N   UNL     1       1.403   8.402  20.325  0.00  0.00    +0.000 N 
ATOM      2  C   UNL     1       1.086   8.371  21.756  0.00  0.00    +0.000 C 
ATOM      3  C   UNL     1       2.049   7.284  19.770  0.00  0.00    +0.000 C 
ATOM      4  O   UNL     1       2.576   7.275  18.659  0.00  0.00    +0.000 OA
ENDROOT
BRANCH   1   8
ATOM      5  N   UNL     1      -1.055  10.119  18.268  0.00  0.00    +0.000 N 
ATOM      6  C   UNL     1      -1.018  10.218  19.724  0.00  0.00    +0.000 C 
ATOM      7  C   UNL     1       0.369  10.725  20.123  0.00  0.00    +0.000 C 
ATOM      8  C   UNL     1       1.460   9.739  19.638  0.00  0.00    +0.000 C 
ATOM      9  C   UNL     1       1.336   9.731  18.091  0.00  0.00    +0.000 C 
ATOM     10  C   UNL     1      -0.044   9.256  17.648  0.00  0.00    +0.000 C 
BRANCH   5  14
ATOM     11  C   UNL     1      -3.835  10.133  14.180  0.00  0.00    +0.000 C 
ATOM     12  C   UNL     1      -3.555  10.575  15.583  0.00  0.00    +0.000 A 
ATOM     13  C   UNL     1      -2.392  10.171  16.236  0.00  0.00    +0.000 A 
ATOM     14  C   UNL     1      -2.150  10.566  17.554  0.00  0.00    +0.000 A 
ATOM     15  C   UNL     1      -3.108  11.386  18.153  0.00  0.00    +0.000 A 
ATOM     16  C   UNL     1      -4.243  11.739  17.441  0.00  0.00    +0.000 A 
ATOM     17  N   UNL     1      -4.488  11.353  16.174  0.00  0.00    +0.000 NA
ENDBRANCH   5  14
ENDBRANCH   1   8
BRANCH   3  18
ATOM     18  C   UNL     1       2.076   6.017  20.606  0.00  0.00    +0.000 C 
BRANCH  18  19
ATOM     19  C   UNL     1       0.905   5.109  20.255  0.00  0.00    +0.000 C 
BRANCH  19  20
ATOM     20  S   UNL     1       1.497   3.535  19.702  0.00  0.00    +0.000 S 
ATOM     21  O   UNL     1       1.741   2.707  20.868  0.00  0.00    +0.000 OA
ATOM     22  O   UNL     1       0.622   3.072  18.643  0.00  0.00    +0.000 OA
BRANCH  20  23
ATOM     23  C   UNL     1       3.076   3.889  18.968  0.00  0.00    +0.000 A 
ATOM     24  C   UNL     1       4.217   3.907  19.766  0.00  0.00    +0.000 A 
ATOM     25  C   UNL     1       5.464   4.109  19.173  0.00  0.00    +0.000 A 
ATOM     26  C   UNL     1       5.603   4.285  17.774  0.00  0.00    +0.000 A 
ATOM     27  C   UNL     1       6.844   4.472  17.114  0.00  0.00    +0.000 A 
ATOM     28 CL   UNL     1       8.347   4.502  17.978  0.00  0.00    +0.000 Cl
ATOM     29  C   UNL     1       6.912   4.629  15.726  0.00  0.00    +0.000 A 
ATOM     30  C   UNL     1       5.749   4.606  14.965  0.00  0.00    +0.000 A 
ATOM     31  C   UNL     1       4.517   4.422  15.589  0.00  0.00    +0.000 A 
ATOM     32  C   UNL     1       4.426   4.260  16.981  0.00  0.00    +0.000 A 
ATOM     33  C   UNL     1       3.174   4.059  17.586  0.00  0.00    +0.000 A 
ENDBRANCH  20  23
ENDBRANCH  19  20
ENDBRANCH  18  19
ENDBRANCH   3  18
TORSDOF 6
ENDMDL
MODEL 4
REMARK VINA RESULT:      -7.8      1.871      2.559
REMARK  Name = 
REMARK  8 active torsions:
REMARK  status: ('A' for Active; 'I' for Inactive)
REMARK    1  A    between atoms: C_1  and  C_2
REMARK    2  A    between atoms: C_4  and  N_5
REMARK    3  A    between atoms: C_8  and  N_9
REMARK    4  A    between atoms: N_9  and  C_10
REMARK    5  A    between atoms: C_11  and  C_13
REMARK    6  A    between atoms: C_13  and  C_14
REMARK    7  A    between atoms: C_14  and  S_15
REMARK    8  A    between atoms: S_15  and  C_18
REMARK                            x       y       z     vdW  Elec       q    Type
REMARK                         _______ _______ _______ _____ _____    ______ ____
ROOT
ATOM      1  N   UNL     1       1.337   8.782  19.796  0.00  0.00    +0.000 N 
ATOM      2  C   UNL     1       1.198   9.026  21.236  0.00  0.00    +0.000 C 
ATOM      3  C   UNL     1       1.998   7.611  19.390  0.00  0.00    +0.000 C 
ATOM      4  O   UNL     1       2.387   7.403  18.242  0.00  0.00    +0.000 OA
ENDROOT
BRANCH   1   8
ATOM      5  N   UNL     1      -0.905  11.644  19.878  0.00  0.00    +0.000 N 
ATOM      6  C   UNL     1       0.377  11.608  20.576  0.00  0.00    +0.000 C 
ATOM      7  C   UNL     1       1.466  11.317  19.542  0.00  0.00    +0.000 C 
ATOM      8  C   UNL     1       1.204   9.952  18.860  0.00  0.00    +0.000 C 
ATOM      9  C   UNL     1      -0.161  10.115  18.142  0.00  0.00    +0.000 C 
ATOM     10  C   UNL     1      -1.275  10.434  19.135  0.00  0.00    +0.000 C 
BRANCH   5  14
ATOM     11  C   UNL     1      -5.561  13.091  20.692  0.00  0.00    +0.000 C 
ATOM     12  C   UNL     1      -4.094  13.374  20.582  0.00  0.00    +0.000 A 
ATOM     13  C   UNL     1      -3.202  12.366  20.221  0.00  0.00    +0.000 A 
ATOM     14  C   UNL     1      -1.832  12.631  20.146  0.00  0.00    +0.000 A 
ATOM     15  C   UNL     1      -1.426  13.937  20.426  0.00  0.00    +0.000 A 
ATOM     16  C   UNL     1      -2.373  14.882  20.786  0.00  0.00    +0.000 A 
ATOM     17  N   UNL     1      -3.694  14.631  20.871  0.00  0.00    +0.000 NA
ENDBRANCH   5  14
ENDBRANCH   1   8
BRANCH   3  18
ATOM     18  C   UNL     1       2.226   6.544  20.446  0.00  0.00    +0.000 C 
BRANCH  18  19
ATOM     19  C   UNL     1       1.090   5.529  20.448  0.00  0.00    +0.000 C 
BRANCH  19  20
ATOM     20  S   UNL     1       1.741   3.885  20.382  0.00  0.00    +0.000 S 
ATOM     21  O   UNL     1       2.446   3.626  21.623  0.00  0.00    +0.000 OA
ATOM     22  O   UNL     1       0.682   2.999  19.941  0.00  0.00    +0.000 OA
BRANCH  20  23
ATOM     23  C   UNL     1       2.958   3.942  19.088  0.00  0.00    +0.000 A 
ATOM     24  C   UNL     1       2.562   3.782  17.764  0.00  0.00    +0.000 A 
ATOM     25  C   UNL     1       3.510   3.904  16.746  0.00  0.00    +0.000 A 
ATOM     26  C   UNL     1       4.867   4.201  17.025  0.00  0.00    +0.000 A 
ATOM     27  C   UNL     1       5.868   4.359  16.034  0.00  0.00    +0.000 A 
ATOM     28 CL   UNL     1       5.517   4.201  14.343  0.00  0.00    +0.000 Cl
ATOM     29  C   UNL     1       7.189   4.662  16.377  0.00  0.00    +0.000 A 
ATOM     30  C   UNL     1       7.544   4.814  17.712  0.00  0.00    +0.000 A 
ATOM     31  C   UNL     1       6.579   4.666  18.706  0.00  0.00    +0.000 A 
ATOM     32  C   UNL     1       5.246   4.363  18.384  0.00  0.00    +0.000 A 
ATOM     33  C   UNL     1       4.287   4.235  19.402  0.00  0.00    +0.000 A 
ENDBRANCH  20  23
ENDBRANCH  19  20
ENDBRANCH  18  19
ENDBRANCH   3  18
TORSDOF 6
ENDMDL
MODEL 5
REMARK VINA RESULT:      -7.7      7.227     10.309
REMARK  Name = 
REMARK  8 active torsions:
REMARK  status: ('A' for Active; 'I' for Inactive)
REMARK    1  A    between atoms: C_1  and  C_2
REMARK    2  A    between atoms: C_4  and  N_5
REMARK    3  A    between atoms: C_8  and  N_9
REMARK    4  A    between atoms: N_9  and  C_10
REMARK    5  A    between atoms: C_11  and  C_13
REMARK    6  A    between atoms: C_13  and  C_14
REMARK    7  A    between atoms: C_14  and  S_15
REMARK    8  A    between atoms: S_15  and  C_18
REMARK                            x       y       z     vdW  Elec       q    Type
REMARK                         _______ _______ _______ _____ _____    ______ ____
ROOT
ATOM      1  N   UNL     1       7.788   6.917  17.798  0.00  0.00    +0.000 N 
ATOM      2  C   UNL     1       8.115   6.313  19.094  0.00  0.00    +0.000 C 
ATOM      3  C   UNL     1       7.834   8.318  17.697  0.00  0.00    +0.000 C 
ATOM      4  O   UNL     1       7.362   8.956  16.757  0.00  0.00    +0.000 OA
ENDROOT
BRANCH   1   8
ATOM      5  N   UNL     1       4.698   5.046  18.209  0.00  0.00    +0.000 N 
ATOM      6  C   UNL     1       4.737   6.468  17.881  0.00  0.00    +0.000 C 
ATOM      7  C   UNL     1       5.556   6.630  16.599  0.00  0.00    +0.000 C 
ATOM      8  C   UNL     1       6.996   6.103  16.813  0.00  0.00    +0.000 C 
ATOM      9  C   UNL     1       6.829   4.594  17.134  0.00  0.00    +0.000 C 
ATOM     10  C   UNL     1       5.994   4.384  18.394  0.00  0.00    +0.000 C 
BRANCH   5  14
ATOM     11  C   UNL     1       1.911   2.904  21.685  0.00  0.00    +0.000 C 
ATOM     12  C   UNL     1       2.115   3.420  20.293  0.00  0.00    +0.000 A 
ATOM     13  C   UNL     1       3.347   3.940  19.903  0.00  0.00    +0.000 A 
ATOM     14  C   UNL     1       3.522   4.443  18.611  0.00  0.00    +0.000 A 
ATOM     15  C   UNL     1       2.424   4.374  17.753  0.00  0.00    +0.000 A 
ATOM     16  C   UNL     1       1.228   3.850  18.217  0.00  0.00    +0.000 A 
ATOM     17  N   UNL     1       1.049   3.373  19.465  0.00  0.00    +0.000 NA
ENDBRANCH   5  14
ENDBRANCH   1   8
BRANCH   3  18
ATOM     18  C   UNL     1       8.523   9.070  18.822  0.00  0.00    +0.000 C 
BRANCH  18  19
ATOM     19  C   UNL     1       9.058  10.409  18.332  0.00  0.00    +0.000 C 
BRANCH  19  20
ATOM     20  S   UNL     1       9.908  11.242  19.643  0.00  0.00    +0.000 S 
ATOM     21  O   UNL     1       9.322  10.823  20.902  0.00  0.00    +0.000 OA
ATOM     22  O   UNL     1      11.333  11.104  19.415  0.00  0.00    +0.000 OA
BRANCH  20  23
ATOM     23  C   UNL     1       9.499  12.957  19.417  0.00  0.00    +0.000 A 
ATOM     24  C   UNL     1       8.562  13.556  20.254  0.00  0.00    +0.000 A 
ATOM     25  C   UNL     1       8.301  14.922  20.122  0.00  0.00    +0.000 A 
ATOM     26  C   UNL     1       8.975  15.719  19.164  0.00  0.00    +0.000 A 
ATOM     27  C   UNL     1       8.768  17.112  18.999  0.00  0.00    +0.000 A 
ATOM     28 CL   UNL     1       7.643  17.994  19.980  0.00  0.00    +0.000 Cl
ATOM     29  C   UNL     1       9.475  17.843  18.040  0.00  0.00    +0.000 A 
ATOM     30  C   UNL     1      10.402  17.206  17.223  0.00  0.00    +0.000 A 
ATOM     31  C   UNL     1      10.626  15.839  17.366  0.00  0.00    +0.000 A 
ATOM     32  C   UNL     1       9.928  15.085  18.324  0.00  0.00    +0.000 A 
ATOM     33  C   UNL     1      10.183  13.710  18.461  0.00  0.00    +0.000 A 
ENDBRANCH  20  23
ENDBRANCH  19  20
ENDBRANCH  18  19
ENDBRANCH   3  18
TORSDOF 6
ENDMDL
MODEL 6
REMARK VINA RESULT:      -7.6      6.086      9.086
REMARK  Name = 
REMARK  8 active torsions:
REMARK  status: ('A' for Active; 'I' for Inactive)
REMARK    1  A    between atoms: C_1  and  C_2
REMARK    2  A    between atoms: C_4  and  N_5
REMARK    3  A    between atoms: C_8  and  N_9
REMARK    4  A    between atoms: N_9  and  C_10
REMARK    5  A    between atoms: C_11  and  C_13
REMARK    6  A    between atoms: C_13  and  C_14
REMARK    7  A    between atoms: C_14  and  S_15
REMARK    8  A    between atoms: S_15  and  C_18
REMARK                            x       y       z     vdW  Elec       q    Type
REMARK                         _______ _______ _______ _____ _____    ______ ____
ROOT
ATOM      1  N   UNL     1       1.259  11.528  19.743  0.00  0.00    +0.000 N 
ATOM      2  C   UNL     1       0.920  12.023  21.080  0.00  0.00    +0.000 C 
ATOM      3  C   UNL     1       2.009  12.368  18.901  0.00  0.00    +0.000 C 
ATOM      4  O   UNL     1       2.156  12.180  17.695  0.00  0.00    +0.000 OA
ENDROOT
BRANCH   1   8
ATOM      5  N   UNL     1       1.921   7.957  19.570  0.00  0.00    +0.000 N 
ATOM      6  C   UNL     1       1.292   8.601  20.718  0.00  0.00    +0.000 C 
ATOM      7  C   UNL     1       0.047   9.336  20.219  0.00  0.00    +0.000 C 
ATOM      8  C   UNL     1       0.440  10.404  19.170  0.00  0.00    +0.000 C 
ATOM      9  C   UNL     1       1.074   9.607  18.001  0.00  0.00    +0.000 C 
ATOM     10  C   UNL     1       2.308   8.836  18.461  0.00  0.00    +0.000 C 
BRANCH   5  14
ATOM     11  C   UNL     1       1.661   3.380  21.420  0.00  0.00    +0.000 C 
ATOM     12  C   UNL     1       2.274   4.399  20.509  0.00  0.00    +0.000 A 
ATOM     13  C   UNL     1       1.831   5.720  20.523  0.00  0.00    +0.000 A 
ATOM     14  C   UNL     1       2.389   6.660  19.652  0.00  0.00    +0.000 A 
ATOM     15  C   UNL     1       3.405   6.211  18.806  0.00  0.00    +0.000 A 
ATOM     16  C   UNL     1       3.786   4.880  18.846  0.00  0.00    +0.000 A 
ATOM     17  N   UNL     1       3.244   3.966  19.675  0.00  0.00    +0.000 NA
ENDBRANCH   5  14
ENDBRANCH   1   8
BRANCH   3  18
ATOM     18  C   UNL     1       2.678  13.570  19.544  0.00  0.00    +0.000 C 
BRANCH  18  19
ATOM     19  C   UNL     1       2.838  14.704  18.541  0.00  0.00    +0.000 C 
BRANCH  19  20
ATOM     20  S   UNL     1       3.955  15.924  19.171  0.00  0.00    +0.000 S 
ATOM     21  O   UNL     1       3.958  17.051  18.258  0.00  0.00    +0.000 OA
ATOM     22  O   UNL     1       3.661  16.119  20.577  0.00  0.00    +0.000 OA
BRANCH  20  23
ATOM     23  C   UNL     1       5.555  15.157  19.065  0.00  0.00    +0.000 A 
ATOM     24  C   UNL     1       6.013  14.689  17.836  0.00  0.00    +0.000 A 
ATOM     25  C   UNL     1       7.301  14.157  17.744  0.00  0.00    +0.000 A 
ATOM     26  C   UNL     1       8.162  14.092  18.867  0.00  0.00    +0.000 A 
ATOM     27  C   UNL     1       9.485  13.584  18.828  0.00  0.00    +0.000 A 
ATOM     28 CL   UNL     1      10.192  12.980  17.365  0.00  0.00    +0.000 Cl
ATOM     29  C   UNL     1      10.287  13.558  19.973  0.00  0.00    +0.000 A 
ATOM     30  C   UNL     1       9.791  14.034  21.181  0.00  0.00    +0.000 A 
ATOM     31  C   UNL     1       8.495  14.541  21.246  0.00  0.00    +0.000 A 
ATOM     32  C   UNL     1       7.673  14.578  20.108  0.00  0.00    +0.000 A 
ATOM     33  C   UNL     1       6.375  15.109  20.194  0.00  0.00    +0.000 A 
ENDBRANCH  20  23
ENDBRANCH  19  20
ENDBRANCH  18  19
ENDBRANCH   3  18
TORSDOF 6
ENDMDL
MODEL 7
REMARK VINA RESULT:      -7.5      2.232      3.358
REMARK  Name = 
REMARK  8 active torsions:
REMARK  status: ('A' for Active; 'I' for Inactive)
REMARK    1  A    between atoms: C_1  and  C_2
REMARK    2  A    between atoms: C_4  and  N_5
REMARK    3  A    between atoms: C_8  and  N_9
REMARK    4  A    between atoms: N_9  and  C_10
REMARK    5  A    between atoms: C_11  and  C_13
REMARK    6  A    between atoms: C_13  and  C_14
REMARK    7  A    between atoms: C_14  and  S_15
REMARK    8  A    between atoms: S_15  and  C_18
REMARK                            x       y       z     vdW  Elec       q    Type
REMARK                         _______ _______ _______ _____ _____    ______ ____
ROOT
ATOM      1  N   UNL     1       1.844   8.198  19.331  0.00  0.00    +0.000 N 
ATOM      2  C   UNL     1       1.716   7.404  20.557  0.00  0.00    +0.000 C 
ATOM      3  C   UNL     1       2.507   7.615  18.238  0.00  0.00    +0.000 C 
ATOM      4  O   UNL     1       2.887   8.241  17.250  0.00  0.00    +0.000 OA
ENDROOT
BRANCH   1   8
ATOM      5  N   UNL     1      -1.095  10.319  19.043  0.00  0.00    +0.000 N 
ATOM      6  C   UNL     1      -0.674   9.697  20.295  0.00  0.00    +0.000 C 
ATOM      7  C   UNL     1       0.761  10.140  20.580  0.00  0.00    +0.000 C 
ATOM      8  C   UNL     1       1.698   9.691  19.432  0.00  0.00    +0.000 C 
ATOM      9  C   UNL     1       1.170  10.424  18.171  0.00  0.00    +0.000 C 
ATOM     10  C   UNL     1      -0.272  10.031  17.864  0.00  0.00    +0.000 C 
BRANCH   5  14
ATOM     11  C   UNL     1      -4.485  13.630  20.451  0.00  0.00    +0.000 C 
ATOM     12  C   UNL     1      -4.018  12.522  19.558  0.00  0.00    +0.000 A 
ATOM     13  C   UNL     1      -2.785  11.909  19.773  0.00  0.00    +0.000 A 
ATOM     14  C   UNL     1      -2.345  10.893  18.921  0.00  0.00    +0.000 A 
ATOM     15  C   UNL     1      -3.202  10.526  17.882  0.00  0.00    +0.000 A 
ATOM     16  C   UNL     1      -4.409  11.187  17.728  0.00  0.00    +0.000 A 
ATOM     17  N   UNL     1      -4.836  12.175  18.540  0.00  0.00    +0.000 NA
ENDBRANCH   5  14
ENDBRANCH   1   8
BRANCH   3  18
ATOM     18  C   UNL     1       2.748   6.117  18.294  0.00  0.00    +0.000 C 
BRANCH  18  19
ATOM     19  C   UNL     1       4.081   5.805  18.961  0.00  0.00    +0.000 C 
BRANCH  19  20
ATOM     20  S   UNL     1       4.660   4.212  18.454  0.00  0.00    +0.000 S 
ATOM     21  O   UNL     1       5.673   3.777  19.395  0.00  0.00    +0.000 OA
ATOM     22  O   UNL     1       3.505   3.379  18.182  0.00  0.00    +0.000 OA
BRANCH  20  23
ATOM     23  C   UNL     1       5.476   4.510  16.903  0.00  0.00    +0.000 A 
ATOM     24  C   UNL     1       6.597   5.334  16.864  0.00  0.00    +0.000 A 
ATOM     25  C   UNL     1       7.280   5.503  15.658  0.00  0.00    +0.000 A 
ATOM     26  C   UNL     1       6.869   4.847  14.471  0.00  0.00    +0.000 A 
ATOM     27  C   UNL     1       7.534   4.963  13.225  0.00  0.00    +0.000 A 
ATOM     28 CL   UNL     1       8.951   5.944  13.030  0.00  0.00    +0.000 Cl
ATOM     29  C   UNL     1       7.081   4.279  12.092  0.00  0.00    +0.000 A 
ATOM     30  C   UNL     1       5.956   3.467  12.174  0.00  0.00    +0.000 A 
ATOM     31  C   UNL     1       5.285   3.333  13.388  0.00  0.00    +0.000 A 
ATOM     32  C   UNL     1       5.724   4.010  14.538  0.00  0.00    +0.000 A 
ATOM     33  C   UNL     1       5.040   3.847  15.754  0.00  0.00    +0.000 A 
ENDBRANCH  20  23
ENDBRANCH  19  20
ENDBRANCH  18  19
ENDBRANCH   3  18
TORSDOF 6
ENDMDL
MODEL 8
REMARK VINA RESULT:      -7.5      3.054      4.360
REMARK  Name = 
REMARK  8 active torsions:
REMARK  status: ('A' for Active; 'I' for Inactive)
REMARK    1  A    between atoms: C_1  and  C_2
REMARK    2  A    between atoms: C_4  and  N_5
REMARK    3  A    between atoms: C_8  and  N_9
REMARK    4  A    between atoms: N_9  and  C_10
REMARK    5  A    between atoms: C_11  and  C_13
REMARK    6  A    between atoms: C_13  and  C_14
REMARK    7  A    between atoms: C_14  and  S_15
REMARK    8  A    between atoms: S_15  and  C_18
REMARK                            x       y       z     vdW  Elec       q    Type
REMARK                         _______ _______ _______ _____ _____    ______ ____
ROOT
ATOM      1  N   UNL     1       0.989   9.446  19.506  0.00  0.00    +0.000 N 
ATOM      2  C   UNL     1       1.346   9.137  18.118  0.00  0.00    +0.000 C 
ATOM      3  C   UNL     1       1.116   8.422  20.460  0.00  0.00    +0.000 C 
ATOM      4  O   UNL     1       0.635   8.472  21.591  0.00  0.00    +0.000 OA
ENDROOT
BRANCH   1   8
ATOM      5  N   UNL     1       1.734  13.003  19.613  0.00  0.00    +0.000 N 
ATOM      6  C   UNL     1       1.402  12.289  18.384  0.00  0.00    +0.000 C 
ATOM      7  C   UNL     1       0.039  11.625  18.581  0.00  0.00    +0.000 C 
ATOM      8  C   UNL     1       0.096  10.628  19.765  0.00  0.00    +0.000 C 
ATOM      9  C   UNL     1       0.434  11.495  21.006  0.00  0.00    +0.000 C 
ATOM     10  C   UNL     1       1.777  12.200  20.840  0.00  0.00    +0.000 C 
BRANCH   5  14
ATOM     11  C   UNL     1       2.754  17.182  17.178  0.00  0.00    +0.000 C 
ATOM     12  C   UNL     1       2.748  16.353  18.425  0.00  0.00    +0.000 A 
ATOM     13  C   UNL     1       2.288  15.038  18.401  0.00  0.00    +0.000 A 
ATOM     14  C   UNL     1       2.262  14.279  19.574  0.00  0.00    +0.000 A 
ATOM     15  C   UNL     1       2.731  14.895  20.735  0.00  0.00    +0.000 A 
ATOM     16  C   UNL     1       3.165  16.209  20.681  0.00  0.00    +0.000 A 
ATOM     17  N   UNL     1       3.184  16.951  19.556  0.00  0.00    +0.000 NA
ENDBRANCH   5  14
ENDBRANCH   1   8
BRANCH   3  18
ATOM     18  C   UNL     1       1.910   7.193  20.053  0.00  0.00    +0.000 C 
BRANCH  18  19
ATOM     19  C   UNL     1       2.045   6.223  21.219  0.00  0.00    +0.000 C 
BRANCH  19  20
ATOM     20  S   UNL     1       1.889   4.555  20.646  0.00  0.00    +0.000 S 
ATOM     21  O   UNL     1       2.321   3.669  21.710  0.00  0.00    +0.000 OA
ATOM     22  O   UNL     1       0.575   4.404  20.054  0.00  0.00    +0.000 OA
BRANCH  20  23
ATOM     23  C   UNL     1       3.081   4.424  19.335  0.00  0.00    +0.000 A 
ATOM     24  C   UNL     1       2.663   4.057  18.059  0.00  0.00    +0.000 A 
ATOM     25  C   UNL     1       3.590   4.030  17.016  0.00  0.00    +0.000 A 
ATOM     26  C   UNL     1       4.948   4.380  17.218  0.00  0.00    +0.000 A 
ATOM     27  C   UNL     1       5.929   4.392  16.194  0.00  0.00    +0.000 A 
ATOM     28 CL   UNL     1       5.549   3.972  14.556  0.00  0.00    +0.000 Cl
ATOM     29  C   UNL     1       7.252   4.758  16.460  0.00  0.00    +0.000 A 
ATOM     30  C   UNL     1       7.630   5.117  17.748  0.00  0.00    +0.000 A 
ATOM     31  C   UNL     1       6.685   5.116  18.772  0.00  0.00    +0.000 A 
ATOM     32  C   UNL     1       5.350   4.753  18.528  0.00  0.00    +0.000 A 
ATOM     33  C   UNL     1       4.412   4.775  19.573  0.00  0.00    +0.000 A 
ENDBRANCH  20  23
ENDBRANCH  19  20
ENDBRANCH  18  19
ENDBRANCH   3  18
TORSDOF 6
ENDMDL
MODEL 9
REMARK VINA RESULT:      -7.5      2.113      2.872
REMARK  Name = 
REMARK  8 active torsions:
REMARK  status: ('A' for Active; 'I' for Inactive)
REMARK    1  A    between atoms: C_1  and  C_2
REMARK    2  A    between atoms: C_4  and  N_5
REMARK    3  A    between atoms: C_8  and  N_9
REMARK    4  A    between atoms: N_9  and  C_10
REMARK    5  A    between atoms: C_11  and  C_13
REMARK    6  A    between atoms: C_13  and  C_14
REMARK    7  A    between atoms: C_14  and  S_15
REMARK    8  A    between atoms: S_15  and  C_18
REMARK                            x       y       z     vdW  Elec       q    Type
REMARK                         _______ _______ _______ _____ _____    ______ ____
ROOT
ATOM      1  N   UNL     1       1.363   8.716  19.897  0.00  0.00    +0.000 N 
ATOM      2  C   UNL     1       1.223   8.964  21.336  0.00  0.00    +0.000 C 
ATOM      3  C   UNL     1       2.002   7.531  19.494  0.00  0.00    +0.000 C 
ATOM      4  O   UNL     1       2.391   7.315  18.348  0.00  0.00    +0.000 OA
ENDROOT
BRANCH   1   8
ATOM      5  N   UNL     1      -0.627  11.752  20.106  0.00  0.00    +0.000 N 
ATOM      6  C   UNL     1       0.695  11.615  20.712  0.00  0.00    +0.000 C 
ATOM      7  C   UNL     1       1.679  11.230  19.606  0.00  0.00    +0.000 C 
ATOM      8  C   UNL     1       1.259   9.887  18.960  0.00  0.00    +0.000 C 
ATOM      9  C   UNL     1      -0.137  10.158  18.339  0.00  0.00    +0.000 C 
ATOM     10  C   UNL     1      -1.147  10.573  19.406  0.00  0.00    +0.000 C 
BRANCH   5  14
ATOM     11  C   UNL     1      -1.524  16.608  20.336  0.00  0.00    +0.000 C 
ATOM     12  C   UNL     1      -1.939  15.181  20.527  0.00  0.00    +0.000 A 
ATOM     13  C   UNL     1      -1.046  14.142  20.274  0.00  0.00    +0.000 A 
ATOM     14  C   UNL     1      -1.449  12.813  20.429  0.00  0.00    +0.000 A 
ATOM     15  C   UNL     1      -2.758  12.598  20.862  0.00  0.00    +0.000 A 
ATOM     16  C   UNL     1      -3.590  13.683  21.086  0.00  0.00    +0.000 A 
ATOM     17  N   UNL     1      -3.211  14.967  20.928  0.00  0.00    +0.000 NA
ENDBRANCH   5  14
ENDBRANCH   1   8
BRANCH   3  18
ATOM     18  C   UNL     1       2.203   6.460  20.552  0.00  0.00    +0.000 C 
BRANCH  18  19
ATOM     19  C   UNL     1       1.099   5.413  20.483  0.00  0.00    +0.000 C 
BRANCH  19  20
ATOM     20  S   UNL     1       1.801   3.790  20.414  0.00  0.00    +0.000 S 
ATOM     21  O   UNL     1       2.538   3.562  21.642  0.00  0.00    +0.000 OA
ATOM     22  O   UNL     1       0.762   2.868  20.000  0.00  0.00    +0.000 OA
BRANCH  20  23
ATOM     23  C   UNL     1       2.989   3.877  19.095  0.00  0.00    +0.000 A 
ATOM     24  C   UNL     1       2.564   3.743  17.776  0.00  0.00    +0.000 A 
ATOM     25  C   UNL     1       3.490   3.890  16.741  0.00  0.00    +0.000 A 
ATOM     26  C   UNL     1       4.852   4.184  16.996  0.00  0.00    +0.000 A 
ATOM     27  C   UNL     1       5.831   4.365  15.987  0.00  0.00    +0.000 A 
ATOM     28 CL   UNL     1       5.443   4.241  14.301  0.00  0.00    +0.000 Cl
ATOM     29  C   UNL     1       7.158   4.664  16.307  0.00  0.00    +0.000 A 
ATOM     30  C   UNL     1       7.542   4.788  17.637  0.00  0.00    +0.000 A 
ATOM     31  C   UNL     1       6.599   4.617  18.649  0.00  0.00    +0.000 A 
ATOM     32  C   UNL     1       5.260   4.318  18.350  0.00  0.00    +0.000 A 
ATOM     33  C   UNL     1       4.324   4.166  19.386  0.00  0.00    +0.000 A 
ENDBRANCH  20  23
ENDBRANCH  19  20
ENDBRANCH  18  19
ENDBRANCH   3  18
TORSDOF 6
ENDMDL
