MODEL 1
REMARK VINA RESULT:      -7.8      0.000      0.000
REMARK  Name = 
REMARK  10 active torsions:
REMARK  status: ('A' for Active; 'I' for Inactive)
REMARK    1  A    between atoms: C_1  and  O_2
REMARK    2  A    between atoms: O_2  and  C_3
REMARK    3  A    between atoms: C_6  and  O_7
REMARK    4  A    between atoms: O_7  and  C_8
REMARK    5  A    between atoms: C_9  and  C_10
REMARK    6  A    between atoms: C_10  and  O_11
REMARK    7  A    between atoms: O_11  and  C_12
REMARK    8  A    between atoms: C_12  and  C_14
REMARK    9  A    between atoms: C_16  and  N_17
REMARK   10  A    between atoms: C_22  and  N_23
REMARK                            x       y       z     vdW  Elec       q    Type
REMARK                         _______ _______ _______ _____ _____    ______ ____
ROOT
ATOM      1  C   UNL     1       3.518   6.258  18.350  0.00  0.00    +0.000 A 
ATOM      2  C   UNL     1       4.550   6.628  17.463  0.00  0.00    +0.000 A 
ATOM      3  C   UNL     1       5.499   5.704  17.056  0.00  0.00    +0.000 A 
ATOM      4  C   UNL     1       5.480   4.408  17.560  0.00  0.00    +0.000 A 
ATOM      5  C   UNL     1       4.464   4.051  18.444  0.00  0.00    +0.000 A 
ATOM      6  C   UNL     1       3.436   4.928  18.835  0.00  0.00    +0.000 A 
ENDROOT
BRANCH   6   7
ATOM      7  N   UNL     1       2.433   4.441  19.658  0.00  0.00    +0.000 N 
ATOM      8  C   UNL     1       2.431   4.537  21.133  0.00  0.00    +0.000 C 
ATOM      9  C   UNL     1       2.132   3.158  21.751  0.00  0.00    +0.000 C 
ATOM     10  O   UNL     1       0.911   2.601  21.227  0.00  0.00    +0.000 OA
ATOM     11  C   UNL     1       1.007   2.475  19.790  0.00  0.00    +0.000 C 
ATOM     12  C   UNL     1       1.194   3.833  19.129  0.00  0.00    +0.000 C 
ENDBRANCH   6   7
BRANCH   3  13
ATOM     13  N   UNL     1       6.511   6.072  16.061  0.00  0.00    +0.000 N 
ATOM     14  O   UNL     1       7.525   6.659  16.473  0.00  0.00    +0.000 OA
ATOM     15  O   UNL     1       6.290   5.795  14.876  0.00  0.00    +0.000 OA
ENDBRANCH   3  13
BRANCH   1  16
ATOM     16  C   UNL     1       2.591   7.355  18.778  0.00  0.00    +0.000 C 
ATOM     17  O   UNL     1       2.279   7.597  19.933  0.00  0.00    +0.000 OA
BRANCH  16  18
ATOM     18  O   UNL     1       2.096   8.012  17.694  0.00  0.00    +0.000 OA
BRANCH  18  19
ATOM     19  C   UNL     1       1.955   9.434  17.899  0.00  0.00    +0.000 C 
BRANCH  19  24
ATOM     20  C   UNL     1      -1.763  10.057  17.482  0.00  0.00    +0.000 A 
ATOM     21  C   UNL     1      -2.040  10.934  18.523  0.00  0.00    +0.000 A 
ATOM     22  C   UNL     1      -1.057  11.239  19.462  0.00  0.00    +0.000 A 
ATOM     23  C   UNL     1       0.243  10.719  19.358  0.00  0.00    +0.000 A 
ATOM     24  C   UNL     1       0.550   9.851  18.294  0.00  0.00    +0.000 A 
ATOM     25  C   UNL     1      -0.494   9.484  17.403  0.00  0.00    +0.000 A 
BRANCH  20  27
ATOM     26  C   UNL     1      -2.915  10.850  15.545  0.00  0.00    +0.000 C 
ATOM     27  O   UNL     1      -2.783   9.896  16.588  0.00  0.00    +0.000 OA
ENDBRANCH  20  27
BRANCH  23  28
ATOM     28  O   UNL     1       1.071  11.254  20.304  0.00  0.00    +0.000 OA
ATOM     29  C   UNL     1       1.506  12.599  20.183  0.00  0.00    +0.000 C 
ENDBRANCH  23  28
ENDBRANCH  19  24
ENDBRANCH  18  19
ENDBRANCH  16  18
ENDBRANCH   1  16
TORSDOF 8
ENDMDL
MODEL 2
REMARK VINA RESULT:      -7.7      1.518      2.988
REMARK  Name = 
REMARK  10 active torsions:
REMARK  status: ('A' for Active; 'I' for Inactive)
REMARK    1  A    between atoms: C_1  and  O_2
REMARK    2  A    between atoms: O_2  and  C_3
REMARK    3  A    between atoms: C_6  and  O_7
REMARK    4  A    between atoms: O_7  and  C_8
REMARK    5  A    between atoms: C_9  and  C_10
REMARK    6  A    between atoms: C_10  and  O_11
REMARK    7  A    between atoms: O_11  and  C_12
REMARK    8  A    between atoms: C_12  and  C_14
REMARK    9  A    between atoms: C_16  and  N_17
REMARK   10  A    between atoms: C_22  and  N_23
REMARK                            x       y       z     vdW  Elec       q    Type
REMARK                         _______ _______ _______ _____ _____    ______ ____
ROOT
ATOM      1  C   UNL     1       3.816   5.790  18.120  0.00  0.00    +0.000 A 
ATOM      2  C   UNL     1       4.853   6.538  17.525  0.00  0.00    +0.000 A 
ATOM      3  C   UNL     1       6.165   6.096  17.580  0.00  0.00    +0.000 A 
ATOM      4  C   UNL     1       6.489   4.934  18.272  0.00  0.00    +0.000 A 
ATOM      5  C   UNL     1       5.462   4.205  18.868  0.00  0.00    +0.000 A 
ATOM      6  C   UNL     1       4.106   4.569  18.782  0.00  0.00    +0.000 A 
ENDROOT
BRANCH   6   7
ATOM      7  N   UNL     1       3.161   3.726  19.346  0.00  0.00    +0.000 N 
ATOM      8  C   UNL     1       2.711   2.448  18.755  0.00  0.00    +0.000 C 
ATOM      9  C   UNL     1       1.171   2.396  18.724  0.00  0.00    +0.000 C 
ATOM     10  O   UNL     1       0.611   2.635  20.030  0.00  0.00    +0.000 OA
ATOM     11  C   UNL     1       1.040   3.927  20.519  0.00  0.00    +0.000 C 
ATOM     12  C   UNL     1       2.554   3.983  20.669  0.00  0.00    +0.000 C 
ENDBRANCH   6   7
BRANCH   3  13
ATOM     13  N   UNL     1       7.223   6.830  16.878  0.00  0.00    +0.000 N 
ATOM     14  O   UNL     1       7.485   7.975  17.282  0.00  0.00    +0.000 OA
ATOM     15  O   UNL     1       7.776   6.278  15.918  0.00  0.00    +0.000 OA
ENDBRANCH   3  13
BRANCH   1  16
ATOM     16  C   UNL     1       2.448   6.396  18.061  0.00  0.00    +0.000 C 
ATOM     17  O   UNL     1       1.463   5.858  17.581  0.00  0.00    +0.000 OA
BRANCH  16  18
ATOM     18  O   UNL     1       2.462   7.659  18.568  0.00  0.00    +0.000 OA
BRANCH  18  19
ATOM     19  C   UNL     1       1.568   8.563  17.885  0.00  0.00    +0.000 C 
BRANCH  19  24
ATOM     20  C   UNL     1       0.592  10.183  21.173  0.00  0.00    +0.000 A 
ATOM     21  C   UNL     1      -0.568  10.870  20.837  0.00  0.00    +0.000 A 
ATOM     22  C   UNL     1      -0.986  10.931  19.509  0.00  0.00    +0.000 A 
ATOM     23  C   UNL     1      -0.288  10.266  18.489  0.00  0.00    +0.000 A 
ATOM     24  C   UNL     1       0.874   9.542  18.814  0.00  0.00    +0.000 A 
ATOM     25  C   UNL     1       1.329   9.570  20.159  0.00  0.00    +0.000 A 
BRANCH  20  27
ATOM     26  C   UNL     1      -0.120   9.550  23.364  0.00  0.00    +0.000 C 
ATOM     27  O   UNL     1       0.856  10.133  22.512  0.00  0.00    +0.000 OA
ENDBRANCH  20  27
BRANCH  23  28
ATOM     28  O   UNL     1      -0.948  10.353  17.296  0.00  0.00    +0.000 OA
ATOM     29  C   UNL     1      -2.255   9.816  17.171  0.00  0.00    +0.000 C 
ENDBRANCH  23  28
ENDBRANCH  19  24
ENDBRANCH  18  19
ENDBRANCH  16  18
ENDBRANCH   1  16
TORSDOF 8
ENDMDL
MODEL 3
REMARK VINA RESULT:      -7.7      1.745      5.181
REMARK  Name = 
REMARK  10 active torsions:
REMARK  status: ('A' for Active; 'I' for Inactive)
REMARK    1  A    between atoms: C_1  and  O_2
REMARK    2  A    between atoms: O_2  and  C_3
REMARK    3  A    between atoms: C_6  and  O_7
REMARK    4  A    between atoms: O_7  and  C_8
REMARK    5  A    between atoms: C_9  and  C_10
REMARK    6  A    between atoms: C_10  and  O_11
REMARK    7  A    between atoms: O_11  and  C_12
REMARK    8  A    between atoms: C_12  and  C_14
REMARK    9  A    between atoms: C_16  and  N_17
REMARK   10  A    between atoms: C_22  and  N_23
REMARK                            x       y       z     vdW  Elec       q    Type
REMARK                         _______ _______ _______ _____ _____    ______ ____
ROOT
ATOM      1  C   UNL     1       3.178   5.477  17.930  0.00  0.00    +0.000 A 
ATOM      2  C   UNL     1       2.090   4.915  18.629  0.00  0.00    +0.000 A 
ATOM      3  C   UNL     1       1.932   3.541  18.707  0.00  0.00    +0.000 A 
ATOM      4  C   UNL     1       2.818   2.692  18.050  0.00  0.00    +0.000 A 
ATOM      5  C   UNL     1       3.885   3.253  17.352  0.00  0.00    +0.000 A 
ATOM      6  C   UNL     1       4.132   4.637  17.300  0.00  0.00    +0.000 A 
ENDROOT
BRANCH   6   7
ATOM      7  N   UNL     1       5.269   5.078  16.642  0.00  0.00    +0.000 N 
ATOM      8  C   UNL     1       5.337   5.403  15.201  0.00  0.00    +0.000 C 
ATOM      9  C   UNL     1       6.542   4.691  14.556  0.00  0.00    +0.000 C 
ATOM     10  O   UNL     1       7.766   4.992  15.255  0.00  0.00    +0.000 OA
ATOM     11  C   UNL     1       7.652   4.590  16.639  0.00  0.00    +0.000 C 
ATOM     12  C   UNL     1       6.540   5.353  17.344  0.00  0.00    +0.000 C 
ENDBRANCH   6   7
BRANCH   3  13
ATOM     13  N   UNL     1       0.852   2.964  19.514  0.00  0.00    +0.000 N 
ATOM     14  O   UNL     1       0.050   2.213  18.936  0.00  0.00    +0.000 OA
ATOM     15  O   UNL     1       0.792   3.272  20.711  0.00  0.00    +0.000 OA
ENDBRANCH   3  13
BRANCH   1  16
ATOM     16  C   UNL     1       3.210   6.972  17.850  0.00  0.00    +0.000 C 
ATOM     17  O   UNL     1       4.195   7.638  17.576  0.00  0.00    +0.000 OA
BRANCH  16  18
ATOM     18  O   UNL     1       1.998   7.495  18.182  0.00  0.00    +0.000 OA
BRANCH  18  19
ATOM     19  C   UNL     1       1.824   8.862  17.753  0.00  0.00    +0.000 C 
BRANCH  19  24
ATOM     20  C   UNL     1       0.451  10.312  20.978  0.00  0.00    +0.000 A 
ATOM     21  C   UNL     1      -0.851  10.645  20.628  0.00  0.00    +0.000 A 
ATOM     22  C   UNL     1      -1.272  10.530  19.304  0.00  0.00    +0.000 A 
ATOM     23  C   UNL     1      -0.421  10.030  18.305  0.00  0.00    +0.000 A 
ATOM     24  C   UNL     1       0.893   9.660  18.647  0.00  0.00    +0.000 A 
ATOM     25  C   UNL     1       1.325   9.873  19.984  0.00  0.00    +0.000 A 
BRANCH  20  27
ATOM     26  C   UNL     1      -0.068   9.619  23.205  0.00  0.00    +0.000 C 
ATOM     27  O   UNL     1       0.719  10.397  22.315  0.00  0.00    +0.000 OA
ENDBRANCH  20  27
BRANCH  23  28
ATOM     28  O   UNL     1      -1.081   9.881  17.118  0.00  0.00    +0.000 OA
ATOM     29  C   UNL     1      -2.452  10.231  17.023  0.00  0.00    +0.000 C 
ENDBRANCH  23  28
ENDBRANCH  19  24
ENDBRANCH  18  19
ENDBRANCH  16  18
ENDBRANCH   1  16
TORSDOF 8
ENDMDL
MODEL 4
REMARK VINA RESULT:      -7.6      1.650      4.611
REMARK  Name = 
REMARK  10 active torsions:
REMARK  status: ('A' for Active; 'I' for Inactive)
REMARK    1  A    between atoms: C_1  and  O_2
REMARK    2  A    between atoms: O_2  and  C_3
REMARK    3  A    between atoms: C_6  and  O_7
REMARK    4  A    between atoms: O_7  and  C_8
REMARK    5  A    between atoms: C_9  and  C_10
REMARK    6  A    between atoms: C_10  and  O_11
REMARK    7  A    between atoms: O_11  and  C_12
REMARK    8  A    between atoms: C_12  and  C_14
REMARK    9  A    between atoms: C_16  and  N_17
REMARK   10  A    between atoms: C_22  and  N_23
REMARK                            x       y       z     vdW  Elec       q    Type
REMARK                         _______ _______ _______ _____ _____    ______ ____
ROOT
ATOM      1  C   UNL     1       3.708   5.276  18.812  0.00  0.00    +0.000 A 
ATOM      2  C   UNL     1       2.615   4.775  19.549  0.00  0.00    +0.000 A 
ATOM      3  C   UNL     1       2.692   3.544  20.181  0.00  0.00    +0.000 A 
ATOM      4  C   UNL     1       3.832   2.758  20.054  0.00  0.00    +0.000 A 
ATOM      5  C   UNL     1       4.905   3.253  19.315  0.00  0.00    +0.000 A 
ATOM      6  C   UNL     1       4.907   4.524  18.713  0.00  0.00    +0.000 A 
ENDROOT
BRANCH   6   7
ATOM      7  N   UNL     1       6.060   4.945  18.068  0.00  0.00    +0.000 N 
ATOM      8  C   UNL     1       7.014   5.936  18.609  0.00  0.00    +0.000 C 
ATOM      9  C   UNL     1       7.312   7.013  17.548  0.00  0.00    +0.000 C 
ATOM     10  O   UNL     1       7.760   6.423  16.312  0.00  0.00    +0.000 OA
ATOM     11  C   UNL     1       6.753   5.516  15.808  0.00  0.00    +0.000 C 
ATOM     12  C   UNL     1       6.507   4.372  16.782  0.00  0.00    +0.000 C 
ENDBRANCH   6   7
BRANCH   3  13
ATOM     13  N   UNL     1       1.587   3.074  21.023  0.00  0.00    +0.000 N 
ATOM     14  O   UNL     1       0.450   3.086  20.525  0.00  0.00    +0.000 OA
ATOM     15  O   UNL     1       1.848   2.714  22.178  0.00  0.00    +0.000 OA
ENDBRANCH   3  13
BRANCH   1  16
ATOM     16  C   UNL     1       3.489   6.582  18.112  0.00  0.00    +0.000 C 
ATOM     17  O   UNL     1       3.950   6.878  17.021  0.00  0.00    +0.000 OA
BRANCH  16  18
ATOM     18  O   UNL     1       2.749   7.421  18.887  0.00  0.00    +0.000 OA
BRANCH  18  19
ATOM     19  C   UNL     1       2.282   8.592  18.183  0.00  0.00    +0.000 C 
BRANCH  19  24
ATOM     20  C   UNL     1      -0.761  10.842  18.423  0.00  0.00    +0.000 A 
ATOM     21  C   UNL     1      -0.997  10.884  19.791  0.00  0.00    +0.000 A 
ATOM     22  C   UNL     1      -0.258  10.078  20.655  0.00  0.00    +0.000 A 
ATOM     23  C   UNL     1       0.772   9.249  20.182  0.00  0.00    +0.000 A 
ATOM     24  C   UNL     1       1.045   9.215  18.802  0.00  0.00    +0.000 A 
ATOM     25  C   UNL     1       0.217   9.976  17.934  0.00  0.00    +0.000 A 
BRANCH  20  27
ATOM     26  C   UNL     1      -2.558  11.221  16.895  0.00  0.00    +0.000 C 
ATOM     27  O   UNL     1      -1.499  11.730  17.692  0.00  0.00    +0.000 OA
ENDBRANCH  20  27
BRANCH  23  28
ATOM     28  O   UNL     1       1.446   8.656  21.212  0.00  0.00    +0.000 OA
ATOM     29  C   UNL     1       1.295   9.150  22.533  0.00  0.00    +0.000 C 
ENDBRANCH  23  28
ENDBRANCH  19  24
ENDBRANCH  18  19
ENDBRANCH  16  18
ENDBRANCH   1  16
TORSDOF 8
ENDMDL
MODEL 5
REMARK VINA RESULT:      -7.6      1.163      1.525
REMARK  Name = 
REMARK  10 active torsions:
REMARK  status: ('A' for Active; 'I' for Inactive)
REMARK    1  A    between atoms: C_1  and  O_2
REMARK    2  A    between atoms: O_2  and  C_3
REMARK    3  A    between atoms: C_6  and  O_7
REMARK    4  A    between atoms: O_7  and  C_8
REMARK    5  A    between atoms: C_9  and  C_10
REMARK    6  A    between atoms: C_10  and  O_11
REMARK    7  A    between atoms: O_11  and  C_12
REMARK    8  A    between atoms: C_12  and  C_14
REMARK    9  A    between atoms: C_16  and  N_17
REMARK   10  A    between atoms: C_22  and  N_23
REMARK                            x       y       z     vdW  Elec       q    Type
REMARK                         _______ _______ _______ _____ _____    ______ ____
ROOT
ATOM      1  C   UNL     1       3.954   5.742  18.501  0.00  0.00    +0.000 A 
ATOM      2  C   UNL     1       4.976   6.407  17.791  0.00  0.00    +0.000 A 
ATOM      3  C   UNL     1       6.078   5.711  17.321  0.00  0.00    +0.000 A 
ATOM      4  C   UNL     1       6.221   4.354  17.590  0.00  0.00    +0.000 A 
ATOM      5  C   UNL     1       5.214   3.705  18.302  0.00  0.00    +0.000 A 
ATOM      6  C   UNL     1       4.042   4.347  18.740  0.00  0.00    +0.000 A 
ENDROOT
BRANCH   6   7
ATOM      7  N   UNL     1       3.070   3.585  19.370  0.00  0.00    +0.000 N 
ATOM      8  C   UNL     1       1.709   3.351  18.844  0.00  0.00    +0.000 C 
ATOM      9  C   UNL     1       0.664   3.644  19.939  0.00  0.00    +0.000 C 
ATOM     10  O   UNL     1       0.936   2.894  21.139  0.00  0.00    +0.000 OA
ATOM     11  C   UNL     1       2.255   3.219  21.632  0.00  0.00    +0.000 C 
ATOM     12  C   UNL     1       3.329   2.843  20.622  0.00  0.00    +0.000 C 
ENDBRANCH   6   7
BRANCH   3  13
ATOM     13  N   UNL     1       7.088   6.390  16.503  0.00  0.00    +0.000 N 
ATOM     14  O   UNL     1       7.476   7.504  16.889  0.00  0.00    +0.000 OA
ATOM     15  O   UNL     1       7.478   5.826  15.473  0.00  0.00    +0.000 OA
ENDBRANCH   3  13
BRANCH   1  16
ATOM     16  C   UNL     1       2.846   6.605  19.024  0.00  0.00    +0.000 C 
ATOM     17  O   UNL     1       2.436   6.597  20.173  0.00  0.00    +0.000 OA
BRANCH  16  18
ATOM     18  O   UNL     1       2.317   7.362  18.024  0.00  0.00    +0.000 OA
BRANCH  18  19
ATOM     19  C   UNL     1       2.302   8.774  18.318  0.00  0.00    +0.000 C 
BRANCH  19  24
ATOM     20  C   UNL     1      -1.157  10.272  17.900  0.00  0.00    +0.000 A 
ATOM     21  C   UNL     1      -1.450  10.715  19.183  0.00  0.00    +0.000 A 
ATOM     22  C   UNL     1      -0.591  10.420  20.240  0.00  0.00    +0.000 A 
ATOM     23  C   UNL     1       0.609   9.721  20.035  0.00  0.00    +0.000 A 
ATOM     24  C   UNL     1       0.937   9.289  18.737  0.00  0.00    +0.000 A 
ATOM     25  C   UNL     1       0.001   9.523  17.694  0.00  0.00    +0.000 A 
BRANCH  20  27
ATOM     26  C   UNL     1      -3.131  11.498  17.344  0.00  0.00    +0.000 C 
ATOM     27  O   UNL     1      -2.037  10.687  16.941  0.00  0.00    +0.000 OA
ENDBRANCH  20  27
BRANCH  23  28
ATOM     28  O   UNL     1       1.353   9.663  21.180  0.00  0.00    +0.000 OA
ATOM     29  C   UNL     1       0.744   9.266  22.398  0.00  0.00    +0.000 C 
ENDBRANCH  23  28
ENDBRANCH  19  24
ENDBRANCH  18  19
ENDBRANCH  16  18
ENDBRANCH   1  16
TORSDOF 8
ENDMDL
MODEL 6
REMARK VINA RESULT:      -7.6      2.125      2.723
REMARK  Name = 
REMARK  10 active torsions:
REMARK  status: ('A' for Active; 'I' for Inactive)
REMARK    1  A    between atoms: C_1  and  O_2
REMARK    2  A    between atoms: O_2  and  C_3
REMARK    3  A    between atoms: C_6  and  O_7
REMARK    4  A    between atoms: O_7  and  C_8
REMARK    5  A    between atoms: C_9  and  C_10
REMARK    6  A    between atoms: C_10  and  O_11
REMARK    7  A    between atoms: O_11  and  C_12
REMARK    8  A    between atoms: C_12  and  C_14
REMARK    9  A    between atoms: C_16  and  N_17
REMARK   10  A    between atoms: C_22  and  N_23
REMARK                            x       y       z     vdW  Elec       q    Type
REMARK                         _______ _______ _______ _____ _____    ______ ____
ROOT
ATOM      1  C   UNL     1       3.895   5.736  18.236  0.00  0.00    +0.000 A 
ATOM      2  C   UNL     1       4.869   6.475  17.534  0.00  0.00    +0.000 A 
ATOM      3  C   UNL     1       6.219   6.227  17.724  0.00  0.00    +0.000 A 
ATOM      4  C   UNL     1       6.637   5.279  18.653  0.00  0.00    +0.000 A 
ATOM      5  C   UNL     1       5.670   4.559  19.352  0.00  0.00    +0.000 A 
ATOM      6  C   UNL     1       4.288   4.721  19.146  0.00  0.00    +0.000 A 
ENDROOT
BRANCH   6   7
ATOM      7  N   UNL     1       3.418   3.895  19.841  0.00  0.00    +0.000 N 
ATOM      8  C   UNL     1       3.238   2.451  19.581  0.00  0.00    +0.000 C 
ATOM      9  C   UNL     1       1.738   2.123  19.445  0.00  0.00    +0.000 C 
ATOM     10  O   UNL     1       0.995   2.581  20.591  0.00  0.00    +0.000 OA
ATOM     11  C   UNL     1       1.164   4.009  20.747  0.00  0.00    +0.000 C 
ATOM     12  C   UNL     1       2.623   4.366  20.994  0.00  0.00    +0.000 C 
ENDBRANCH   6   7
BRANCH   3  13
ATOM     13  N   UNL     1       7.222   6.934  16.921  0.00  0.00    +0.000 N 
ATOM     14  O   UNL     1       7.728   6.315  15.971  0.00  0.00    +0.000 OA
ATOM     15  O   UNL     1       7.519   8.090  17.247  0.00  0.00    +0.000 OA
ENDBRANCH   3  13
BRANCH   1  16
ATOM     16  C   UNL     1       2.471   6.137  18.006  0.00  0.00    +0.000 C 
ATOM     17  O   UNL     1       1.592   5.396  17.593  0.00  0.00    +0.000 OA
BRANCH  16  18
ATOM     18  O   UNL     1       2.298   7.462  18.267  0.00  0.00    +0.000 OA
BRANCH  18  19
ATOM     19  C   UNL     1       1.882   7.731  19.623  0.00  0.00    +0.000 C 
BRANCH  19  24
ATOM     20  C   UNL     1       1.362  11.422  18.920  0.00  0.00    +0.000 A 
ATOM     21  C   UNL     1       0.871  11.892  20.131  0.00  0.00    +0.000 A 
ATOM     22  C   UNL     1       0.573  11.001  21.160  0.00  0.00    +0.000 A 
ATOM     23  C   UNL     1       0.806   9.623  21.027  0.00  0.00    +0.000 A 
ATOM     24  C   UNL     1       1.329   9.131  19.817  0.00  0.00    +0.000 A 
ATOM     25  C   UNL     1       1.538  10.048  18.753  0.00  0.00    +0.000 A 
BRANCH  20  27
ATOM     26  C   UNL     1       2.316  13.572  18.506  0.00  0.00    +0.000 C 
ATOM     27  O   UNL     1       1.683  12.397  18.020  0.00  0.00    +0.000 OA
ENDBRANCH  20  27
BRANCH  23  28
ATOM     28  O   UNL     1       0.568   8.962  22.199  0.00  0.00    +0.000 OA
ATOM     29  C   UNL     1      -0.232   9.567  23.202  0.00  0.00    +0.000 C 
ENDBRANCH  23  28
ENDBRANCH  19  24
ENDBRANCH  18  19
ENDBRANCH  16  18
ENDBRANCH   1  16
TORSDOF 8
ENDMDL
MODEL 7
REMARK VINA RESULT:      -7.6      1.177      2.672
REMARK  Name = 
REMARK  10 active torsions:
REMARK  status: ('A' for Active; 'I' for Inactive)
REMARK    1  A    between atoms: C_1  and  O_2
REMARK    2  A    between atoms: O_2  and  C_3
REMARK    3  A    between atoms: C_6  and  O_7
REMARK    4  A    between atoms: O_7  and  C_8
REMARK    5  A    between atoms: C_9  and  C_10
REMARK    6  A    between atoms: C_10  and  O_11
REMARK    7  A    between atoms: O_11  and  C_12
REMARK    8  A    between atoms: C_12  and  C_14
REMARK    9  A    between atoms: C_16  and  N_17
REMARK   10  A    between atoms: C_22  and  N_23
REMARK                            x       y       z     vdW  Elec       q    Type
REMARK                         _______ _______ _______ _____ _____    ______ ____
ROOT
ATOM      1  C   UNL     1       3.652   6.287  18.177  0.00  0.00    +0.000 A 
ATOM      2  C   UNL     1       4.790   6.805  17.525  0.00  0.00    +0.000 A 
ATOM      3  C   UNL     1       6.016   6.167  17.628  0.00  0.00    +0.000 A 
ATOM      4  C   UNL     1       6.155   5.033  18.422  0.00  0.00    +0.000 A 
ATOM      5  C   UNL     1       5.029   4.532  19.073  0.00  0.00    +0.000 A 
ATOM      6  C   UNL     1       3.748   5.098  18.945  0.00  0.00    +0.000 A 
ENDROOT
BRANCH   6   7
ATOM      7  N   UNL     1       2.685   4.470  19.575  0.00  0.00    +0.000 N 
ATOM      8  C   UNL     1       2.250   4.735  20.963  0.00  0.00    +0.000 C 
ATOM      9  C   UNL     1       2.097   3.407  21.730  0.00  0.00    +0.000 C 
ATOM     10  O   UNL     1       1.222   2.497  21.035  0.00  0.00    +0.000 OA
ATOM     11  C   UNL     1       1.741   2.232  19.712  0.00  0.00    +0.000 C 
ATOM     12  C   UNL     1       1.806   3.506  18.881  0.00  0.00    +0.000 C 
ENDBRANCH   6   7
BRANCH   3  13
ATOM     13  N   UNL     1       7.172   6.658  16.872  0.00  0.00    +0.000 N 
ATOM     14  O   UNL     1       7.610   7.781  17.169  0.00  0.00    +0.000 OA
ATOM     15  O   UNL     1       7.629   5.939  15.975  0.00  0.00    +0.000 OA
ENDBRANCH   3  13
BRANCH   1  16
ATOM     16  C   UNL     1       2.397   7.096  18.055  0.00  0.00    +0.000 C 
ATOM     17  O   UNL     1       1.371   6.719  17.512  0.00  0.00    +0.000 OA
BRANCH  16  18
ATOM     18  O   UNL     1       2.575   8.337  18.584  0.00  0.00    +0.000 OA
BRANCH  18  19
ATOM     19  C   UNL     1       1.931   9.383  17.827  0.00  0.00    +0.000 C 
BRANCH  19  24
ATOM     20  C   UNL     1       0.105  10.880  20.796  0.00  0.00    +0.000 A 
ATOM     21  C   UNL     1      -1.214  10.892  20.362  0.00  0.00    +0.000 A 
ATOM     22  C   UNL     1      -1.524  10.540  19.050  0.00  0.00    +0.000 A 
ATOM     23  C   UNL     1      -0.533  10.116  18.152  0.00  0.00    +0.000 A 
ATOM     24  C   UNL     1       0.806  10.069  18.581  0.00  0.00    +0.000 A 
ATOM     25  C   UNL     1       1.107  10.520  19.894  0.00  0.00    +0.000 A 
BRANCH  20  27
ATOM     26  C   UNL     1      -0.778  10.837  23.015  0.00  0.00    +0.000 C 
ATOM     27  O   UNL     1       0.272  11.173  22.119  0.00  0.00    +0.000 OA
ENDBRANCH  20  27
BRANCH  23  28
ATOM     28  O   UNL     1      -1.078   9.695  16.971  0.00  0.00    +0.000 OA
ATOM     29  C   UNL     1      -2.354  10.169  16.574  0.00  0.00    +0.000 C 
ENDBRANCH  23  28
ENDBRANCH  19  24
ENDBRANCH  18  19
ENDBRANCH  16  18
ENDBRANCH   1  16
TORSDOF 8
ENDMDL
MODEL 8
REMARK VINA RESULT:      -7.5      1.582      4.569
REMARK  Name = 
REMARK  10 active torsions:
REMARK  status: ('A' for Active; 'I' for Inactive)
REMARK    1  A    between atoms: C_1  and  O_2
REMARK    2  A    between atoms: O_2  and  C_3
REMARK    3  A    between atoms: C_6  and  O_7
REMARK    4  A    between atoms: O_7  and  C_8
REMARK    5  A    between atoms: C_9  and  C_10
REMARK    6  A    between atoms: C_10  and  O_11
REMARK    7  A    between atoms: O_11  and  C_12
REMARK    8  A    between atoms: C_12  and  C_14
REMARK    9  A    between atoms: C_16  and  N_17
REMARK   10  A    between atoms: C_22  and  N_23
REMARK                            x       y       z     vdW  Elec       q    Type
REMARK                         _______ _______ _______ _____ _____    ______ ____
ROOT
ATOM      1  C   UNL     1       3.209   5.584  17.953  0.00  0.00    +0.000 A 
ATOM      2  C   UNL     1       2.125   5.008  18.647  0.00  0.00    +0.000 A 
ATOM      3  C   UNL     1       1.963   3.632  18.689  0.00  0.00    +0.000 A 
ATOM      4  C   UNL     1       2.838   2.799  18.000  0.00  0.00    +0.000 A 
ATOM      5  C   UNL     1       3.900   3.375  17.307  0.00  0.00    +0.000 A 
ATOM      6  C   UNL     1       4.152   4.759  17.291  0.00  0.00    +0.000 A 
ENDROOT
BRANCH   6   7
ATOM      7  N   UNL     1       5.285   5.213  16.633  0.00  0.00    +0.000 N 
ATOM      8  C   UNL     1       5.326   5.632  15.216  0.00  0.00    +0.000 C 
ATOM      9  C   UNL     1       6.495   4.934  14.494  0.00  0.00    +0.000 C 
ATOM     10  O   UNL     1       7.743   5.157  15.179  0.00  0.00    +0.000 OA
ATOM     11  C   UNL     1       7.652   4.666  16.536  0.00  0.00    +0.000 C 
ATOM     12  C   UNL     1       6.579   5.409  17.319  0.00  0.00    +0.000 C 
ENDBRANCH   6   7
BRANCH   3  13
ATOM     13  N   UNL     1       0.888   3.037  19.491  0.00  0.00    +0.000 N 
ATOM     14  O   UNL     1      -0.009   2.435  18.880  0.00  0.00    +0.000 OA
ATOM     15  O   UNL     1       0.928   3.186  20.719  0.00  0.00    +0.000 OA
ENDBRANCH   3  13
BRANCH   1  16
ATOM     16  C   UNL     1       3.245   7.081  17.914  0.00  0.00    +0.000 C 
ATOM     17  O   UNL     1       4.258   7.754  17.806  0.00  0.00    +0.000 OA
BRANCH  16  18
ATOM     18  O   UNL     1       1.995   7.595  18.074  0.00  0.00    +0.000 OA
BRANCH  18  19
ATOM     19  C   UNL     1       1.961   9.038  18.072  0.00  0.00    +0.000 C 
BRANCH  19  24
ATOM     20  C   UNL     1      -1.431  10.732  17.996  0.00  0.00    +0.000 A 
ATOM     21  C   UNL     1      -1.589  11.149  19.311  0.00  0.00    +0.000 A 
ATOM     22  C   UNL     1      -0.660  10.776  20.281  0.00  0.00    +0.000 A 
ATOM     23  C   UNL     1       0.477  10.020  19.954  0.00  0.00    +0.000 A 
ATOM     24  C   UNL     1       0.668   9.612  18.621  0.00  0.00    +0.000 A 
ATOM     25  C   UNL     1      -0.339   9.928  17.670  0.00  0.00    +0.000 A 
BRANCH  20  27
ATOM     26  C   UNL     1      -2.643  10.475  15.953  0.00  0.00    +0.000 C 
ATOM     27  O   UNL     1      -2.365  11.223  17.128  0.00  0.00    +0.000 OA
ENDBRANCH  20  27
BRANCH  23  28
ATOM     28  O   UNL     1       1.311   9.886  21.028  0.00  0.00    +0.000 OA
ATOM     29  C   UNL     1       0.990   8.969  22.062  0.00  0.00    +0.000 C 
ENDBRANCH  23  28
ENDBRANCH  19  24
ENDBRANCH  18  19
ENDBRANCH  16  18
ENDBRANCH   1  16
TORSDOF 8
ENDMDL
MODEL 9
REMARK VINA RESULT:      -7.5      1.739      5.104
REMARK  Name = 
REMARK  10 active torsions:
REMARK  status: ('A' for Active; 'I' for Inactive)
REMARK    1  A    between atoms: C_1  and  O_2
REMARK    2  A    between atoms: O_2  and  C_3
REMARK    3  A    between atoms: C_6  and  O_7
REMARK    4  A    between atoms: O_7  and  C_8
REMARK    5  A    between atoms: C_9  and  C_10
REMARK    6  A    between atoms: C_10  and  O_11
REMARK    7  A    between atoms: O_11  and  C_12
REMARK    8  A    between atoms: C_12  and  C_14
REMARK    9  A    between atoms: C_16  and  N_17
REMARK   10  A    between atoms: C_22  and  N_23
REMARK                            x       y       z     vdW  Elec       q    Type
REMARK                         _______ _______ _______ _____ _____    ______ ____
ROOT
ATOM      1  C   UNL     1       3.438   5.169  18.397  0.00  0.00    +0.000 A 
ATOM      2  C   UNL     1       2.268   4.608  18.950  0.00  0.00    +0.000 A 
ATOM      3  C   UNL     1       2.260   3.300  19.409  0.00  0.00    +0.000 A 
ATOM      4  C   UNL     1       3.392   2.502  19.281  0.00  0.00    +0.000 A 
ATOM      5  C   UNL     1       4.541   3.059  18.723  0.00  0.00    +0.000 A 
ATOM      6  C   UNL     1       4.626   4.400  18.307  0.00  0.00    +0.000 A 
ENDROOT
BRANCH   6   7
ATOM      7  N   UNL     1       5.844   4.868  17.840  0.00  0.00    +0.000 N 
ATOM      8  C   UNL     1       6.727   5.800  18.573  0.00  0.00    +0.000 C 
ATOM      9  C   UNL     1       7.143   6.965  17.653  0.00  0.00    +0.000 C 
ATOM     10  O   UNL     1       7.731   6.484  16.429  0.00  0.00    +0.000 OA
ATOM     11  C   UNL     1       6.791   5.633  15.734  0.00  0.00    +0.000 C 
ATOM     12  C   UNL     1       6.438   4.409  16.567  0.00  0.00    +0.000 C 
ENDBRANCH   6   7
BRANCH   3  13
ATOM     13  N   UNL     1       1.070   2.755  20.069  0.00  0.00    +0.000 N 
ATOM     14  O   UNL     1       1.087   2.688  21.308  0.00  0.00    +0.000 OA
ATOM     15  O   UNL     1       0.131   2.377  19.356  0.00  0.00    +0.000 OA
ENDBRANCH   3  13
BRANCH   1  16
ATOM     16  C   UNL     1       3.312   6.565  17.868  0.00  0.00    +0.000 C 
ATOM     17  O   UNL     1       3.938   7.014  16.921  0.00  0.00    +0.000 OA
BRANCH  16  18
ATOM     18  O   UNL     1       2.444   7.288  18.626  0.00  0.00    +0.000 OA
BRANCH  18  19
ATOM     19  C   UNL     1       2.043   8.532  18.014  0.00  0.00    +0.000 C 
BRANCH  19  24
ATOM     20  C   UNL     1       0.699   9.992  21.247  0.00  0.00    +0.000 A 
ATOM     21  C   UNL     1      -0.547  10.472  20.864  0.00  0.00    +0.000 A 
ATOM     22  C   UNL     1      -0.924  10.453  19.523  0.00  0.00    +0.000 A 
ATOM     23  C   UNL     1      -0.090   9.906  18.535  0.00  0.00    +0.000 A 
ATOM     24  C   UNL     1       1.164   9.388  18.907  0.00  0.00    +0.000 A 
ATOM     25  C   UNL     1       1.562   9.503  20.266  0.00  0.00    +0.000 A 
BRANCH  20  27
ATOM     26  C   UNL     1      -0.140   9.595  23.448  0.00  0.00    +0.000 C 
ATOM     27  O   UNL     1       0.921   9.997  22.594  0.00  0.00    +0.000 OA
ENDBRANCH  20  27
BRANCH  23  28
ATOM     28  O   UNL     1      -0.715   9.871  17.320  0.00  0.00    +0.000 OA
ATOM     29  C   UNL     1      -2.083  10.229  17.219  0.00  0.00    +0.000 C 
ENDBRANCH  23  28
ENDBRANCH  19  24
ENDBRANCH  18  19
ENDBRANCH  16  18
ENDBRANCH   1  16
TORSDOF 8
ENDMDL
