MODEL 1
REMARK VINA RESULT:      -8.1      0.000      0.000
REMARK  Name = 
REMARK  2 active torsions:
REMARK  status: ('A' for Active; 'I' for Inactive)
REMARK    1  A    between atoms: N_3  and  C_4
REMARK    2  A    between atoms: C_18  and  C_19
REMARK                            x       y       z     vdW  Elec       q    Type
REMARK                         _______ _______ _______ _____ _____    ______ ____
ROOT
ATOM      1  O   UNL     1       1.584   5.447  20.833  0.00  0.00    +0.000 OA
ATOM      2  C   UNL     1       2.255   5.789  19.854  0.00  0.00    +0.000 C 
ATOM      3  N   UNL     1       2.320   7.053  19.321  0.00  0.00    +0.000 N 
ATOM      4  N   UNL     1       2.995   4.820  19.246  0.00  0.00    +0.000 N 
ATOM      5  C   UNL     1       3.807   5.012  18.170  0.00  0.00    +0.000 A 
ATOM      6  N   UNL     1       3.888   6.086  17.427  0.00  0.00    +0.000 NA
ATOM      7  C   UNL     1       4.815   5.866  16.432  0.00  0.00    +0.000 A 
ATOM      8  C   UNL     1       5.385   4.611  16.426  0.00  0.00    +0.000 A 
ATOM      9  S   UNL     1       4.840   3.714  17.776  0.00  0.00    +0.000 S 
ATOM     10  H   UNL     1       2.831   7.128  18.442  0.00  0.00    +0.000 HD
ATOM     11  H   UNL     1       2.936   3.902  19.656  0.00  0.00    +0.000 HD
ENDROOT
BRANCH   3  12
ATOM     12  C   UNL     1       1.612   8.191  19.752  0.00  0.00    +0.000 A 
ATOM     13  C   UNL     1       1.461   9.320  18.951  0.00  0.00    +0.000 A 
ATOM     14  C   UNL     1       0.757  10.429  19.410  0.00  0.00    +0.000 A 
ATOM     15  C   UNL     1       0.205  10.433  20.697  0.00  0.00    +0.000 A 
ATOM     16  C   UNL     1      -0.501  11.535  21.200  0.00  0.00    +0.000 A 
ATOM     17  N   UNL     1      -1.021  11.594  22.444  0.00  0.00    +0.000 NA
ATOM     18  C   UNL     1      -0.841  10.519  23.230  0.00  0.00    +0.000 A 
ATOM     19  C   UNL     1      -0.168   9.368  22.828  0.00  0.00    +0.000 A 
ATOM     20  C   UNL     1       0.360   9.311  21.531  0.00  0.00    +0.000 A 
ATOM     21  C   UNL     1       1.043   8.180  21.033  0.00  0.00    +0.000 A 
ENDBRANCH   3  12
BRANCH   8  22
ATOM     22  C   UNL     1       6.328   4.065  15.364  0.00  0.00    +0.000 C 
ATOM     23  C   UNL     1       5.643   3.921  13.961  0.00  0.00    +0.000 C 
ATOM     24  C   UNL     1       6.966   4.394  13.337  0.00  0.00    +0.000 C 
ATOM     25  C   UNL     1       7.258   5.099  14.673  0.00  0.00    +0.000 C 
ENDBRANCH   8  22
TORSDOF 2
ENDMDL
MODEL 2
REMARK VINA RESULT:      -8.0      3.317      9.035
REMARK  Name = 
REMARK  2 active torsions:
REMARK  status: ('A' for Active; 'I' for Inactive)
REMARK    1  A    between atoms: N_3  and  C_4
REMARK    2  A    between atoms: C_18  and  C_19
REMARK                            x       y       z     vdW  Elec       q    Type
REMARK                         _______ _______ _______ _____ _____    ______ ____
ROOT
ATOM      1  O   UNL     1       2.250   9.345  17.209  0.00  0.00    +0.000 OA
ATOM      2  C   UNL     1       1.791   9.200  18.347  0.00  0.00    +0.000 C 
ATOM      3  N   UNL     1       1.873   8.062  19.112  0.00  0.00    +0.000 N 
ATOM      4  N   UNL     1       1.140  10.266  18.889  0.00  0.00    +0.000 N 
ATOM      5  C   UNL     1       0.587  10.298  20.133  0.00  0.00    +0.000 A 
ATOM      6  N   UNL     1       0.420   9.287  20.946  0.00  0.00    +0.000 NA
ATOM      7  C   UNL     1      -0.191   9.740  22.095  0.00  0.00    +0.000 A 
ATOM      8  C   UNL     1      -0.508  11.081  22.103  0.00  0.00    +0.000 A 
ATOM      9  S   UNL     1       0.085  11.831  20.684  0.00  0.00    +0.000 S 
ATOM     10  H   UNL     1       1.336   8.081  19.977  0.00  0.00    +0.000 HD
ATOM     11  H   UNL     1       1.095  11.091  18.313  0.00  0.00    +0.000 HD
ENDROOT
BRANCH   3  12
ATOM     12  C   UNL     1       2.455   6.833  18.742  0.00  0.00    +0.000 A 
ATOM     13  C   UNL     1       3.616   6.763  17.976  0.00  0.00    +0.000 A 
ATOM     14  C   UNL     1       4.163   5.531  17.627  0.00  0.00    +0.000 A 
ATOM     15  C   UNL     1       3.540   4.342  18.025  0.00  0.00    +0.000 A 
ATOM     16  C   UNL     1       4.053   3.083  17.683  0.00  0.00    +0.000 A 
ATOM     17  N   UNL     1       3.469   1.913  18.018  0.00  0.00    +0.000 NA
ATOM     18  C   UNL     1       2.327   1.984  18.723  0.00  0.00    +0.000 A 
ATOM     19  C   UNL     1       1.737   3.180  19.126  0.00  0.00    +0.000 A 
ATOM     20  C   UNL     1       2.356   4.390  18.784  0.00  0.00    +0.000 A 
ATOM     21  C   UNL     1       1.838   5.647  19.163  0.00  0.00    +0.000 A 
ENDBRANCH   3  12
BRANCH   8  22
ATOM     22  C   UNL     1      -1.301  11.805  23.182  0.00  0.00    +0.000 C 
ATOM     23  C   UNL     1      -1.100  13.359  23.142  0.00  0.00    +0.000 C 
ATOM     24  C   UNL     1      -2.592  13.499  23.482  0.00  0.00    +0.000 C 
ATOM     25  C   UNL     1      -2.789  12.108  22.854  0.00  0.00    +0.000 C 
ENDBRANCH   8  22
TORSDOF 2
ENDMDL
MODEL 3
REMARK VINA RESULT:      -8.0      2.356      8.766
REMARK  Name = 
REMARK  2 active torsions:
REMARK  status: ('A' for Active; 'I' for Inactive)
REMARK    1  A    between atoms: N_3  and  C_4
REMARK    2  A    between atoms: C_18  and  C_19
REMARK                            x       y       z     vdW  Elec       q    Type
REMARK                         _______ _______ _______ _____ _____    ______ ____
ROOT
ATOM      1  O   UNL     1       2.290   5.048  21.051  0.00  0.00    +0.000 OA
ATOM      2  C   UNL     1       2.063   6.146  20.534  0.00  0.00    +0.000 C 
ATOM      3  N   UNL     1       2.434   6.536  19.269  0.00  0.00    +0.000 N 
ATOM      4  N   UNL     1       1.387   7.055  21.289  0.00  0.00    +0.000 N 
ATOM      5  C   UNL     1       1.032   8.306  20.882  0.00  0.00    +0.000 A 
ATOM      6  N   UNL     1       1.419   8.918  19.793  0.00  0.00    +0.000 NA
ATOM      7  C   UNL     1       0.848  10.171  19.764  0.00  0.00    +0.000 A 
ATOM      8  C   UNL     1       0.073  10.490  20.858  0.00  0.00    +0.000 A 
ATOM      9  S   UNL     1      -0.051   9.140  21.901  0.00  0.00    +0.000 S 
ATOM     10  H   UNL     1       2.268   7.517  19.051  0.00  0.00    +0.000 HD
ATOM     11  H   UNL     1       1.122   6.748  22.211  0.00  0.00    +0.000 HD
ENDROOT
BRANCH   3  12
ATOM     12  C   UNL     1       3.173   5.785  18.334  0.00  0.00    +0.000 A 
ATOM     13  C   UNL     1       2.731   4.554  17.855  0.00  0.00    +0.000 A 
ATOM     14  C   UNL     1       3.488   3.837  16.933  0.00  0.00    +0.000 A 
ATOM     15  C   UNL     1       4.719   4.335  16.489  0.00  0.00    +0.000 A 
ATOM     16  C   UNL     1       5.515   3.638  15.570  0.00  0.00    +0.000 A 
ATOM     17  N   UNL     1       6.721   4.064  15.139  0.00  0.00    +0.000 NA
ATOM     18  C   UNL     1       7.164   5.233  15.633  0.00  0.00    +0.000 A 
ATOM     19  C   UNL     1       6.450   6.013  16.539  0.00  0.00    +0.000 A 
ATOM     20  C   UNL     1       5.193   5.568  16.972  0.00  0.00    +0.000 A 
ATOM     21  C   UNL     1       4.393   6.300  17.877  0.00  0.00    +0.000 A 
ENDBRANCH   3  12
BRANCH   8  22
ATOM     22  C   UNL     1      -0.557  11.846  21.141  0.00  0.00    +0.000 C 
ATOM     23  C   UNL     1      -1.889  12.073  20.345  0.00  0.00    +0.000 C 
ATOM     24  C   UNL     1      -2.444  12.773  21.596  0.00  0.00    +0.000 C 
ATOM     25  C   UNL     1      -1.441  11.942  22.414  0.00  0.00    +0.000 C 
ENDBRANCH   8  22
TORSDOF 2
ENDMDL
MODEL 4
REMARK VINA RESULT:      -7.9      0.770      1.725
REMARK  Name = 
REMARK  2 active torsions:
REMARK  status: ('A' for Active; 'I' for Inactive)
REMARK    1  A    between atoms: N_3  and  C_4
REMARK    2  A    between atoms: C_18  and  C_19
REMARK                            x       y       z     vdW  Elec       q    Type
REMARK                         _______ _______ _______ _____ _____    ______ ____
ROOT
ATOM      1  O   UNL     1       1.286   5.281  20.803  0.00  0.00    +0.000 OA
ATOM      2  C   UNL     1       2.041   5.643  19.895  0.00  0.00    +0.000 C 
ATOM      3  N   UNL     1       2.284   6.941  19.514  0.00  0.00    +0.000 N 
ATOM      4  N   UNL     1       2.689   4.663  19.206  0.00  0.00    +0.000 N 
ATOM      5  C   UNL     1       3.571   4.870  18.189  0.00  0.00    +0.000 A 
ATOM      6  N   UNL     1       3.817   6.002  17.579  0.00  0.00    +0.000 NA
ATOM      7  C   UNL     1       4.760   5.779  16.599  0.00  0.00    +0.000 A 
ATOM      8  C   UNL     1       5.175   4.472  16.468  0.00  0.00    +0.000 A 
ATOM      9  S   UNL     1       4.459   3.505  17.684  0.00  0.00    +0.000 S 
ATOM     10  H   UNL     1       2.843   7.048  18.670  0.00  0.00    +0.000 HD
ATOM     11  H   UNL     1       2.500   3.720  19.503  0.00  0.00    +0.000 HD
ENDROOT
BRANCH   3  12
ATOM     12  C   UNL     1       1.696   8.103  20.050  0.00  0.00    +0.000 A 
ATOM     13  C   UNL     1       1.483   8.265  21.416  0.00  0.00    +0.000 A 
ATOM     14  C   UNL     1       0.898   9.427  21.911  0.00  0.00    +0.000 A 
ATOM     15  C   UNL     1       0.496  10.445  21.037  0.00  0.00    +0.000 A 
ATOM     16  C   UNL     1      -0.108  11.624  21.495  0.00  0.00    +0.000 A 
ATOM     17  N   UNL     1      -0.539  12.615  20.687  0.00  0.00    +0.000 NA
ATOM     18  C   UNL     1      -0.368  12.439  19.366  0.00  0.00    +0.000 A 
ATOM     19  C   UNL     1       0.230  11.314  18.804  0.00  0.00    +0.000 A 
ATOM     20  C   UNL     1       0.686  10.295  19.651  0.00  0.00    +0.000 A 
ATOM     21  C   UNL     1       1.317   9.127  19.171  0.00  0.00    +0.000 A 
ENDBRANCH   3  12
BRANCH   8  22
ATOM     22  C   UNL     1       6.098   3.933  15.385  0.00  0.00    +0.000 C 
ATOM     23  C   UNL     1       5.490   4.072  13.946  0.00  0.00    +0.000 C 
ATOM     24  C   UNL     1       6.902   4.421  13.451  0.00  0.00    +0.000 C 
ATOM     25  C   UNL     1       7.205   4.899  14.882  0.00  0.00    +0.000 C 
ENDBRANCH   8  22
TORSDOF 2
ENDMDL
MODEL 5
REMARK VINA RESULT:      -7.8      3.590      9.076
REMARK  Name = 
REMARK  2 active torsions:
REMARK  status: ('A' for Active; 'I' for Inactive)
REMARK    1  A    between atoms: N_3  and  C_4
REMARK    2  A    between atoms: C_18  and  C_19
REMARK                            x       y       z     vdW  Elec       q    Type
REMARK                         _______ _______ _______ _____ _____    ______ ____
ROOT
ATOM      1  O   UNL     1       1.894   9.399  17.453  0.00  0.00    +0.000 OA
ATOM      2  C   UNL     1       1.484   9.442  18.617  0.00  0.00    +0.000 C 
ATOM      3  N   UNL     1       1.644   8.462  19.568  0.00  0.00    +0.000 N 
ATOM      4  N   UNL     1       0.806  10.563  18.990  0.00  0.00    +0.000 N 
ATOM      5  C   UNL     1       0.298  10.796  20.232  0.00  0.00    +0.000 A 
ATOM      6  N   UNL     1       0.206   9.940  21.218  0.00  0.00    +0.000 NA
ATOM      7  C   UNL     1      -0.383  10.568  22.294  0.00  0.00    +0.000 A 
ATOM      8  C   UNL     1      -0.758  11.877  22.079  0.00  0.00    +0.000 A 
ATOM      9  S   UNL     1      -0.251  12.383  20.525  0.00  0.00    +0.000 S 
ATOM     10  H   UNL     1       1.139   8.616  20.439  0.00  0.00    +0.000 HD
ATOM     11  H   UNL     1       0.704  11.269  18.280  0.00  0.00    +0.000 HD
ENDROOT
BRANCH   3  12
ATOM     12  C   UNL     1       2.266   7.210  19.396  0.00  0.00    +0.000 A 
ATOM     13  C   UNL     1       3.119   6.946  18.328  0.00  0.00    +0.000 A 
ATOM     14  C   UNL     1       3.716   5.696  18.187  0.00  0.00    +0.000 A 
ATOM     15  C   UNL     1       3.449   4.677  19.110  0.00  0.00    +0.000 A 
ATOM     16  C   UNL     1       4.021   3.402  18.997  0.00  0.00    +0.000 A 
ATOM     17  N   UNL     1       3.767   2.383  19.844  0.00  0.00    +0.000 NA
ATOM     18  C   UNL     1       2.912   2.629  20.852  0.00  0.00    +0.000 A 
ATOM     19  C   UNL     1       2.299   3.860  21.066  0.00  0.00    +0.000 A 
ATOM     20  C   UNL     1       2.577   4.917  20.188  0.00  0.00    +0.000 A 
ATOM     21  C   UNL     1       2.013   6.202  20.336  0.00  0.00    +0.000 A 
ENDBRANCH   3  12
BRANCH   8  22
ATOM     22  C   UNL     1      -1.543  12.751  23.046  0.00  0.00    +0.000 C 
ATOM     23  C   UNL     1      -2.293  13.926  22.327  0.00  0.00    +0.000 C 
ATOM     24  C   UNL     1      -3.460  13.692  23.300  0.00  0.00    +0.000 C 
ATOM     25  C   UNL     1      -2.958  12.244  23.437  0.00  0.00    +0.000 C 
ENDBRANCH   8  22
TORSDOF 2
ENDMDL
MODEL 6
REMARK VINA RESULT:      -7.7      3.603      8.815
REMARK  Name = 
REMARK  2 active torsions:
REMARK  status: ('A' for Active; 'I' for Inactive)
REMARK    1  A    between atoms: N_3  and  C_4
REMARK    2  A    between atoms: C_18  and  C_19
REMARK                            x       y       z     vdW  Elec       q    Type
REMARK                         _______ _______ _______ _____ _____    ______ ____
ROOT
ATOM      1  O   UNL     1       2.329   8.899  17.077  0.00  0.00    +0.000 OA
ATOM      2  C   UNL     1       1.825   9.132  18.180  0.00  0.00    +0.000 C 
ATOM      3  N   UNL     1       1.862   8.305  19.276  0.00  0.00    +0.000 N 
ATOM      4  N   UNL     1       1.167  10.317  18.318  0.00  0.00    +0.000 N 
ATOM      5  C   UNL     1       0.567  10.753  19.460  0.00  0.00    +0.000 A 
ATOM      6  N   UNL     1       0.355  10.062  20.550  0.00  0.00    +0.000 NA
ATOM      7  C   UNL     1      -0.294  10.865  21.462  0.00  0.00    +0.000 A 
ATOM      8  C   UNL     1      -0.593  12.135  21.021  0.00  0.00    +0.000 A 
ATOM      9  S   UNL     1       0.064  12.382  19.460  0.00  0.00    +0.000 S 
ATOM     10  H   UNL     1       1.292   8.606  20.065  0.00  0.00    +0.000 HD
ATOM     11  H   UNL     1       1.156  10.909  17.503  0.00  0.00    +0.000 HD
ENDROOT
BRANCH   3  12
ATOM     12  C   UNL     1       2.441   7.024  19.351  0.00  0.00    +0.000 A 
ATOM     13  C   UNL     1       3.432   6.605  18.468  0.00  0.00    +0.000 A 
ATOM     14  C   UNL     1       3.981   5.329  18.569  0.00  0.00    +0.000 A 
ATOM     15  C   UNL     1       3.529   4.440  19.551  0.00  0.00    +0.000 A 
ATOM     16  C   UNL     1       4.048   3.144  19.678  0.00  0.00    +0.000 A 
ATOM     17  N   UNL     1       3.620   2.245  20.588  0.00  0.00    +0.000 NA
ATOM     18  C   UNL     1       2.635   2.638  21.414  0.00  0.00    +0.000 A 
ATOM     19  C   UNL     1       2.057   3.904  21.384  0.00  0.00    +0.000 A 
ATOM     20  C   UNL     1       2.516   4.836  20.443  0.00  0.00    +0.000 A 
ATOM     21  C   UNL     1       1.999   6.147  20.351  0.00  0.00    +0.000 A 
ENDBRANCH   3  12
BRANCH   8  22
ATOM     22  C   UNL     1      -1.418  13.171  21.771  0.00  0.00    +0.000 C 
ATOM     23  C   UNL     1      -2.041  12.605  23.095  0.00  0.00    +0.000 C 
ATOM     24  C   UNL     1      -1.745  13.967  23.742  0.00  0.00    +0.000 C 
ATOM     25  C   UNL     1      -0.631  14.140  22.694  0.00  0.00    +0.000 C 
ENDBRANCH   8  22
TORSDOF 2
ENDMDL
MODEL 7
REMARK VINA RESULT:      -7.7      2.307      8.763
REMARK  Name = 
REMARK  2 active torsions:
REMARK  status: ('A' for Active; 'I' for Inactive)
REMARK    1  A    between atoms: N_3  and  C_4
REMARK    2  A    between atoms: C_18  and  C_19
REMARK                            x       y       z     vdW  Elec       q    Type
REMARK                         _______ _______ _______ _____ _____    ______ ____
ROOT
ATOM      1  O   UNL     1       2.459   4.579  20.877  0.00  0.00    +0.000 OA
ATOM      2  C   UNL     1       2.324   5.762  20.548  0.00  0.00    +0.000 C 
ATOM      3  N   UNL     1       3.064   6.427  19.600  0.00  0.00    +0.000 N 
ATOM      4  N   UNL     1       1.354   6.472  21.187  0.00  0.00    +0.000 N 
ATOM      5  C   UNL     1       1.047   7.777  20.945  0.00  0.00    +0.000 A 
ATOM      6  N   UNL     1       1.724   8.621  20.209  0.00  0.00    +0.000 NA
ATOM      7  C   UNL     1       1.086   9.842  20.238  0.00  0.00    +0.000 A 
ATOM      8  C   UNL     1      -0.039   9.900  21.032  0.00  0.00    +0.000 A 
ATOM      9  S   UNL     1      -0.387   8.350  21.668  0.00  0.00    +0.000 S 
ATOM     10  H   UNL     1       2.895   7.430  19.543  0.00  0.00    +0.000 HD
ATOM     11  H   UNL     1       0.820   5.964  21.875  0.00  0.00    +0.000 HD
ENDROOT
BRANCH   3  12
ATOM     12  C   UNL     1       4.140   5.912  18.852  0.00  0.00    +0.000 A 
ATOM     13  C   UNL     1       5.255   5.336  19.455  0.00  0.00    +0.000 A 
ATOM     14  C   UNL     1       6.302   4.838  18.684  0.00  0.00    +0.000 A 
ATOM     15  C   UNL     1       6.258   4.928  17.288  0.00  0.00    +0.000 A 
ATOM     16  C   UNL     1       7.297   4.450  16.478  0.00  0.00    +0.000 A 
ATOM     17  N   UNL     1       7.311   4.545  15.132  0.00  0.00    +0.000 NA
ATOM     18  C   UNL     1       6.251   5.137  14.554  0.00  0.00    +0.000 A 
ATOM     19  C   UNL     1       5.160   5.635  15.261  0.00  0.00    +0.000 A 
ATOM     20  C   UNL     1       5.149   5.522  16.658  0.00  0.00    +0.000 A 
ATOM     21  C   UNL     1       4.079   5.985  17.453  0.00  0.00    +0.000 A 
ENDBRANCH   3  12
BRANCH   8  22
ATOM     22  C   UNL     1      -0.846  11.151  21.346  0.00  0.00    +0.000 C 
ATOM     23  C   UNL     1      -1.182  11.287  22.872  0.00  0.00    +0.000 C 
ATOM     24  C   UNL     1      -0.944  12.798  22.726  0.00  0.00    +0.000 C 
ATOM     25  C   UNL     1      -0.036  12.463  21.529  0.00  0.00    +0.000 C 
ENDBRANCH   8  22
TORSDOF 2
ENDMDL
MODEL 8
REMARK VINA RESULT:      -7.6      3.113      9.349
REMARK  Name = 
REMARK  2 active torsions:
REMARK  status: ('A' for Active; 'I' for Inactive)
REMARK    1  A    between atoms: N_3  and  C_4
REMARK    2  A    between atoms: C_18  and  C_19
REMARK                            x       y       z     vdW  Elec       q    Type
REMARK                         _______ _______ _______ _____ _____    ______ ____
ROOT
ATOM      1  O   UNL     1       1.877   9.732  17.299  0.00  0.00    +0.000 OA
ATOM      2  C   UNL     1       1.500   9.580  18.465  0.00  0.00    +0.000 C 
ATOM      3  N   UNL     1       1.781   8.503  19.271  0.00  0.00    +0.000 N 
ATOM      4  N   UNL     1       0.731  10.569  18.999  0.00  0.00    +0.000 N 
ATOM      5  C   UNL     1       0.240  10.584  20.269  0.00  0.00    +0.000 A 
ATOM      6  N   UNL     1       0.260   9.600  21.131  0.00  0.00    +0.000 NA
ATOM      7  C   UNL     1      -0.353  10.018  22.292  0.00  0.00    +0.000 A 
ATOM      8  C   UNL     1      -0.856  11.301  22.263  0.00  0.00    +0.000 A 
ATOM      9  S   UNL     1      -0.448  12.056  20.784  0.00  0.00    +0.000 S 
ATOM     10  H   UNL     1       1.290   8.489  20.164  0.00  0.00    +0.000 HD
ATOM     11  H   UNL     1       0.540  11.350  18.392  0.00  0.00    +0.000 HD
ENDROOT
BRANCH   3  12
ATOM     12  C   UNL     1       2.513   7.352  18.921  0.00  0.00    +0.000 A 
ATOM     13  C   UNL     1       2.440   6.173  19.659  0.00  0.00    +0.000 A 
ATOM     14  C   UNL     1       3.180   5.054  19.285  0.00  0.00    +0.000 A 
ATOM     15  C   UNL     1       4.024   5.105  18.170  0.00  0.00    +0.000 A 
ATOM     16  C   UNL     1       4.794   4.003  17.768  0.00  0.00    +0.000 A 
ATOM     17  N   UNL     1       5.644   4.018  16.721  0.00  0.00    +0.000 NA
ATOM     18  C   UNL     1       5.742   5.169  16.033  0.00  0.00    +0.000 A 
ATOM     19  C   UNL     1       5.016   6.317  16.336  0.00  0.00    +0.000 A 
ATOM     20  C   UNL     1       4.126   6.290  17.419  0.00  0.00    +0.000 A 
ATOM     21  C   UNL     1       3.339   7.402  17.790  0.00  0.00    +0.000 A 
ENDBRANCH   3  12
BRANCH   8  22
ATOM     22  C   UNL     1      -1.691  11.957  23.353  0.00  0.00    +0.000 C 
ATOM     23  C   UNL     1      -1.456  13.505  23.447  0.00  0.00    +0.000 C 
ATOM     24  C   UNL     1      -2.961  13.654  23.720  0.00  0.00    +0.000 C 
ATOM     25  C   UNL     1      -3.152  12.321  22.975  0.00  0.00    +0.000 C 
ENDBRANCH   8  22
TORSDOF 2
ENDMDL
MODEL 9
REMARK VINA RESULT:      -7.6      2.680      4.337
REMARK  Name = 
REMARK  2 active torsions:
REMARK  status: ('A' for Active; 'I' for Inactive)
REMARK    1  A    between atoms: N_3  and  C_4
REMARK    2  A    between atoms: C_18  and  C_19
REMARK                            x       y       z     vdW  Elec       q    Type
REMARK                         _______ _______ _______ _____ _____    ______ ____
ROOT
ATOM      1  O   UNL     1       6.954   6.890  17.726  0.00  0.00    +0.000 OA
ATOM      2  C   UNL     1       6.307   6.267  16.878  0.00  0.00    +0.000 C 
ATOM      3  N   UNL     1       4.948   6.064  16.887  0.00  0.00    +0.000 N 
ATOM      4  N   UNL     1       7.008   5.728  15.842  0.00  0.00    +0.000 N 
ATOM      5  C   UNL     1       6.465   5.028  14.807  0.00  0.00    +0.000 A 
ATOM      6  N   UNL     1       5.234   4.595  14.710  0.00  0.00    +0.000 NA
ATOM      7  C   UNL     1       5.097   3.917  13.519  0.00  0.00    +0.000 A 
ATOM      8  C   UNL     1       6.245   3.821  12.761  0.00  0.00    +0.000 A 
ATOM      9  S   UNL     1       7.508   4.708  13.497  0.00  0.00    +0.000 S 
ATOM     10  H   UNL     1       4.600   5.427  16.173  0.00  0.00    +0.000 HD
ATOM     11  H   UNL     1       8.001   5.893  15.853  0.00  0.00    +0.000 HD
ENDROOT
BRANCH   3  12
ATOM     12  C   UNL     1       4.036   6.485  17.874  0.00  0.00    +0.000 A 
ATOM     13  C   UNL     1       3.798   5.745  19.029  0.00  0.00    +0.000 A 
ATOM     14  C   UNL     1       2.887   6.190  19.984  0.00  0.00    +0.000 A 
ATOM     15  C   UNL     1       2.181   7.383  19.785  0.00  0.00    +0.000 A 
ATOM     16  C   UNL     1       1.248   7.859  20.716  0.00  0.00    +0.000 A 
ATOM     17  N   UNL     1       0.522   8.984  20.551  0.00  0.00    +0.000 NA
ATOM     18  C   UNL     1       0.725   9.677  19.417  0.00  0.00    +0.000 A 
ATOM     19  C   UNL     1       1.635   9.303  18.432  0.00  0.00    +0.000 A 
ATOM     20  C   UNL     1       2.393   8.138  18.617  0.00  0.00    +0.000 A 
ATOM     21  C   UNL     1       3.349   7.691  17.680  0.00  0.00    +0.000 A 
ENDBRANCH   3  12
BRANCH   8  22
ATOM     22  C   UNL     1       6.403   3.018  11.479  0.00  0.00    +0.000 C 
ATOM     23  C   UNL     1       7.658   2.078  11.504  0.00  0.00    +0.000 C 
ATOM     24  C   UNL     1       6.809   1.028  10.768  0.00  0.00    +0.000 C 
ATOM     25  C   UNL     1       5.572   1.709  11.380  0.00  0.00    +0.000 C 
ENDBRANCH   8  22
TORSDOF 2
ENDMDL
