MODEL 1
REMARK VINA RESULT:      -6.6      0.000      0.000
REMARK  Name = 
REMARK  7 active torsions:
REMARK  status: ('A' for Active; 'I' for Inactive)
REMARK    1  A    between atoms: C_1  and  C_2
REMARK    2  A    between atoms: C_2  and  C_3
REMARK    3  A    between atoms: C_3  and  C_4
REMARK    4  A    between atoms: C_4  and  O_5
REMARK    5  A    between atoms: O_5  and  C_6
REMARK    6  A    between atoms: C_6  and  C_8
REMARK    7  A    between atoms: C_12  and  O_13
REMARK                            x       y       z     vdW  Elec       q    Type
REMARK                         _______ _______ _______ _____ _____    ______ ____
ROOT
ATOM      1  C   UNL     1       6.326   4.551  15.650  0.00  0.00    +0.000 A 
ATOM      2  C   UNL     1       7.125   5.004  16.707  0.00  0.00    +0.000 A 
ATOM      3  C   UNL     1       6.614   5.012  18.005  0.00  0.00    +0.000 A 
ATOM      4 BR   UNL     1       7.704   5.665  19.413  0.00  0.00    +0.000 Br
ATOM      5  C   UNL     1       5.309   4.574  18.259  0.00  0.00    +0.000 A 
ATOM      6  C   UNL     1       4.517   4.112  17.208  0.00  0.00    +0.000 A 
ATOM      7 BR   UNL     1       2.731   3.535  17.478  0.00  0.00    +0.000 Br
ATOM      8  C   UNL     1       5.023   4.096  15.907  0.00  0.00    +0.000 A 
ENDROOT
BRANCH   1   9
ATOM      9  C   UNL     1       6.839   4.699  14.257  0.00  0.00    +0.000 C 
ATOM     10  O   UNL     1       7.832   5.333  13.956  0.00  0.00    +0.000 OA
BRANCH   9  11
ATOM     11  O   UNL     1       5.933   4.170  13.400  0.00  0.00    +0.000 OA
BRANCH  11  12
ATOM     12  C   UNL     1       6.510   3.344  12.386  0.00  0.00    +0.000 C 
BRANCH  12  13
ATOM     13  C   UNL     1       5.436   2.690  11.535  0.00  0.00    +0.000 C 
BRANCH  13  15
ATOM     14  C   UNL     1       3.342   3.415  10.329  0.00  0.00    +0.000 C 
ATOM     15  C   UNL     1       4.146   3.504  11.611  0.00  0.00    +0.000 C 
ENDBRANCH  13  15
ENDBRANCH  12  13
ENDBRANCH  11  12
ENDBRANCH   9  11
ENDBRANCH   1   9
BRANCH   5  16
ATOM     16  O   UNL     1       4.788   4.602  19.526  0.00  0.00    +0.000 OA
ATOM     17  H   UNL     1       3.887   4.967  19.475  0.00  0.00    +0.000 HD
ENDBRANCH   5  16
TORSDOF 6
ENDMDL
MODEL 2
REMARK VINA RESULT:      -6.6      0.197      2.373
REMARK  Name = 
REMARK  7 active torsions:
REMARK  status: ('A' for Active; 'I' for Inactive)
REMARK    1  A    between atoms: C_1  and  C_2
REMARK    2  A    between atoms: C_2  and  C_3
REMARK    3  A    between atoms: C_3  and  C_4
REMARK    4  A    between atoms: C_4  and  O_5
REMARK    5  A    between atoms: O_5  and  C_6
REMARK    6  A    between atoms: C_6  and  C_8
REMARK    7  A    between atoms: C_12  and  O_13
REMARK                            x       y       z     vdW  Elec       q    Type
REMARK                         _______ _______ _______ _____ _____    ______ ____
ROOT
ATOM      1  C   UNL     1       6.241   4.777  15.643  0.00  0.00    +0.000 A 
ATOM      2  C   UNL     1       4.947   4.308  15.904  0.00  0.00    +0.000 A 
ATOM      3  C   UNL     1       4.480   4.269  17.219  0.00  0.00    +0.000 A 
ATOM      4 BR   UNL     1       2.739   3.594  17.549  0.00  0.00    +0.000 Br
ATOM      5  C   UNL     1       5.293   4.691  18.276  0.00  0.00    +0.000 A 
ATOM      6  C   UNL     1       6.577   5.169  18.014  0.00  0.00    +0.000 A 
ATOM      7 BR   UNL     1       7.741   5.726  19.403  0.00  0.00    +0.000 Br
ATOM      8  C   UNL     1       7.050   5.217  16.702  0.00  0.00    +0.000 A 
ENDROOT
BRANCH   1   9
ATOM      9  C   UNL     1       6.770   4.663  14.252  0.00  0.00    +0.000 C 
ATOM     10  O   UNL     1       7.688   5.328  13.812  0.00  0.00    +0.000 OA
BRANCH   9  11
ATOM     11  O   UNL     1       5.957   3.845  13.542  0.00  0.00    +0.000 OA
BRANCH  11  12
ATOM     12  C   UNL     1       6.460   3.514  12.246  0.00  0.00    +0.000 C 
BRANCH  12  13
ATOM     13  C   UNL     1       5.464   2.669  11.471  0.00  0.00    +0.000 C 
BRANCH  13  15
ATOM     14  C   UNL     1       3.489   3.651  10.246  0.00  0.00    +0.000 C 
ATOM     15  C   UNL     1       4.066   3.270  11.596  0.00  0.00    +0.000 C 
ENDBRANCH  13  15
ENDBRANCH  12  13
ENDBRANCH  11  12
ENDBRANCH   9  11
ENDBRANCH   1   9
BRANCH   5  16
ATOM     16  O   UNL     1       4.854   4.632  19.573  0.00  0.00    +0.000 OA
ATOM     17  H   UNL     1       3.891   4.485  19.560  0.00  0.00    +0.000 HD
ENDBRANCH   5  16
TORSDOF 6
ENDMDL
MODEL 3
REMARK VINA RESULT:      -6.5      2.917      5.921
REMARK  Name = 
REMARK  7 active torsions:
REMARK  status: ('A' for Active; 'I' for Inactive)
REMARK    1  A    between atoms: C_1  and  C_2
REMARK    2  A    between atoms: C_2  and  C_3
REMARK    3  A    between atoms: C_3  and  C_4
REMARK    4  A    between atoms: C_4  and  O_5
REMARK    5  A    between atoms: O_5  and  C_6
REMARK    6  A    between atoms: C_6  and  C_8
REMARK    7  A    between atoms: C_12  and  O_13
REMARK                            x       y       z     vdW  Elec       q    Type
REMARK                         _______ _______ _______ _____ _____    ______ ____
ROOT
ATOM      1  C   UNL     1       4.920   3.926  17.774  0.00  0.00    +0.000 A 
ATOM      2  C   UNL     1       5.769   4.878  18.354  0.00  0.00    +0.000 A 
ATOM      3  C   UNL     1       6.699   5.549  17.558  0.00  0.00    +0.000 A 
ATOM      4 BR   UNL     1       7.861   6.805  18.374  0.00  0.00    +0.000 Br
ATOM      5  C   UNL     1       6.791   5.278  16.188  0.00  0.00    +0.000 A 
ATOM      6  C   UNL     1       5.937   4.339  15.609  0.00  0.00    +0.000 A 
ATOM      7 BR   UNL     1       6.032   3.902  13.767  0.00  0.00    +0.000 Br
ATOM      8  C   UNL     1       5.001   3.667  16.397  0.00  0.00    +0.000 A 
ENDROOT
BRANCH   1   9
ATOM      9  C   UNL     1       4.047   3.114  18.670  0.00  0.00    +0.000 C 
ATOM     10  O   UNL     1       4.438   2.524  19.658  0.00  0.00    +0.000 OA
BRANCH   9  11
ATOM     11  O   UNL     1       2.820   3.007  18.104  0.00  0.00    +0.000 OA
BRANCH  11  12
ATOM     12  C   UNL     1       1.939   2.121  18.798  0.00  0.00    +0.000 C 
BRANCH  12  13
ATOM     13  C   UNL     1       0.699   2.852  19.284  0.00  0.00    +0.000 C 
BRANCH  13  15
ATOM     14  C   UNL     1       1.564   2.737  21.651  0.00  0.00    +0.000 C 
ATOM     15  C   UNL     1       1.023   3.634  20.555  0.00  0.00    +0.000 C 
ENDBRANCH  13  15
ENDBRANCH  12  13
ENDBRANCH  11  12
ENDBRANCH   9  11
ENDBRANCH   1   9
BRANCH   5  16
ATOM     16  O   UNL     1       7.717   5.913  15.403  0.00  0.00    +0.000 OA
ATOM     17  H   UNL     1       8.407   6.279  15.985  0.00  0.00    +0.000 HD
ENDBRANCH   5  16
TORSDOF 6
ENDMDL
MODEL 4
REMARK VINA RESULT:      -6.4      2.045      2.692
REMARK  Name = 
REMARK  7 active torsions:
REMARK  status: ('A' for Active; 'I' for Inactive)
REMARK    1  A    between atoms: C_1  and  C_2
REMARK    2  A    between atoms: C_2  and  C_3
REMARK    3  A    between atoms: C_3  and  C_4
REMARK    4  A    between atoms: C_4  and  O_5
REMARK    5  A    between atoms: O_5  and  C_6
REMARK    6  A    between atoms: C_6  and  C_8
REMARK    7  A    between atoms: C_12  and  O_13
REMARK                            x       y       z     vdW  Elec       q    Type
REMARK                         _______ _______ _______ _____ _____    ______ ____
ROOT
ATOM      1  C   UNL     1       5.526   4.915  17.128  0.00  0.00    +0.000 A 
ATOM      2  C   UNL     1       4.912   6.162  17.305  0.00  0.00    +0.000 A 
ATOM      3  C   UNL     1       3.591   6.225  17.750  0.00  0.00    +0.000 A 
ATOM      4 BR   UNL     1       2.772   7.923  17.946  0.00  0.00    +0.000 Br
ATOM      5  C   UNL     1       2.874   5.053  18.018  0.00  0.00    +0.000 A 
ATOM      6  C   UNL     1       3.489   3.812  17.853  0.00  0.00    +0.000 A 
ATOM      7 BR   UNL     1       2.564   2.187  18.167  0.00  0.00    +0.000 Br
ATOM      8  C   UNL     1       4.812   3.741  17.414  0.00  0.00    +0.000 A 
ENDROOT
BRANCH   1   9
ATOM      9  C   UNL     1       6.881   4.873  16.506  0.00  0.00    +0.000 C 
ATOM     10  O   UNL     1       7.884   4.489  17.074  0.00  0.00    +0.000 OA
BRANCH   9  11
ATOM     11  O   UNL     1       6.825   5.484  15.298  0.00  0.00    +0.000 OA
BRANCH  11  12
ATOM     12  C   UNL     1       6.979   4.593  14.192  0.00  0.00    +0.000 C 
BRANCH  12  13
ATOM     13  C   UNL     1       5.629   4.143  13.660  0.00  0.00    +0.000 C 
BRANCH  13  15
ATOM     14  C   UNL     1       4.510   3.197  11.605  0.00  0.00    +0.000 C 
ATOM     15  C   UNL     1       5.817   3.372  12.354  0.00  0.00    +0.000 C 
ENDBRANCH  13  15
ENDBRANCH  12  13
ENDBRANCH  11  12
ENDBRANCH   9  11
ENDBRANCH   1   9
BRANCH   5  16
ATOM     16  O   UNL     1       1.569   5.102  18.430  0.00  0.00    +0.000 OA
ATOM     17  H   UNL     1       1.489   4.581  19.250  0.00  0.00    +0.000 HD
ENDBRANCH   5  16
TORSDOF 6
ENDMDL
MODEL 5
REMARK VINA RESULT:      -6.3      3.634      6.333
REMARK  Name = 
REMARK  7 active torsions:
REMARK  status: ('A' for Active; 'I' for Inactive)
REMARK    1  A    between atoms: C_1  and  C_2
REMARK    2  A    between atoms: C_2  and  C_3
REMARK    3  A    between atoms: C_3  and  C_4
REMARK    4  A    between atoms: C_4  and  O_5
REMARK    5  A    between atoms: O_5  and  C_6
REMARK    6  A    between atoms: C_6  and  C_8
REMARK    7  A    between atoms: C_12  and  O_13
REMARK                            x       y       z     vdW  Elec       q    Type
REMARK                         _______ _______ _______ _____ _____    ______ ____
ROOT
ATOM      1  C   UNL     1       3.568   3.731  17.334  0.00  0.00    +0.000 A 
ATOM      2  C   UNL     1       3.071   4.978  17.734  0.00  0.00    +0.000 A 
ATOM      3  C   UNL     1       3.732   6.143  17.340  0.00  0.00    +0.000 A 
ATOM      4 BR   UNL     1       3.061   7.816  17.926  0.00  0.00    +0.000 Br
ATOM      5  C   UNL     1       4.886   6.074  16.551  0.00  0.00    +0.000 A 
ATOM      6  C   UNL     1       5.373   4.833  16.144  0.00  0.00    +0.000 A 
ATOM      7 BR   UNL     1       6.950   4.669  15.103  0.00  0.00    +0.000 Br
ATOM      8  C   UNL     1       4.716   3.663  16.529  0.00  0.00    +0.000 A 
ENDROOT
BRANCH   1   9
ATOM      9  C   UNL     1       2.936   2.502  17.895  0.00  0.00    +0.000 C 
ATOM     10  O   UNL     1       3.525   1.457  18.091  0.00  0.00    +0.000 OA
BRANCH   9  11
ATOM     11  O   UNL     1       1.597   2.697  17.974  0.00  0.00    +0.000 OA
BRANCH  11  12
ATOM     12  C   UNL     1       1.039   2.357  19.246  0.00  0.00    +0.000 C 
BRANCH  12  13
ATOM     13  C   UNL     1       0.670   3.603  20.032  0.00  0.00    +0.000 C 
BRANCH  13  15
ATOM     14  C   UNL     1       2.403   2.680  21.617  0.00  0.00    +0.000 C 
ATOM     15  C   UNL     1       1.777   3.932  21.032  0.00  0.00    +0.000 C 
ENDBRANCH  13  15
ENDBRANCH  12  13
ENDBRANCH  11  12
ENDBRANCH   9  11
ENDBRANCH   1   9
BRANCH   5  16
ATOM     16  O   UNL     1       5.557   7.210  16.181  0.00  0.00    +0.000 OA
ATOM     17  H   UNL     1       5.666   7.196  15.213  0.00  0.00    +0.000 HD
ENDBRANCH   5  16
TORSDOF 6
ENDMDL
MODEL 6
REMARK VINA RESULT:      -6.3      0.941      2.792
REMARK  Name = 
REMARK  7 active torsions:
REMARK  status: ('A' for Active; 'I' for Inactive)
REMARK    1  A    between atoms: C_1  and  C_2
REMARK    2  A    between atoms: C_2  and  C_3
REMARK    3  A    between atoms: C_3  and  C_4
REMARK    4  A    between atoms: C_4  and  O_5
REMARK    5  A    between atoms: O_5  and  C_6
REMARK    6  A    between atoms: C_6  and  C_8
REMARK    7  A    between atoms: C_12  and  O_13
REMARK                            x       y       z     vdW  Elec       q    Type
REMARK                         _______ _______ _______ _____ _____    ______ ____
ROOT
ATOM      1  C   UNL     1       6.239   4.698  15.551  0.00  0.00    +0.000 A 
ATOM      2  C   UNL     1       4.954   4.208  15.814  0.00  0.00    +0.000 A 
ATOM      3  C   UNL     1       4.479   4.182  17.126  0.00  0.00    +0.000 A 
ATOM      4 BR   UNL     1       2.750   3.478  17.458  0.00  0.00    +0.000 Br
ATOM      5  C   UNL     1       5.277   4.640  18.181  0.00  0.00    +0.000 A 
ATOM      6  C   UNL     1       6.552   5.139  17.917  0.00  0.00    +0.000 A 
ATOM      7 BR   UNL     1       7.696   5.744  19.303  0.00  0.00    +0.000 Br
ATOM      8  C   UNL     1       7.033   5.173  16.607  0.00  0.00    +0.000 A 
ENDROOT
BRANCH   1   9
ATOM      9  C   UNL     1       6.780   4.570  14.166  0.00  0.00    +0.000 C 
ATOM     10  O   UNL     1       7.439   5.425  13.606  0.00  0.00    +0.000 OA
BRANCH   9  11
ATOM     11  O   UNL     1       6.270   3.450  13.601  0.00  0.00    +0.000 OA
BRANCH  11  12
ATOM     12  C   UNL     1       6.411   3.405  12.180  0.00  0.00    +0.000 C 
BRANCH  12  13
ATOM     13  C   UNL     1       5.621   2.250  11.587  0.00  0.00    +0.000 C 
BRANCH  13  15
ATOM     14  C   UNL     1       6.210  -0.195  11.381  0.00  0.00    +0.000 C 
ATOM     15  C   UNL     1       6.578   1.223  10.985  0.00  0.00    +0.000 C 
ENDBRANCH  13  15
ENDBRANCH  12  13
ENDBRANCH  11  12
ENDBRANCH   9  11
ENDBRANCH   1   9
BRANCH   5  16
ATOM     16  O   UNL     1       4.831   4.595  19.475  0.00  0.00    +0.000 OA
ATOM     17  H   UNL     1       5.421   4.006  19.979  0.00  0.00    +0.000 HD
ENDBRANCH   5  16
TORSDOF 6
ENDMDL
MODEL 7
REMARK VINA RESULT:      -6.3      2.072      2.874
REMARK  Name = 
REMARK  7 active torsions:
REMARK  status: ('A' for Active; 'I' for Inactive)
REMARK    1  A    between atoms: C_1  and  C_2
REMARK    2  A    between atoms: C_2  and  C_3
REMARK    3  A    between atoms: C_3  and  C_4
REMARK    4  A    between atoms: C_4  and  O_5
REMARK    5  A    between atoms: O_5  and  C_6
REMARK    6  A    between atoms: C_6  and  C_8
REMARK    7  A    between atoms: C_12  and  O_13
REMARK                            x       y       z     vdW  Elec       q    Type
REMARK                         _______ _______ _______ _____ _____    ______ ____
ROOT
ATOM      1  C   UNL     1       5.356   5.145  16.893  0.00  0.00    +0.000 A 
ATOM      2  C   UNL     1       4.902   3.991  17.545  0.00  0.00    +0.000 A 
ATOM      3  C   UNL     1       3.751   4.051  18.333  0.00  0.00    +0.000 A 
ATOM      4 BR   UNL     1       3.178   2.485  19.233  0.00  0.00    +0.000 Br
ATOM      5  C   UNL     1       3.050   5.254  18.479  0.00  0.00    +0.000 A 
ATOM      6  C   UNL     1       3.497   6.400  17.821  0.00  0.00    +0.000 A 
ATOM      7 BR   UNL     1       2.613   8.067  18.003  0.00  0.00    +0.000 Br
ATOM      8  C   UNL     1       4.644   6.347  17.026  0.00  0.00    +0.000 A 
ENDROOT
BRANCH   1   9
ATOM      9  C   UNL     1       6.669   5.091  16.187  0.00  0.00    +0.000 C 
ATOM     10  O   UNL     1       7.708   4.724  16.699  0.00  0.00    +0.000 OA
BRANCH   9  11
ATOM     11  O   UNL     1       6.535   5.675  14.972  0.00  0.00    +0.000 OA
BRANCH  11  12
ATOM     12  C   UNL     1       6.964   4.852  13.885  0.00  0.00    +0.000 C 
BRANCH  12  13
ATOM     13  C   UNL     1       6.017   3.683  13.676  0.00  0.00    +0.000 C 
BRANCH  13  15
ATOM     14  C   UNL     1       4.557   3.298  11.654  0.00  0.00    +0.000 C 
ATOM     15  C   UNL     1       5.973   3.310  12.195  0.00  0.00    +0.000 C 
ENDBRANCH  13  15
ENDBRANCH  12  13
ENDBRANCH  11  12
ENDBRANCH   9  11
ENDBRANCH   1   9
BRANCH   5  16
ATOM     16  O   UNL     1       1.935   5.330  19.271  0.00  0.00    +0.000 OA
ATOM     17  H   UNL     1       1.169   5.515  18.698  0.00  0.00    +0.000 HD
ENDBRANCH   5  16
TORSDOF 6
ENDMDL
MODEL 8
REMARK VINA RESULT:      -6.3      2.969      6.390
REMARK  Name = 
REMARK  7 active torsions:
REMARK  status: ('A' for Active; 'I' for Inactive)
REMARK    1  A    between atoms: C_1  and  C_2
REMARK    2  A    between atoms: C_2  and  C_3
REMARK    3  A    between atoms: C_3  and  C_4
REMARK    4  A    between atoms: C_4  and  O_5
REMARK    5  A    between atoms: O_5  and  C_6
REMARK    6  A    between atoms: C_6  and  C_8
REMARK    7  A    between atoms: C_12  and  O_13
REMARK                            x       y       z     vdW  Elec       q    Type
REMARK                         _______ _______ _______ _____ _____    ______ ____
ROOT
ATOM      1  C   UNL     1       4.514   4.150  17.009  0.00  0.00    +0.000 A 
ATOM      2  C   UNL     1       4.761   3.758  15.687  0.00  0.00    +0.000 A 
ATOM      3  C   UNL     1       5.862   4.279  15.007  0.00  0.00    +0.000 A 
ATOM      4 BR   UNL     1       6.152   3.762  13.206  0.00  0.00    +0.000 Br
ATOM      5  C   UNL     1       6.719   5.191  15.633  0.00  0.00    +0.000 A 
ATOM      6  C   UNL     1       6.479   5.572  16.953  0.00  0.00    +0.000 A 
ATOM      7 BR   UNL     1       7.582   6.827  17.849  0.00  0.00    +0.000 Br
ATOM      8  C   UNL     1       5.383   5.051  17.643  0.00  0.00    +0.000 A 
ENDROOT
BRANCH   1   9
ATOM      9  C   UNL     1       3.248   3.700  17.659  0.00  0.00    +0.000 C 
ATOM     10  O   UNL     1       2.351   3.118  17.081  0.00  0.00    +0.000 OA
BRANCH   9  11
ATOM     11  O   UNL     1       3.203   4.198  18.918  0.00  0.00    +0.000 OA
BRANCH  11  12
ATOM     12  C   UNL     1       2.098   5.074  19.153  0.00  0.00    +0.000 C 
BRANCH  12  13
ATOM     13  C   UNL     1       1.475   4.815  20.514  0.00  0.00    +0.000 C 
BRANCH  13  15
ATOM     14  C   UNL     1       1.656   2.584  21.679  0.00  0.00    +0.000 C 
ATOM     15  C   UNL     1       0.966   3.377  20.586  0.00  0.00    +0.000 C 
ENDBRANCH  13  15
ENDBRANCH  12  13
ENDBRANCH  11  12
ENDBRANCH   9  11
ENDBRANCH   1   9
BRANCH   5  16
ATOM     16  O   UNL     1       7.788   5.729  14.966  0.00  0.00    +0.000 OA
ATOM     17  H   UNL     1       7.700   6.699  14.985  0.00  0.00    +0.000 HD
ENDBRANCH   5  16
TORSDOF 6
ENDMDL
MODEL 9
REMARK VINA RESULT:      -6.2      3.553      6.210
REMARK  Name = 
REMARK  7 active torsions:
REMARK  status: ('A' for Active; 'I' for Inactive)
REMARK    1  A    between atoms: C_1  and  C_2
REMARK    2  A    between atoms: C_2  and  C_3
REMARK    3  A    between atoms: C_3  and  C_4
REMARK    4  A    between atoms: C_4  and  O_5
REMARK    5  A    between atoms: O_5  and  C_6
REMARK    6  A    between atoms: C_6  and  C_8
REMARK    7  A    between atoms: C_12  and  O_13
REMARK                            x       y       z     vdW  Elec       q    Type
REMARK                         _______ _______ _______ _____ _____    ______ ____
ROOT
ATOM      1  C   UNL     1       3.925   3.666  17.675  0.00  0.00    +0.000 A 
ATOM      2  C   UNL     1       4.902   3.550  16.678  0.00  0.00    +0.000 A 
ATOM      3  C   UNL     1       5.369   4.696  16.033  0.00  0.00    +0.000 A 
ATOM      4 BR   UNL     1       6.664   4.508  14.661  0.00  0.00    +0.000 Br
ATOM      5  C   UNL     1       4.867   5.958  16.371  0.00  0.00    +0.000 A 
ATOM      6  C   UNL     1       3.903   6.074  17.372  0.00  0.00    +0.000 A 
ATOM      7 BR   UNL     1       3.158   7.749  17.856  0.00  0.00    +0.000 Br
ATOM      8  C   UNL     1       3.434   4.933  18.026  0.00  0.00    +0.000 A 
ENDROOT
BRANCH   1   9
ATOM      9  C   UNL     1       3.333   2.417  18.238  0.00  0.00    +0.000 C 
ATOM     10  O   UNL     1       3.976   1.532  18.766  0.00  0.00    +0.000 OA
BRANCH   9  11
ATOM     11  O   UNL     1       2.021   2.368  17.904  0.00  0.00    +0.000 OA
BRANCH  11  12
ATOM     12  C   UNL     1       1.155   2.095  19.008  0.00  0.00    +0.000 C 
BRANCH  12  13
ATOM     13  C   UNL     1       0.566   3.376  19.573  0.00  0.00    +0.000 C 
BRANCH  13  15
ATOM     14  C   UNL     1       1.752   2.580  21.653  0.00  0.00    +0.000 C 
ATOM     15  C   UNL     1       1.324   3.783  20.835  0.00  0.00    +0.000 C 
ENDBRANCH  13  15
ENDBRANCH  12  13
ENDBRANCH  11  12
ENDBRANCH   9  11
ENDBRANCH   1   9
BRANCH   5  16
ATOM     16  O   UNL     1       5.299   7.086  15.726  0.00  0.00    +0.000 OA
ATOM     17  H   UNL     1       5.523   7.754  16.399  0.00  0.00    +0.000 HD
ENDBRANCH   5  16
TORSDOF 6
ENDMDL
