MODEL 1
REMARK VINA RESULT:      -8.7      0.000      0.000
REMARK  Name = 
REMARK  8 active torsions:
REMARK  status: ('A' for Active; 'I' for Inactive)
REMARK    1  A    between atoms: C_1  and  C_2
REMARK    2  A    between atoms: C_5  and  N_6
REMARK    3  A    between atoms: N_6  and  S_7
REMARK    4  A    between atoms: S_7  and  C_10
REMARK    5  A    between atoms: C_12  and  C_13
REMARK    6  A    between atoms: N_15  and  C_16
REMARK    7  A    between atoms: C_16  and  C_17
REMARK    8  A    between atoms: C_28  and  C_29
REMARK                            x       y       z     vdW  Elec       q    Type
REMARK                         _______ _______ _______ _____ _____    ______ ____
ROOT
ATOM      1  C   UNL     1       2.532   4.438  18.713  0.00  0.00    +0.000 A 
ATOM      2  C   UNL     1       2.432   5.720  18.144  0.00  0.00    +0.000 A 
ATOM      3  C   UNL     1       2.202   6.843  18.944  0.00  0.00    +0.000 A 
ATOM      4  C   UNL     1       2.117   6.681  20.333  0.00  0.00    +0.000 A 
ATOM      5  C   UNL     1       2.217   5.405  20.901  0.00  0.00    +0.000 A 
ATOM      6  C   UNL     1       2.412   4.275  20.094  0.00  0.00    +0.000 A 
ATOM      7 CL   UNL     1       2.516   2.752  20.899  0.00  0.00    +0.000 Cl
ENDROOT
BRANCH   3   8
ATOM      8  C   UNL     1       2.046   8.209  18.364  0.00  0.00    +0.000 C 
ATOM      9  O   UNL     1       2.690   8.537  17.374  0.00  0.00    +0.000 OA
ATOM     10  N   UNL     1       1.186   9.056  19.026  0.00  0.00    +0.000 N 
ATOM     11  H   UNL     1       0.674   8.763  19.844  0.00  0.00    +0.000 HD
BRANCH  10  12
ATOM     12  C   UNL     1       0.920  10.408  18.574  0.00  0.00    +0.000 C 
BRANCH  12  13
ATOM     13  C   UNL     1      -0.559  10.705  18.480  0.00  0.00    +0.000 A 
ATOM     14  C   UNL     1      -1.379   9.935  17.656  0.00  0.00    +0.000 A 
ATOM     15  C   UNL     1      -2.730  10.258  17.561  0.00  0.00    +0.000 A 
ATOM     16  C   UNL     1      -3.232  11.324  18.297  0.00  0.00    +0.000 A 
ATOM     17  C   UNL     1      -2.356  12.023  19.112  0.00  0.00    +0.000 A 
ATOM     18  N   UNL     1      -1.039  11.740  19.223  0.00  0.00    +0.000 NA
ENDBRANCH  12  13
ENDBRANCH  10  12
ENDBRANCH   3   8
BRANCH   1  19
ATOM     19  S   UNL     1       2.743   3.067  17.603  0.00  0.00    +0.000 S 
ATOM     20  O   UNL     1       2.114   3.420  16.346  0.00  0.00    +0.000 OA
ATOM     21  O   UNL     1       2.329   1.871  18.306  0.00  0.00    +0.000 OA
BRANCH  19  22
ATOM     22  N   UNL     1       4.386   2.949  17.339  0.00  0.00    +0.000 N 
ATOM     23  H   UNL     1       4.779   2.014  17.255  0.00  0.00    +0.000 HD
BRANCH  22  28
ATOM     24  C   UNL     1       7.690   7.617  17.309  0.00  0.00    +0.000 C 
ATOM     25  C   UNL     1       6.826   6.385  17.356  0.00  0.00    +0.000 A 
ATOM     26  C   UNL     1       5.997   6.093  16.263  0.00  0.00    +0.000 A 
ATOM     27  C   UNL     1       5.188   4.958  16.266  0.00  0.00    +0.000 A 
ATOM     28  C   UNL     1       5.223   4.085  17.348  0.00  0.00    +0.000 A 
ATOM     29  C   UNL     1       6.027   4.366  18.450  0.00  0.00    +0.000 A 
ATOM     30  C   UNL     1       6.828   5.522  18.472  0.00  0.00    +0.000 A 
ATOM     31  C   UNL     1       7.665   5.822  19.685  0.00  0.00    +0.000 C 
ENDBRANCH  22  28
ENDBRANCH  19  22
ENDBRANCH   1  19
TORSDOF 6
ENDMDL
MODEL 2
REMARK VINA RESULT:      -8.3      3.338      4.688
REMARK  Name = 
REMARK  8 active torsions:
REMARK  status: ('A' for Active; 'I' for Inactive)
REMARK    1  A    between atoms: C_1  and  C_2
REMARK    2  A    between atoms: C_5  and  N_6
REMARK    3  A    between atoms: N_6  and  S_7
REMARK    4  A    between atoms: S_7  and  C_10
REMARK    5  A    between atoms: C_12  and  C_13
REMARK    6  A    between atoms: N_15  and  C_16
REMARK    7  A    between atoms: C_16  and  C_17
REMARK    8  A    between atoms: C_28  and  C_29
REMARK                            x       y       z     vdW  Elec       q    Type
REMARK                         _______ _______ _______ _____ _____    ______ ____
ROOT
ATOM      1  C   UNL     1       4.783   5.968  18.398  0.00  0.00    +0.000 A 
ATOM      2  C   UNL     1       3.901   6.063  19.489  0.00  0.00    +0.000 A 
ATOM      3  C   UNL     1       2.755   6.861  19.417  0.00  0.00    +0.000 A 
ATOM      4  C   UNL     1       2.470   7.533  18.221  0.00  0.00    +0.000 A 
ATOM      5  C   UNL     1       3.347   7.439  17.134  0.00  0.00    +0.000 A 
ATOM      6  C   UNL     1       4.515   6.667  17.220  0.00  0.00    +0.000 A 
ATOM      7 CL   UNL     1       5.526   6.626  15.822  0.00  0.00    +0.000 Cl
ENDROOT
BRANCH   3   8
ATOM      8  C   UNL     1       1.825   7.017  20.574  0.00  0.00    +0.000 C 
ATOM      9  O   UNL     1       1.208   6.049  21.005  0.00  0.00    +0.000 OA
ATOM     10  N   UNL     1       1.686   8.291  21.075  0.00  0.00    +0.000 N 
ATOM     11  H   UNL     1       2.200   9.072  20.696  0.00  0.00    +0.000 HD
BRANCH  10  12
ATOM     12  C   UNL     1       0.831   8.597  22.205  0.00  0.00    +0.000 C 
BRANCH  12  13
ATOM     13  C   UNL     1       0.302  10.012  22.163  0.00  0.00    +0.000 A 
ATOM     14  C   UNL     1      -0.759  10.390  22.985  0.00  0.00    +0.000 A 
ATOM     15  C   UNL     1      -1.249  11.690  22.894  0.00  0.00    +0.000 A 
ATOM     16  C   UNL     1      -0.663  12.582  22.005  0.00  0.00    +0.000 A 
ATOM     17  C   UNL     1       0.405  12.135  21.243  0.00  0.00    +0.000 A 
ATOM     18  N   UNL     1       0.901  10.879  21.302  0.00  0.00    +0.000 NA
ENDBRANCH  12  13
ENDBRANCH  10  12
ENDBRANCH   3   8
BRANCH   1  19
ATOM     19  S   UNL     1       6.253   4.995  18.620  0.00  0.00    +0.000 S 
ATOM     20  O   UNL     1       6.942   5.502  19.789  0.00  0.00    +0.000 OA
ATOM     21  O   UNL     1       6.936   4.943  17.344  0.00  0.00    +0.000 OA
BRANCH  19  22
ATOM     22  N   UNL     1       5.722   3.451  18.966  0.00  0.00    +0.000 N 
ATOM     23  H   UNL     1       6.431   2.732  19.091  0.00  0.00    +0.000 HD
BRANCH  22  28
ATOM     24  C   UNL     1       0.182   2.038  18.881  0.00  0.00    +0.000 C 
ATOM     25  C   UNL     1       1.641   2.402  18.942  0.00  0.00    +0.000 A 
ATOM     26  C   UNL     1       2.371   2.494  17.748  0.00  0.00    +0.000 A 
ATOM     27  C   UNL     1       3.722   2.836  17.763  0.00  0.00    +0.000 A 
ATOM     28  C   UNL     1       4.350   3.121  18.970  0.00  0.00    +0.000 A 
ATOM     29  C   UNL     1       3.647   3.020  20.168  0.00  0.00    +0.000 A 
ATOM     30  C   UNL     1       2.291   2.650  20.170  0.00  0.00    +0.000 A 
ATOM     31  C   UNL     1       1.558   2.516  21.477  0.00  0.00    +0.000 C 
ENDBRANCH  22  28
ENDBRANCH  19  22
ENDBRANCH   1  19
TORSDOF 6
ENDMDL
MODEL 3
REMARK VINA RESULT:      -8.2      0.750      1.569
REMARK  Name = 
REMARK  8 active torsions:
REMARK  status: ('A' for Active; 'I' for Inactive)
REMARK    1  A    between atoms: C_1  and  C_2
REMARK    2  A    between atoms: C_5  and  N_6
REMARK    3  A    between atoms: N_6  and  S_7
REMARK    4  A    between atoms: S_7  and  C_10
REMARK    5  A    between atoms: C_12  and  C_13
REMARK    6  A    between atoms: N_15  and  C_16
REMARK    7  A    between atoms: C_16  and  C_17
REMARK    8  A    between atoms: C_28  and  C_29
REMARK                            x       y       z     vdW  Elec       q    Type
REMARK                         _______ _______ _______ _____ _____    ______ ____
ROOT
ATOM      1  C   UNL     1       2.340   4.387  19.080  0.00  0.00    +0.000 A 
ATOM      2  C   UNL     1       2.302   5.629  18.421  0.00  0.00    +0.000 A 
ATOM      3  C   UNL     1       2.033   6.805  19.126  0.00  0.00    +0.000 A 
ATOM      4  C   UNL     1       1.845   6.738  20.513  0.00  0.00    +0.000 A 
ATOM      5  C   UNL     1       1.883   5.503  21.170  0.00  0.00    +0.000 A 
ATOM      6  C   UNL     1       2.117   4.319  20.456  0.00  0.00    +0.000 A 
ATOM      7 CL   UNL     1       2.139   2.852  21.365  0.00  0.00    +0.000 Cl
ENDROOT
BRANCH   3   8
ATOM      8  C   UNL     1       1.941   8.132  18.447  0.00  0.00    +0.000 C 
ATOM      9  O   UNL     1       2.440   8.294  17.339  0.00  0.00    +0.000 OA
ATOM     10  N   UNL     1       1.313   9.134  19.151  0.00  0.00    +0.000 N 
ATOM     11  H   UNL     1       0.918   8.976  20.066  0.00  0.00    +0.000 HD
BRANCH  10  12
ATOM     12  C   UNL     1       1.134  10.470  18.617  0.00  0.00    +0.000 C 
BRANCH  12  13
ATOM     13  C   UNL     1      -0.323  10.860  18.515  0.00  0.00    +0.000 A 
ATOM     14  C   UNL     1      -0.816  11.931  19.259  0.00  0.00    +0.000 A 
ATOM     15  C   UNL     1      -2.171  12.241  19.174  0.00  0.00    +0.000 A 
ATOM     16  C   UNL     1      -2.993  11.492  18.341  0.00  0.00    +0.000 A 
ATOM     17  C   UNL     1      -2.419  10.461  17.615  0.00  0.00    +0.000 A 
ATOM     18  N   UNL     1      -1.111  10.129  17.680  0.00  0.00    +0.000 NA
ENDBRANCH  12  13
ENDBRANCH  10  12
ENDBRANCH   3   8
BRANCH   1  19
ATOM     19  S   UNL     1       2.608   2.942  18.081  0.00  0.00    +0.000 S 
ATOM     20  O   UNL     1       2.148   3.244  16.741  0.00  0.00    +0.000 OA
ATOM     21  O   UNL     1       2.056   1.811  18.797  0.00  0.00    +0.000 OA
BRANCH  19  22
ATOM     22  N   UNL     1       4.263   2.737  18.021  0.00  0.00    +0.000 N 
ATOM     23  H   UNL     1       4.622   1.796  18.169  0.00  0.00    +0.000 HD
BRANCH  22  28
ATOM     24  C   UNL     1       7.882   7.145  17.604  0.00  0.00    +0.000 C 
ATOM     25  C   UNL     1       6.938   5.975  17.677  0.00  0.00    +0.000 A 
ATOM     26  C   UNL     1       6.471   5.553  18.930  0.00  0.00    +0.000 A 
ATOM     27  C   UNL     1       5.591   4.478  19.038  0.00  0.00    +0.000 A 
ATOM     28  C   UNL     1       5.143   3.832  17.891  0.00  0.00    +0.000 A 
ATOM     29  C   UNL     1       5.607   4.225  16.638  0.00  0.00    +0.000 A 
ATOM     30  C   UNL     1       6.516   5.291  16.517  0.00  0.00    +0.000 A 
ATOM     31  C   UNL     1       7.030   5.679  15.157  0.00  0.00    +0.000 C 
ENDBRANCH  22  28
ENDBRANCH  19  22
ENDBRANCH   1  19
TORSDOF 6
ENDMDL
MODEL 4
REMARK VINA RESULT:      -8.2      1.197      1.439
REMARK  Name = 
REMARK  8 active torsions:
REMARK  status: ('A' for Active; 'I' for Inactive)
REMARK    1  A    between atoms: C_1  and  C_2
REMARK    2  A    between atoms: C_5  and  N_6
REMARK    3  A    between atoms: N_6  and  S_7
REMARK    4  A    between atoms: S_7  and  C_10
REMARK    5  A    between atoms: C_12  and  C_13
REMARK    6  A    between atoms: N_15  and  C_16
REMARK    7  A    between atoms: C_16  and  C_17
REMARK    8  A    between atoms: C_28  and  C_29
REMARK                            x       y       z     vdW  Elec       q    Type
REMARK                         _______ _______ _______ _____ _____    ______ ____
ROOT
ATOM      1  C   UNL     1       3.033   4.145  19.392  0.00  0.00    +0.000 A 
ATOM      2  C   UNL     1       3.025   5.378  18.715  0.00  0.00    +0.000 A 
ATOM      3  C   UNL     1       2.355   6.483  19.249  0.00  0.00    +0.000 A 
ATOM      4  C   UNL     1       1.726   6.359  20.495  0.00  0.00    +0.000 A 
ATOM      5  C   UNL     1       1.733   5.132  21.168  0.00  0.00    +0.000 A 
ATOM      6  C   UNL     1       2.375   4.015  20.615  0.00  0.00    +0.000 A 
ATOM      7 CL   UNL     1       2.318   2.552  21.529  0.00  0.00    +0.000 Cl
ENDROOT
BRANCH   3   8
ATOM      8  C   UNL     1       2.292   7.792  18.533  0.00  0.00    +0.000 C 
ATOM      9  O   UNL     1       2.935   7.964  17.504  0.00  0.00    +0.000 OA
ATOM     10  N   UNL     1       1.517   8.768  19.118  0.00  0.00    +0.000 N 
ATOM     11  H   UNL     1       1.004   8.602  19.970  0.00  0.00    +0.000 HD
BRANCH  10  12
ATOM     12  C   UNL     1       1.346  10.083  18.533  0.00  0.00    +0.000 C 
BRANCH  12  13
ATOM     13  C   UNL     1       0.278  10.892  19.234  0.00  0.00    +0.000 A 
ATOM     14  C   UNL     1      -0.489  11.810  18.519  0.00  0.00    +0.000 A 
ATOM     15  C   UNL     1      -1.437  12.569  19.201  0.00  0.00    +0.000 A 
ATOM     16  C   UNL     1      -1.608  12.384  20.567  0.00  0.00    +0.000 A 
ATOM     17  C   UNL     1      -0.823  11.432  21.198  0.00  0.00    +0.000 A 
ATOM     18  N   UNL     1       0.110  10.684  20.569  0.00  0.00    +0.000 NA
ENDBRANCH  12  13
ENDBRANCH  10  12
ENDBRANCH   3   8
BRANCH   1  19
ATOM     19  S   UNL     1       3.841   2.781  18.590  0.00  0.00    +0.000 S 
ATOM     20  O   UNL     1       2.812   1.874  18.124  0.00  0.00    +0.000 OA
ATOM     21  O   UNL     1       4.875   2.303  19.484  0.00  0.00    +0.000 OA
BRANCH  19  22
ATOM     22  N   UNL     1       4.598   3.429  17.252  0.00  0.00    +0.000 N 
ATOM     23  H   UNL     1       4.498   2.929  16.371  0.00  0.00    +0.000 HD
BRANCH  22  28
ATOM     24  C   UNL     1       7.920   8.071  17.603  0.00  0.00    +0.000 C 
ATOM     25  C   UNL     1       7.056   6.839  17.546  0.00  0.00    +0.000 A 
ATOM     26  C   UNL     1       6.074   6.740  16.551  0.00  0.00    +0.000 A 
ATOM     27  C   UNL     1       5.261   5.612  16.461  0.00  0.00    +0.000 A 
ATOM     28  C   UNL     1       5.441   4.557  17.349  0.00  0.00    +0.000 A 
ATOM     29  C   UNL     1       6.400   4.642  18.355  0.00  0.00    +0.000 A 
ATOM     30  C   UNL     1       7.209   5.786  18.473  0.00  0.00    +0.000 A 
ATOM     31  C   UNL     1       8.217   5.871  19.586  0.00  0.00    +0.000 C 
ENDBRANCH  22  28
ENDBRANCH  19  22
ENDBRANCH   1  19
TORSDOF 6
ENDMDL
MODEL 5
REMARK VINA RESULT:      -8.1      0.477      1.360
REMARK  Name = 
REMARK  8 active torsions:
REMARK  status: ('A' for Active; 'I' for Inactive)
REMARK    1  A    between atoms: C_1  and  C_2
REMARK    2  A    between atoms: C_5  and  N_6
REMARK    3  A    between atoms: N_6  and  S_7
REMARK    4  A    between atoms: S_7  and  C_10
REMARK    5  A    between atoms: C_12  and  C_13
REMARK    6  A    between atoms: N_15  and  C_16
REMARK    7  A    between atoms: C_16  and  C_17
REMARK    8  A    between atoms: C_28  and  C_29
REMARK                            x       y       z     vdW  Elec       q    Type
REMARK                         _______ _______ _______ _____ _____    ______ ____
ROOT
ATOM      1  C   UNL     1       2.439   4.261  19.139  0.00  0.00    +0.000 A 
ATOM      2  C   UNL     1       2.437   5.517  18.506  0.00  0.00    +0.000 A 
ATOM      3  C   UNL     1       2.137   6.679  19.222  0.00  0.00    +0.000 A 
ATOM      4  C   UNL     1       1.881   6.583  20.597  0.00  0.00    +0.000 A 
ATOM      5  C   UNL     1       1.883   5.334  21.227  0.00  0.00    +0.000 A 
ATOM      6  C   UNL     1       2.149   4.164  20.500  0.00  0.00    +0.000 A 
ATOM      7 CL   UNL     1       2.121   2.679  21.378  0.00  0.00    +0.000 Cl
ENDROOT
BRANCH   3   8
ATOM      8  C   UNL     1       2.083   8.021  18.569  0.00  0.00    +0.000 C 
ATOM      9  O   UNL     1       2.719   8.233  17.541  0.00  0.00    +0.000 OA
ATOM     10  N   UNL     1       1.326   8.978  19.205  0.00  0.00    +0.000 N 
ATOM     11  H   UNL     1       0.819   8.778  20.054  0.00  0.00    +0.000 HD
BRANCH  10  12
ATOM     12  C   UNL     1       1.166  10.321  18.683  0.00  0.00    +0.000 C 
BRANCH  12  13
ATOM     13  C   UNL     1      -0.286  10.708  18.523  0.00  0.00    +0.000 A 
ATOM     14  C   UNL     1      -1.107  10.006  17.643  0.00  0.00    +0.000 A 
ATOM     15  C   UNL     1      -2.430  10.412  17.488  0.00  0.00    +0.000 A 
ATOM     16  C   UNL     1      -2.905  11.492  18.222  0.00  0.00    +0.000 A 
ATOM     17  C   UNL     1      -2.031  12.120  19.095  0.00  0.00    +0.000 A 
ATOM     18  N   UNL     1      -0.741  11.756  19.264  0.00  0.00    +0.000 NA
ENDBRANCH  12  13
ENDBRANCH  10  12
ENDBRANCH   3   8
BRANCH   1  19
ATOM     19  S   UNL     1       2.751   2.837  18.123  0.00  0.00    +0.000 S 
ATOM     20  O   UNL     1       2.072   3.042  16.860  0.00  0.00    +0.000 OA
ATOM     21  O   UNL     1       2.458   1.664  18.919  0.00  0.00    +0.000 OA
BRANCH  19  22
ATOM     22  N   UNL     1       4.393   2.845  17.829  0.00  0.00    +0.000 N 
ATOM     23  H   UNL     1       4.873   1.948  17.836  0.00  0.00    +0.000 HD
BRANCH  22  28
ATOM     24  C   UNL     1       7.428   7.668  17.340  0.00  0.00    +0.000 C 
ATOM     25  C   UNL     1       6.619   6.401  17.431  0.00  0.00    +0.000 A 
ATOM     26  C   UNL     1       6.793   5.560  18.539  0.00  0.00    +0.000 A 
ATOM     27  C   UNL     1       6.058   4.382  18.663  0.00  0.00    +0.000 A 
ATOM     28  C   UNL     1       5.118   4.049  17.694  0.00  0.00    +0.000 A 
ATOM     29  C   UNL     1       4.942   4.862  16.577  0.00  0.00    +0.000 A 
ATOM     30  C   UNL     1       5.696   6.039  16.427  0.00  0.00    +0.000 A 
ATOM     31  C   UNL     1       5.513   6.888  15.198  0.00  0.00    +0.000 C 
ENDBRANCH  22  28
ENDBRANCH  19  22
ENDBRANCH   1  19
TORSDOF 6
ENDMDL
MODEL 6
REMARK VINA RESULT:      -8.1      1.552      2.045
REMARK  Name = 
REMARK  8 active torsions:
REMARK  status: ('A' for Active; 'I' for Inactive)
REMARK    1  A    between atoms: C_1  and  C_2
REMARK    2  A    between atoms: C_5  and  N_6
REMARK    3  A    between atoms: N_6  and  S_7
REMARK    4  A    between atoms: S_7  and  C_10
REMARK    5  A    between atoms: C_12  and  C_13
REMARK    6  A    between atoms: N_15  and  C_16
REMARK    7  A    between atoms: C_16  and  C_17
REMARK    8  A    between atoms: C_28  and  C_29
REMARK                            x       y       z     vdW  Elec       q    Type
REMARK                         _______ _______ _______ _____ _____    ______ ____
ROOT
ATOM      1  C   UNL     1       2.829   4.464  18.966  0.00  0.00    +0.000 A 
ATOM      2  C   UNL     1       2.760   5.687  18.275  0.00  0.00    +0.000 A 
ATOM      3  C   UNL     1       2.311   6.846  18.914  0.00  0.00    +0.000 A 
ATOM      4  C   UNL     1       1.971   6.784  20.272  0.00  0.00    +0.000 A 
ATOM      5  C   UNL     1       2.040   5.567  20.960  0.00  0.00    +0.000 A 
ATOM      6  C   UNL     1       2.457   4.398  20.308  0.00  0.00    +0.000 A 
ATOM      7 CL   UNL     1       2.500   2.953  21.252  0.00  0.00    +0.000 Cl
ENDROOT
BRANCH   3   8
ATOM      8  C   UNL     1       2.184   8.148  18.195  0.00  0.00    +0.000 C 
ATOM      9  O   UNL     1       2.812   8.346  17.161  0.00  0.00    +0.000 OA
ATOM     10  N   UNL     1       1.370   9.090  18.781  0.00  0.00    +0.000 N 
ATOM     11  H   UNL     1       0.870   8.904  19.638  0.00  0.00    +0.000 HD
BRANCH  10  12
ATOM     12  C   UNL     1       1.135  10.394  18.194  0.00  0.00    +0.000 C 
BRANCH  12  13
ATOM     13  C   UNL     1       1.179  11.505  19.218  0.00  0.00    +0.000 A 
ATOM     14  C   UNL     1       0.342  11.466  20.332  0.00  0.00    +0.000 A 
ATOM     15  C   UNL     1       0.378  12.524  21.237  0.00  0.00    +0.000 A 
ATOM     16  C   UNL     1       1.253  13.581  21.021  0.00  0.00    +0.000 A 
ATOM     17  C   UNL     1       2.071  13.530  19.902  0.00  0.00    +0.000 A 
ATOM     18  N   UNL     1       2.057  12.523  19.002  0.00  0.00    +0.000 NA
ENDBRANCH  12  13
ENDBRANCH  10  12
ENDBRANCH   3   8
BRANCH   1  19
ATOM     19  S   UNL     1       3.334   3.033  18.041  0.00  0.00    +0.000 S 
ATOM     20  O   UNL     1       2.154   2.481  17.408  0.00  0.00    +0.000 OA
ATOM     21  O   UNL     1       4.134   2.208  18.921  0.00  0.00    +0.000 OA
BRANCH  19  22
ATOM     22  N   UNL     1       4.340   3.605  16.840  0.00  0.00    +0.000 N 
ATOM     23  H   UNL     1       4.349   3.098  15.957  0.00  0.00    +0.000 HD
BRANCH  22  28
ATOM     24  C   UNL     1       7.873   8.016  17.718  0.00  0.00    +0.000 C 
ATOM     25  C   UNL     1       6.952   6.841  17.522  0.00  0.00    +0.000 A 
ATOM     26  C   UNL     1       6.005   6.883  16.490  0.00  0.00    +0.000 A 
ATOM     27  C   UNL     1       5.140   5.811  16.272  0.00  0.00    +0.000 A 
ATOM     28  C   UNL     1       5.234   4.673  17.066  0.00  0.00    +0.000 A 
ATOM     29  C   UNL     1       6.158   4.619  18.107  0.00  0.00    +0.000 A 
ATOM     30  C   UNL     1       7.018   5.703  18.354  0.00  0.00    +0.000 A 
ATOM     31  C   UNL     1       7.987   5.636  19.503  0.00  0.00    +0.000 C 
ENDBRANCH  22  28
ENDBRANCH  19  22
ENDBRANCH   1  19
TORSDOF 6
ENDMDL
MODEL 7
REMARK VINA RESULT:      -8.0      1.143      1.826
REMARK  Name = 
REMARK  8 active torsions:
REMARK  status: ('A' for Active; 'I' for Inactive)
REMARK    1  A    between atoms: C_1  and  C_2
REMARK    2  A    between atoms: C_5  and  N_6
REMARK    3  A    between atoms: N_6  and  S_7
REMARK    4  A    between atoms: S_7  and  C_10
REMARK    5  A    between atoms: C_12  and  C_13
REMARK    6  A    between atoms: N_15  and  C_16
REMARK    7  A    between atoms: C_16  and  C_17
REMARK    8  A    between atoms: C_28  and  C_29
REMARK                            x       y       z     vdW  Elec       q    Type
REMARK                         _______ _______ _______ _____ _____    ______ ____
ROOT
ATOM      1  C   UNL     1       2.197   4.520  19.037  0.00  0.00    +0.000 A 
ATOM      2  C   UNL     1       2.339   5.732  18.336  0.00  0.00    +0.000 A 
ATOM      3  C   UNL     1       2.071   6.954  18.959  0.00  0.00    +0.000 A 
ATOM      4  C   UNL     1       1.701   6.962  20.310  0.00  0.00    +0.000 A 
ATOM      5  C   UNL     1       1.559   5.757  21.008  0.00  0.00    +0.000 A 
ATOM      6  C   UNL     1       1.793   4.529  20.372  0.00  0.00    +0.000 A 
ATOM      7 CL   UNL     1       1.585   3.106  21.327  0.00  0.00    +0.000 Cl
ENDROOT
BRANCH   3   8
ATOM      8  C   UNL     1       2.170   8.252  18.228  0.00  0.00    +0.000 C 
ATOM      9  O   UNL     1       2.701   8.301  17.124  0.00  0.00    +0.000 OA
ATOM     10  N   UNL     1       1.673   9.357  18.881  0.00  0.00    +0.000 N 
ATOM     11  H   UNL     1       1.247   9.291  19.794  0.00  0.00    +0.000 HD
BRANCH  10  12
ATOM     12  C   UNL     1       1.684  10.683  18.294  0.00  0.00    +0.000 C 
BRANCH  12  13
ATOM     13  C   UNL     1       0.541  11.541  18.785  0.00  0.00    +0.000 A 
ATOM     14  C   UNL     1       0.609  12.929  18.675  0.00  0.00    +0.000 A 
ATOM     15  C   UNL     1      -0.443  13.695  19.173  0.00  0.00    +0.000 A 
ATOM     16  C   UNL     1      -1.538  13.062  19.748  0.00  0.00    +0.000 A 
ATOM     17  C   UNL     1      -1.539  11.677  19.794  0.00  0.00    +0.000 A 
ATOM     18  N   UNL     1      -0.533  10.905  19.328  0.00  0.00    +0.000 NA
ENDBRANCH  12  13
ENDBRANCH  10  12
ENDBRANCH   3   8
BRANCH   1  19
ATOM     19  S   UNL     1       2.481   3.017  18.133  0.00  0.00    +0.000 S 
ATOM     20  O   UNL     1       2.084   3.250  16.759  0.00  0.00    +0.000 OA
ATOM     21  O   UNL     1       1.879   1.937  18.886  0.00  0.00    +0.000 OA
BRANCH  19  22
ATOM     22  N   UNL     1       4.133   2.783  18.156  0.00  0.00    +0.000 N 
ATOM     23  H   UNL     1       4.468   1.842  18.347  0.00  0.00    +0.000 HD
BRANCH  22  28
ATOM     24  C   UNL     1       7.851   7.113  17.783  0.00  0.00    +0.000 C 
ATOM     25  C   UNL     1       6.880   5.963  17.844  0.00  0.00    +0.000 A 
ATOM     26  C   UNL     1       6.415   5.531  19.094  0.00  0.00    +0.000 A 
ATOM     27  C   UNL     1       5.510   4.475  19.191  0.00  0.00    +0.000 A 
ATOM     28  C   UNL     1       5.037   3.860  18.037  0.00  0.00    +0.000 A 
ATOM     29  C   UNL     1       5.500   4.264  16.787  0.00  0.00    +0.000 A 
ATOM     30  C   UNL     1       6.433   5.310  16.676  0.00  0.00    +0.000 A 
ATOM     31  C   UNL     1       6.944   5.710  15.319  0.00  0.00    +0.000 C 
ENDBRANCH  22  28
ENDBRANCH  19  22
ENDBRANCH   1  19
TORSDOF 6
ENDMDL
MODEL 8
REMARK VINA RESULT:      -8.0      1.622      2.380
REMARK  Name = 
REMARK  8 active torsions:
REMARK  status: ('A' for Active; 'I' for Inactive)
REMARK    1  A    between atoms: C_1  and  C_2
REMARK    2  A    between atoms: C_5  and  N_6
REMARK    3  A    between atoms: N_6  and  S_7
REMARK    4  A    between atoms: S_7  and  C_10
REMARK    5  A    between atoms: C_12  and  C_13
REMARK    6  A    between atoms: N_15  and  C_16
REMARK    7  A    between atoms: C_16  and  C_17
REMARK    8  A    between atoms: C_28  and  C_29
REMARK                            x       y       z     vdW  Elec       q    Type
REMARK                         _______ _______ _______ _____ _____    ______ ____
ROOT
ATOM      1  C   UNL     1       2.656   4.852  18.947  0.00  0.00    +0.000 A 
ATOM      2  C   UNL     1       2.537   6.067  18.247  0.00  0.00    +0.000 A 
ATOM      3  C   UNL     1       2.115   7.229  18.899  0.00  0.00    +0.000 A 
ATOM      4  C   UNL     1       1.855   7.181  20.275  0.00  0.00    +0.000 A 
ATOM      5  C   UNL     1       1.973   5.973  20.971  0.00  0.00    +0.000 A 
ATOM      6  C   UNL     1       2.361   4.799  20.310  0.00  0.00    +0.000 A 
ATOM      7 CL   UNL     1       2.471   3.366  21.265  0.00  0.00    +0.000 Cl
ENDROOT
BRANCH   3   8
ATOM      8  C   UNL     1       1.936   8.522  18.173  0.00  0.00    +0.000 C 
ATOM      9  O   UNL     1       2.557   8.741  17.139  0.00  0.00    +0.000 OA
ATOM     10  N   UNL     1       1.083   9.433  18.755  0.00  0.00    +0.000 N 
ATOM     11  H   UNL     1       0.591   9.230  19.612  0.00  0.00    +0.000 HD
BRANCH  10  12
ATOM     12  C   UNL     1       0.797  10.724  18.161  0.00  0.00    +0.000 C 
BRANCH  12  13
ATOM     13  C   UNL     1       1.508  11.855  18.868  0.00  0.00    +0.000 A 
ATOM     14  C   UNL     1       2.417  12.654  18.176  0.00  0.00    +0.000 A 
ATOM     15  C   UNL     1       3.086  13.662  18.866  0.00  0.00    +0.000 A 
ATOM     16  C   UNL     1       2.822  13.861  20.215  0.00  0.00    +0.000 A 
ATOM     17  C   UNL     1       1.884  13.040  20.822  0.00  0.00    +0.000 A 
ATOM     18  N   UNL     1       1.223  12.049  20.185  0.00  0.00    +0.000 NA
ENDBRANCH  12  13
ENDBRANCH  10  12
ENDBRANCH   3   8
BRANCH   1  19
ATOM     19  S   UNL     1       3.118   3.414  18.011  0.00  0.00    +0.000 S 
ATOM     20  O   UNL     1       1.921   2.898  17.380  0.00  0.00    +0.000 OA
ATOM     21  O   UNL     1       3.901   2.563  18.882  0.00  0.00    +0.000 OA
BRANCH  19  22
ATOM     22  N   UNL     1       4.133   3.968  16.808  0.00  0.00    +0.000 N 
ATOM     23  H   UNL     1       4.089   3.497  15.907  0.00  0.00    +0.000 HD
BRANCH  22  28
ATOM     24  C   UNL     1       7.964   8.104  17.768  0.00  0.00    +0.000 C 
ATOM     25  C   UNL     1       6.965   6.999  17.550  0.00  0.00    +0.000 A 
ATOM     26  C   UNL     1       5.994   7.147  16.550  0.00  0.00    +0.000 A 
ATOM     27  C   UNL     1       5.057   6.143  16.312  0.00  0.00    +0.000 A 
ATOM     28  C   UNL     1       5.100   4.966  17.053  0.00  0.00    +0.000 A 
ATOM     29  C   UNL     1       6.046   4.807  18.062  0.00  0.00    +0.000 A 
ATOM     30  C   UNL     1       6.981   5.823  18.330  0.00  0.00    +0.000 A 
ATOM     31  C   UNL     1       7.974   5.643  19.445  0.00  0.00    +0.000 C 
ENDBRANCH  22  28
ENDBRANCH  19  22
ENDBRANCH   1  19
TORSDOF 6
ENDMDL
MODEL 9
REMARK VINA RESULT:      -8.0      2.194      2.980
REMARK  Name = 
REMARK  8 active torsions:
REMARK  status: ('A' for Active; 'I' for Inactive)
REMARK    1  A    between atoms: C_1  and  C_2
REMARK    2  A    between atoms: C_5  and  N_6
REMARK    3  A    between atoms: N_6  and  S_7
REMARK    4  A    between atoms: S_7  and  C_10
REMARK    5  A    between atoms: C_12  and  C_13
REMARK    6  A    between atoms: N_15  and  C_16
REMARK    7  A    between atoms: C_16  and  C_17
REMARK    8  A    between atoms: C_28  and  C_29
REMARK                            x       y       z     vdW  Elec       q    Type
REMARK                         _______ _______ _______ _____ _____    ______ ____
ROOT
ATOM      1  C   UNL     1       3.463   4.729  19.155  0.00  0.00    +0.000 A 
ATOM      2  C   UNL     1       3.187   6.108  19.117  0.00  0.00    +0.000 A 
ATOM      3  C   UNL     1       2.174   6.656  19.909  0.00  0.00    +0.000 A 
ATOM      4  C   UNL     1       1.463   5.819  20.779  0.00  0.00    +0.000 A 
ATOM      5  C   UNL     1       1.737   4.448  20.817  0.00  0.00    +0.000 A 
ATOM      6  C   UNL     1       2.729   3.892  19.996  0.00  0.00    +0.000 A 
ATOM      7 CL   UNL     1       2.981   2.189  20.121  0.00  0.00    +0.000 Cl
ENDROOT
BRANCH   3   8
ATOM      8  C   UNL     1       1.827   8.108  19.857  0.00  0.00    +0.000 C 
ATOM      9  O   UNL     1       1.537   8.710  20.885  0.00  0.00    +0.000 OA
ATOM     10  N   UNL     1       1.819   8.687  18.609  0.00  0.00    +0.000 N 
ATOM     11  H   UNL     1       2.055   8.166  17.777  0.00  0.00    +0.000 HD
BRANCH  10  12
ATOM     12  C   UNL     1       1.518  10.090  18.401  0.00  0.00    +0.000 C 
BRANCH  12  13
ATOM     13  C   UNL     1       0.031  10.364  18.383  0.00  0.00    +0.000 A 
ATOM     14  C   UNL     1      -0.799   9.678  17.498  0.00  0.00    +0.000 A 
ATOM     15  C   UNL     1      -2.158   9.982  17.478  0.00  0.00    +0.000 A 
ATOM     16  C   UNL     1      -2.657  10.944  18.348  0.00  0.00    +0.000 A 
ATOM     17  C   UNL     1      -1.769  11.561  19.215  0.00  0.00    +0.000 A 
ATOM     18  N   UNL     1      -0.445  11.295  19.255  0.00  0.00    +0.000 NA
ENDBRANCH  12  13
ENDBRANCH  10  12
ENDBRANCH   3   8
BRANCH   1  19
ATOM     19  S   UNL     1       4.713   4.118  18.050  0.00  0.00    +0.000 S 
ATOM     20  O   UNL     1       4.212   2.896  17.454  0.00  0.00    +0.000 OA
ATOM     21  O   UNL     1       5.966   4.107  18.776  0.00  0.00    +0.000 OA
BRANCH  19  22
ATOM     22  N   UNL     1       4.845   5.261  16.842  0.00  0.00    +0.000 N 
ATOM     23  H   UNL     1       4.373   6.151  16.988  0.00  0.00    +0.000 HD
BRANCH  22  28
ATOM     24  C   UNL     1       7.523   4.078  11.930  0.00  0.00    +0.000 C 
ATOM     25  C   UNL     1       6.788   4.366  13.212  0.00  0.00    +0.000 A 
ATOM     26  C   UNL     1       7.484   4.952  14.279  0.00  0.00    +0.000 A 
ATOM     27  C   UNL     1       6.837   5.241  15.479  0.00  0.00    +0.000 A 
ATOM     28  C   UNL     1       5.479   4.975  15.614  0.00  0.00    +0.000 A 
ATOM     29  C   UNL     1       4.773   4.378  14.572  0.00  0.00    +0.000 A 
ATOM     30  C   UNL     1       5.420   4.057  13.365  0.00  0.00    +0.000 A 
ATOM     31  C   UNL     1       4.647   3.385  12.264  0.00  0.00    +0.000 C 
ENDBRANCH  22  28
ENDBRANCH  19  22
ENDBRANCH   1  19
TORSDOF 6
ENDMDL
