MODEL 1
REMARK VINA RESULT:      -6.8      0.000      0.000
REMARK  Name = 
REMARK  7 active torsions:
REMARK  status: ('A' for Active; 'I' for Inactive)
REMARK    1  A    between atoms: C_2  and  S_3
REMARK    2  A    between atoms: S_3  and  C_4
REMARK    3  A    between atoms: C_4  and  C_5
REMARK    4  A    between atoms: C_5  and  O_6
REMARK    5  A    between atoms: O_6  and  C_7
REMARK    6  A    between atoms: C_12  and  O_13
REMARK    7  A    between atoms: O_13  and  C_14
REMARK                            x       y       z     vdW  Elec       q    Type
REMARK                         _______ _______ _______ _____ _____    ______ ____
ROOT
ATOM      1  C   UNL     1       2.445   4.329  18.384  0.00  0.00    +0.000 A 
ATOM      2  C   UNL     1       1.671   3.164  18.261  0.00  0.00    +0.000 A 
ATOM      3  C   UNL     1       0.897   2.692  19.321  0.00  0.00    +0.000 A 
ATOM      4  C   UNL     1       0.917   3.358  20.539  0.00  0.00    +0.000 A 
ATOM      5  C   UNL     1       1.696   4.508  20.680  0.00  0.00    +0.000 A 
ATOM      6  C   UNL     1       2.408   5.045  19.591  0.00  0.00    +0.000 A 
ENDROOT
BRANCH   1   7
ATOM      7  O   UNL     1       3.093   4.648  17.224  0.00  0.00    +0.000 OA
BRANCH   7   8
ATOM      8  C   UNL     1       4.463   4.273  17.078  0.00  0.00    +0.000 C 
BRANCH   8   9
ATOM      9  C   UNL     1       5.165   5.300  16.172  0.00  0.00    +0.000 C 
BRANCH   9  10
ATOM     10  S   UNL     1       6.847   4.783  15.683  0.00  0.00    +0.000 S 
BRANCH  10  12
ATOM     11  N   UNL     1       7.933   4.480  18.300  0.00  0.00    +0.000 NA
ATOM     12  C   UNL     1       7.492   4.600  17.236  0.00  0.00    +0.000 C 
ENDBRANCH  10  12
ENDBRANCH   9  10
ENDBRANCH   8   9
ENDBRANCH   7   8
ENDBRANCH   1   7
BRANCH   6  13
ATOM     13  O   UNL     1       3.063   6.259  19.697  0.00  0.00    +0.000 OA
BRANCH  13  14
ATOM     14  C   UNL     1       2.373   7.414  19.374  0.00  0.00    +0.000 A 
ATOM     15  C   UNL     1       1.684   8.051  20.410  0.00  0.00    +0.000 A 
ATOM     16  C   UNL     1       0.949   9.212  20.153  0.00  0.00    +0.000 A 
ATOM     17  C   UNL     1       0.897   9.740  18.860  0.00  0.00    +0.000 A 
ATOM     18  C   UNL     1       1.598   9.118  17.830  0.00  0.00    +0.000 A 
ATOM     19  C   UNL     1       2.357   7.975  18.091  0.00  0.00    +0.000 A 
ENDBRANCH  13  14
ENDBRANCH   6  13
TORSDOF 7
ENDMDL
MODEL 2
REMARK VINA RESULT:      -6.7      1.084      1.143
REMARK  Name = 
REMARK  7 active torsions:
REMARK  status: ('A' for Active; 'I' for Inactive)
REMARK    1  A    between atoms: C_2  and  S_3
REMARK    2  A    between atoms: S_3  and  C_4
REMARK    3  A    between atoms: C_4  and  C_5
REMARK    4  A    between atoms: C_5  and  O_6
REMARK    5  A    between atoms: O_6  and  C_7
REMARK    6  A    between atoms: C_12  and  O_13
REMARK    7  A    between atoms: O_13  and  C_14
REMARK                            x       y       z     vdW  Elec       q    Type
REMARK                         _______ _______ _______ _____ _____    ______ ____
ROOT
ATOM      1  C   UNL     1       2.558   4.440  18.331  0.00  0.00    +0.000 A 
ATOM      2  C   UNL     1       1.830   3.270  18.066  0.00  0.00    +0.000 A 
ATOM      3  C   UNL     1       0.908   2.765  18.982  0.00  0.00    +0.000 A 
ATOM      4  C   UNL     1       0.729   3.405  20.202  0.00  0.00    +0.000 A 
ATOM      5  C   UNL     1       1.460   4.560  20.486  0.00  0.00    +0.000 A 
ATOM      6  C   UNL     1       2.324   5.129  19.531  0.00  0.00    +0.000 A 
ENDROOT
BRANCH   1   7
ATOM      7  O   UNL     1       3.374   4.793  17.292  0.00  0.00    +0.000 OA
BRANCH   7   8
ATOM      8  C   UNL     1       4.536   4.004  17.035  0.00  0.00    +0.000 C 
BRANCH   8   9
ATOM      9  C   UNL     1       5.550   4.231  18.171  0.00  0.00    +0.000 C 
BRANCH   9  10
ATOM     10  S   UNL     1       6.406   5.839  18.048  0.00  0.00    +0.000 S 
BRANCH  10  12
ATOM     11  N   UNL     1       7.416   5.543  15.401  0.00  0.00    +0.000 NA
ATOM     12  C   UNL     1       7.003   5.664  16.476  0.00  0.00    +0.000 C 
ENDBRANCH  10  12
ENDBRANCH   9  10
ENDBRANCH   8   9
ENDBRANCH   7   8
ENDBRANCH   1   7
BRANCH   6  13
ATOM     13  O   UNL     1       2.937   6.347  19.762  0.00  0.00    +0.000 OA
BRANCH  13  14
ATOM     14  C   UNL     1       2.251   7.505  19.439  0.00  0.00    +0.000 A 
ATOM     15  C   UNL     1       1.572   8.150  20.478  0.00  0.00    +0.000 A 
ATOM     16  C   UNL     1       0.842   9.314  20.221  0.00  0.00    +0.000 A 
ATOM     17  C   UNL     1       0.784   9.837  18.927  0.00  0.00    +0.000 A 
ATOM     18  C   UNL     1       1.475   9.208  17.895  0.00  0.00    +0.000 A 
ATOM     19  C   UNL     1       2.229   8.062  18.155  0.00  0.00    +0.000 A 
ENDBRANCH  13  14
ENDBRANCH   6  13
TORSDOF 7
ENDMDL
MODEL 3
REMARK VINA RESULT:      -6.7      0.759      1.343
REMARK  Name = 
REMARK  7 active torsions:
REMARK  status: ('A' for Active; 'I' for Inactive)
REMARK    1  A    between atoms: C_2  and  S_3
REMARK    2  A    between atoms: S_3  and  C_4
REMARK    3  A    between atoms: C_4  and  C_5
REMARK    4  A    between atoms: C_5  and  O_6
REMARK    5  A    between atoms: O_6  and  C_7
REMARK    6  A    between atoms: C_12  and  O_13
REMARK    7  A    between atoms: O_13  and  C_14
REMARK                            x       y       z     vdW  Elec       q    Type
REMARK                         _______ _______ _______ _____ _____    ______ ____
ROOT
ATOM      1  C   UNL     1       2.474   4.312  18.361  0.00  0.00    +0.000 A 
ATOM      2  C   UNL     1       1.711   3.143  18.217  0.00  0.00    +0.000 A 
ATOM      3  C   UNL     1       0.917   2.661  19.258  0.00  0.00    +0.000 A 
ATOM      4  C   UNL     1       0.905   3.325  20.477  0.00  0.00    +0.000 A 
ATOM      5  C   UNL     1       1.671   4.479  20.640  0.00  0.00    +0.000 A 
ATOM      6  C   UNL     1       2.404   5.025  19.568  0.00  0.00    +0.000 A 
ENDROOT
BRANCH   1   7
ATOM      7  O   UNL     1       3.145   4.640  17.217  0.00  0.00    +0.000 OA
BRANCH   7   8
ATOM      8  C   UNL     1       4.565   4.489  17.188  0.00  0.00    +0.000 C 
BRANCH   8   9
ATOM      9  C   UNL     1       5.201   5.843  16.830  0.00  0.00    +0.000 C 
BRANCH   9  10
ATOM     10  S   UNL     1       7.017   5.849  17.028  0.00  0.00    +0.000 S 
BRANCH  10  12
ATOM     11  N   UNL     1       7.099   5.371  19.836  0.00  0.00    +0.000 NA
ATOM     12  C   UNL     1       7.068   5.567  18.695  0.00  0.00    +0.000 C 
ENDBRANCH  10  12
ENDBRANCH   9  10
ENDBRANCH   8   9
ENDBRANCH   7   8
ENDBRANCH   1   7
BRANCH   6  13
ATOM     13  O   UNL     1       3.048   6.243  19.693  0.00  0.00    +0.000 OA
BRANCH  13  14
ATOM     14  C   UNL     1       2.318   7.401  19.488  0.00  0.00    +0.000 A 
ATOM     15  C   UNL     1       2.315   7.927  18.192  0.00  0.00    +0.000 A 
ATOM     16  C   UNL     1       1.615   9.106  17.917  0.00  0.00    +0.000 A 
ATOM     17  C   UNL     1       0.917   9.764  18.934  0.00  0.00    +0.000 A 
ATOM     18  C   UNL     1       0.903   9.231  20.220  0.00  0.00    +0.000 A 
ATOM     19  C   UNL     1       1.578   8.038  20.491  0.00  0.00    +0.000 A 
ENDBRANCH  13  14
ENDBRANCH   6  13
TORSDOF 7
ENDMDL
MODEL 4
REMARK VINA RESULT:      -6.7      1.234      1.251
REMARK  Name = 
REMARK  7 active torsions:
REMARK  status: ('A' for Active; 'I' for Inactive)
REMARK    1  A    between atoms: C_2  and  S_3
REMARK    2  A    between atoms: S_3  and  C_4
REMARK    3  A    between atoms: C_4  and  C_5
REMARK    4  A    between atoms: C_5  and  O_6
REMARK    5  A    between atoms: O_6  and  C_7
REMARK    6  A    between atoms: C_12  and  O_13
REMARK    7  A    between atoms: O_13  and  C_14
REMARK                            x       y       z     vdW  Elec       q    Type
REMARK                         _______ _______ _______ _____ _____    ______ ____
ROOT
ATOM      1  C   UNL     1       3.265   3.780  18.700  0.00  0.00    +0.000 A 
ATOM      2  C   UNL     1       2.637   2.616  18.231  0.00  0.00    +0.000 A 
ATOM      3  C   UNL     1       1.353   2.265  18.648  0.00  0.00    +0.000 A 
ATOM      4  C   UNL     1       0.692   3.057  19.578  0.00  0.00    +0.000 A 
ATOM      5  C   UNL     1       1.312   4.208  20.066  0.00  0.00    +0.000 A 
ATOM      6  C   UNL     1       2.568   4.620  19.582  0.00  0.00    +0.000 A 
ENDROOT
BRANCH   1   7
ATOM      7  O   UNL     1       4.497   3.969  18.139  0.00  0.00    +0.000 OA
BRANCH   7   8
ATOM      8  C   UNL     1       4.575   4.544  16.834  0.00  0.00    +0.000 C 
BRANCH   8   9
ATOM      9  C   UNL     1       5.963   4.246  16.242  0.00  0.00    +0.000 C 
BRANCH   9  10
ATOM     10  S   UNL     1       7.327   4.691  17.372  0.00  0.00    +0.000 S 
BRANCH  10  12
ATOM     11  N   UNL     1       7.180   7.520  17.071  0.00  0.00    +0.000 NA
ATOM     12  C   UNL     1       7.238   6.369  17.192  0.00  0.00    +0.000 C 
ENDBRANCH  10  12
ENDBRANCH   9  10
ENDBRANCH   8   9
ENDBRANCH   7   8
ENDBRANCH   1   7
BRANCH   6  13
ATOM     13  O   UNL     1       3.115   5.832  19.964  0.00  0.00    +0.000 OA
BRANCH  13  14
ATOM     14  C   UNL     1       2.541   6.997  19.484  0.00  0.00    +0.000 A 
ATOM     15  C   UNL     1       1.787   7.751  20.388  0.00  0.00    +0.000 A 
ATOM     16  C   UNL     1       1.163   8.929  19.968  0.00  0.00    +0.000 A 
ATOM     17  C   UNL     1       1.288   9.357  18.643  0.00  0.00    +0.000 A 
ATOM     18  C   UNL     1       2.054   8.618  17.746  0.00  0.00    +0.000 A 
ATOM     19  C   UNL     1       2.702   7.457  18.171  0.00  0.00    +0.000 A 
ENDBRANCH  13  14
ENDBRANCH   6  13
TORSDOF 7
ENDMDL
MODEL 5
REMARK VINA RESULT:      -6.5      1.671      1.899
REMARK  Name = 
REMARK  7 active torsions:
REMARK  status: ('A' for Active; 'I' for Inactive)
REMARK    1  A    between atoms: C_2  and  S_3
REMARK    2  A    between atoms: S_3  and  C_4
REMARK    3  A    between atoms: C_4  and  C_5
REMARK    4  A    between atoms: C_5  and  O_6
REMARK    5  A    between atoms: O_6  and  C_7
REMARK    6  A    between atoms: C_12  and  O_13
REMARK    7  A    between atoms: O_13  and  C_14
REMARK                            x       y       z     vdW  Elec       q    Type
REMARK                         _______ _______ _______ _____ _____    ______ ____
ROOT
ATOM      1  C   UNL     1       3.998   3.752  18.959  0.00  0.00    +0.000 A 
ATOM      2  C   UNL     1       3.662   2.586  18.253  0.00  0.00    +0.000 A 
ATOM      3  C   UNL     1       2.337   2.276  17.953  0.00  0.00    +0.000 A 
ATOM      4  C   UNL     1       1.318   3.111  18.392  0.00  0.00    +0.000 A 
ATOM      5  C   UNL     1       1.636   4.265  19.110  0.00  0.00    +0.000 A 
ATOM      6  C   UNL     1       2.976   4.635  19.338  0.00  0.00    +0.000 A 
ENDROOT
BRANCH   1   7
ATOM      7  O   UNL     1       5.349   3.897  19.112  0.00  0.00    +0.000 OA
BRANCH   7   8
ATOM      8  C   UNL     1       5.993   5.011  18.494  0.00  0.00    +0.000 C 
BRANCH   8   9
ATOM      9  C   UNL     1       6.894   4.496  17.359  0.00  0.00    +0.000 C 
BRANCH   9  10
ATOM     10  S   UNL     1       5.965   4.105  15.836  0.00  0.00    +0.000 S 
BRANCH  10  12
ATOM     11  N   UNL     1       7.661   5.458  13.989  0.00  0.00    +0.000 NA
ATOM     12  C   UNL     1       6.973   4.905  14.739  0.00  0.00    +0.000 C 
ENDBRANCH  10  12
ENDBRANCH   9  10
ENDBRANCH   8   9
ENDBRANCH   7   8
ENDBRANCH   1   7
BRANCH   6  13
ATOM     13  O   UNL     1       3.289   5.847  19.925  0.00  0.00    +0.000 OA
BRANCH  13  14
ATOM     14  C   UNL     1       2.672   6.992  19.450  0.00  0.00    +0.000 A 
ATOM     15  C   UNL     1       1.813   7.660  20.328  0.00  0.00    +0.000 A 
ATOM     16  C   UNL     1       1.141   8.812  19.909  0.00  0.00    +0.000 A 
ATOM     17  C   UNL     1       1.323   9.300  18.612  0.00  0.00    +0.000 A 
ATOM     18  C   UNL     1       2.193   8.647  17.743  0.00  0.00    +0.000 A 
ATOM     19  C   UNL     1       2.887   7.513  18.169  0.00  0.00    +0.000 A 
ENDBRANCH  13  14
ENDBRANCH   6  13
TORSDOF 7
ENDMDL
MODEL 6
REMARK VINA RESULT:      -6.5      1.147      1.635
REMARK  Name = 
REMARK  7 active torsions:
REMARK  status: ('A' for Active; 'I' for Inactive)
REMARK    1  A    between atoms: C_2  and  S_3
REMARK    2  A    between atoms: S_3  and  C_4
REMARK    3  A    between atoms: C_4  and  C_5
REMARK    4  A    between atoms: C_5  and  O_6
REMARK    5  A    between atoms: O_6  and  C_7
REMARK    6  A    between atoms: C_12  and  O_13
REMARK    7  A    between atoms: O_13  and  C_14
REMARK                            x       y       z     vdW  Elec       q    Type
REMARK                         _______ _______ _______ _____ _____    ______ ____
ROOT
ATOM      1  C   UNL     1       2.646   4.567  18.356  0.00  0.00    +0.000 A 
ATOM      2  C   UNL     1       1.965   3.388  18.014  0.00  0.00    +0.000 A 
ATOM      3  C   UNL     1       1.010   2.829  18.863  0.00  0.00    +0.000 A 
ATOM      4  C   UNL     1       0.750   3.422  20.092  0.00  0.00    +0.000 A 
ATOM      5  C   UNL     1       1.432   4.585  20.452  0.00  0.00    +0.000 A 
ATOM      6  C   UNL     1       2.330   5.208  19.564  0.00  0.00    +0.000 A 
ENDROOT
BRANCH   1   7
ATOM      7  O   UNL     1       3.504   4.976  17.375  0.00  0.00    +0.000 OA
BRANCH   7   8
ATOM      8  C   UNL     1       4.486   4.056  16.896  0.00  0.00    +0.000 C 
BRANCH   8   9
ATOM      9  C   UNL     1       5.631   3.974  17.921  0.00  0.00    +0.000 C 
BRANCH   9  10
ATOM     10  S   UNL     1       6.117   5.609  18.575  0.00  0.00    +0.000 S 
BRANCH  10  12
ATOM     11  N   UNL     1       7.583   6.510  16.304  0.00  0.00    +0.000 NA
ATOM     12  C   UNL     1       6.989   6.146  17.229  0.00  0.00    +0.000 C 
ENDBRANCH  10  12
ENDBRANCH   9  10
ENDBRANCH   8   9
ENDBRANCH   7   8
ENDBRANCH   1   7
BRANCH   6  13
ATOM     13  O   UNL     1       2.896   6.433  19.868  0.00  0.00    +0.000 OA
BRANCH  13  14
ATOM     14  C   UNL     1       2.161   7.581  19.622  0.00  0.00    +0.000 A 
ATOM     15  C   UNL     1       2.162   8.066  18.311  0.00  0.00    +0.000 A 
ATOM     16  C   UNL     1       1.458   9.231  17.995  0.00  0.00    +0.000 A 
ATOM     17  C   UNL     1       0.752   9.917  18.987  0.00  0.00    +0.000 A 
ATOM     18  C   UNL     1       0.734   9.425  20.290  0.00  0.00    +0.000 A 
ATOM     19  C   UNL     1       1.412   8.245  20.601  0.00  0.00    +0.000 A 
ENDBRANCH  13  14
ENDBRANCH   6  13
TORSDOF 7
ENDMDL
MODEL 7
REMARK VINA RESULT:      -6.5      1.227      1.418
REMARK  Name = 
REMARK  7 active torsions:
REMARK  status: ('A' for Active; 'I' for Inactive)
REMARK    1  A    between atoms: C_2  and  S_3
REMARK    2  A    between atoms: S_3  and  C_4
REMARK    3  A    between atoms: C_4  and  C_5
REMARK    4  A    between atoms: C_5  and  O_6
REMARK    5  A    between atoms: O_6  and  C_7
REMARK    6  A    between atoms: C_12  and  O_13
REMARK    7  A    between atoms: O_13  and  C_14
REMARK                            x       y       z     vdW  Elec       q    Type
REMARK                         _______ _______ _______ _____ _____    ______ ____
ROOT
ATOM      1  C   UNL     1       3.614   4.285  18.392  0.00  0.00    +0.000 A 
ATOM      2  C   UNL     1       3.262   3.145  17.653  0.00  0.00    +0.000 A 
ATOM      3  C   UNL     1       2.034   2.511  17.838  0.00  0.00    +0.000 A 
ATOM      4  C   UNL     1       1.152   2.985  18.801  0.00  0.00    +0.000 A 
ATOM      5  C   UNL     1       1.497   4.107  19.555  0.00  0.00    +0.000 A 
ATOM      6  C   UNL     1       2.693   4.810  19.312  0.00  0.00    +0.000 A 
ENDROOT
BRANCH   1   7
ATOM      7  O   UNL     1       4.835   4.783  18.031  0.00  0.00    +0.000 OA
BRANCH   7   8
ATOM      8  C   UNL     1       5.447   4.297  16.836  0.00  0.00    +0.000 C 
BRANCH   8   9
ATOM      9  C   UNL     1       6.949   4.630  16.877  0.00  0.00    +0.000 C 
BRANCH   9  10
ATOM     10  S   UNL     1       7.294   6.263  17.620  0.00  0.00    +0.000 S 
BRANCH  10  12
ATOM     11  N   UNL     1       7.903   5.370  20.256  0.00  0.00    +0.000 NA
ATOM     12  C   UNL     1       7.653   5.734  19.185  0.00  0.00    +0.000 C 
ENDBRANCH  10  12
ENDBRANCH   9  10
ENDBRANCH   8   9
ENDBRANCH   7   8
ENDBRANCH   1   7
BRANCH   6  13
ATOM     13  O   UNL     1       2.965   6.000  19.963  0.00  0.00    +0.000 OA
BRANCH  13  14
ATOM     14  C   UNL     1       2.382   7.162  19.488  0.00  0.00    +0.000 A 
ATOM     15  C   UNL     1       1.655   7.927  20.406  0.00  0.00    +0.000 A 
ATOM     16  C   UNL     1       1.024   9.104  19.991  0.00  0.00    +0.000 A 
ATOM     17  C   UNL     1       1.114   9.519  18.660  0.00  0.00    +0.000 A 
ATOM     18  C   UNL     1       1.853   8.769  17.750  0.00  0.00    +0.000 A 
ATOM     19  C   UNL     1       2.509   7.610  18.168  0.00  0.00    +0.000 A 
ENDBRANCH  13  14
ENDBRANCH   6  13
TORSDOF 7
ENDMDL
MODEL 8
REMARK VINA RESULT:      -6.5      1.304      1.403
REMARK  Name = 
REMARK  7 active torsions:
REMARK  status: ('A' for Active; 'I' for Inactive)
REMARK    1  A    between atoms: C_2  and  S_3
REMARK    2  A    between atoms: S_3  and  C_4
REMARK    3  A    between atoms: C_4  and  C_5
REMARK    4  A    between atoms: C_5  and  O_6
REMARK    5  A    between atoms: O_6  and  C_7
REMARK    6  A    between atoms: C_12  and  O_13
REMARK    7  A    between atoms: O_13  and  C_14
REMARK                            x       y       z     vdW  Elec       q    Type
REMARK                         _______ _______ _______ _____ _____    ______ ____
ROOT
ATOM      1  C   UNL     1       2.477   4.044  18.407  0.00  0.00    +0.000 A 
ATOM      2  C   UNL     1       1.652   2.913  18.305  0.00  0.00    +0.000 A 
ATOM      3  C   UNL     1       0.815   2.527  19.351  0.00  0.00    +0.000 A 
ATOM      4  C   UNL     1       0.821   3.247  20.538  0.00  0.00    +0.000 A 
ATOM      5  C   UNL     1       1.650   4.364  20.661  0.00  0.00    +0.000 A 
ATOM      6  C   UNL     1       2.429   4.815  19.579  0.00  0.00    +0.000 A 
ENDROOT
BRANCH   1   7
ATOM      7  O   UNL     1       3.184   4.278  17.262  0.00  0.00    +0.000 OA
BRANCH   7   8
ATOM      8  C   UNL     1       4.481   3.698  17.126  0.00  0.00    +0.000 C 
BRANCH   8   9
ATOM      9  C   UNL     1       5.538   4.808  17.260  0.00  0.00    +0.000 C 
BRANCH   9  10
ATOM     10  S   UNL     1       5.634   5.880  15.784  0.00  0.00    +0.000 S 
BRANCH  10  12
ATOM     11  N   UNL     1       6.236   3.858  13.869  0.00  0.00    +0.000 NA
ATOM     12  C   UNL     1       5.993   4.678  14.649  0.00  0.00    +0.000 C 
ENDBRANCH  10  12
ENDBRANCH   9  10
ENDBRANCH   8   9
ENDBRANCH   7   8
ENDBRANCH   1   7
BRANCH   6  13
ATOM     13  O   UNL     1       3.139   6.000  19.658  0.00  0.00    +0.000 OA
BRANCH  13  14
ATOM     14  C   UNL     1       2.496   7.180  19.325  0.00  0.00    +0.000 A 
ATOM     15  C   UNL     1       1.789   7.826  20.343  0.00  0.00    +0.000 A 
ATOM     16  C   UNL     1       1.100   9.012  20.073  0.00  0.00    +0.000 A 
ATOM     17  C   UNL     1       1.113   9.556  18.787  0.00  0.00    +0.000 A 
ATOM     18  C   UNL     1       1.833   8.925  17.776  0.00  0.00    +0.000 A 
ATOM     19  C   UNL     1       2.546   7.756  18.050  0.00  0.00    +0.000 A 
ENDBRANCH  13  14
ENDBRANCH   6  13
TORSDOF 7
ENDMDL
MODEL 9
REMARK VINA RESULT:      -6.4      3.576      6.098
REMARK  Name = 
REMARK  7 active torsions:
REMARK  status: ('A' for Active; 'I' for Inactive)
REMARK    1  A    between atoms: C_2  and  S_3
REMARK    2  A    between atoms: S_3  and  C_4
REMARK    3  A    between atoms: C_4  and  C_5
REMARK    4  A    between atoms: C_5  and  O_6
REMARK    5  A    between atoms: O_6  and  C_7
REMARK    6  A    between atoms: C_12  and  O_13
REMARK    7  A    between atoms: O_13  and  C_14
REMARK                            x       y       z     vdW  Elec       q    Type
REMARK                         _______ _______ _______ _____ _____    ______ ____
ROOT
ATOM      1  C   UNL     1       2.144   5.804  19.591  0.00  0.00    +0.000 A 
ATOM      2  C   UNL     1       1.387   5.015  20.471  0.00  0.00    +0.000 A 
ATOM      3  C   UNL     1       1.012   3.714  20.139  0.00  0.00    +0.000 A 
ATOM      4  C   UNL     1       1.357   3.193  18.899  0.00  0.00    +0.000 A 
ATOM      5  C   UNL     1       2.095   3.973  18.007  0.00  0.00    +0.000 A 
ATOM      6  C   UNL     1       2.556   5.254  18.368  0.00  0.00    +0.000 A 
ENDROOT
BRANCH   1   7
ATOM      7  O   UNL     1       2.446   7.029  20.118  0.00  0.00    +0.000 OA
BRANCH   7   8
ATOM      8  C   UNL     1       1.433   7.734  20.836  0.00  0.00    +0.000 C 
BRANCH   8   9
ATOM      9  C   UNL     1       1.211   9.102  20.167  0.00  0.00    +0.000 C 
BRANCH   9  10
ATOM     10  S   UNL     1      -0.266   9.971  20.799  0.00  0.00    +0.000 S 
BRANCH  10  12
ATOM     11  N   UNL     1       0.308   9.735  23.580  0.00  0.00    +0.000 NA
ATOM     12  C   UNL     1       0.072   9.830  22.450  0.00  0.00    +0.000 C 
ENDBRANCH  10  12
ENDBRANCH   9  10
ENDBRANCH   8   9
ENDBRANCH   7   8
ENDBRANCH   1   7
BRANCH   6  13
ATOM     13  O   UNL     1       3.404   5.965  17.538  0.00  0.00    +0.000 OA
BRANCH  13  14
ATOM     14  C   UNL     1       4.715   5.540  17.409  0.00  0.00    +0.000 A 
ATOM     15  C   UNL     1       5.147   5.197  16.125  0.00  0.00    +0.000 A 
ATOM     16  C   UNL     1       6.453   4.741  15.924  0.00  0.00    +0.000 A 
ATOM     17  C   UNL     1       7.331   4.623  17.004  0.00  0.00    +0.000 A 
ATOM     18  C   UNL     1       6.909   4.982  18.281  0.00  0.00    +0.000 A 
ATOM     19  C   UNL     1       5.615   5.466  18.480  0.00  0.00    +0.000 A 
ENDBRANCH  13  14
ENDBRANCH   6  13
TORSDOF 7
ENDMDL
