MODEL 1
REMARK VINA RESULT:      -8.5      0.000      0.000
REMARK  Name = 
REMARK  7 active torsions:
REMARK  status: ('A' for Active; 'I' for Inactive)
REMARK    1  A    between atoms: C_2  and  C_14
REMARK    2  A    between atoms: N_3  and  C_4
REMARK    3  A    between atoms: C_7  and  C_8
REMARK    4  A    between atoms: C_8  and  O_10
REMARK    5  A    between atoms: C_11  and  O_12
REMARK    6  A    between atoms: C_18  and  N_19
REMARK    7  A    between atoms: C_20  and  C_22
REMARK                            x       y       z     vdW  Elec       q    Type
REMARK                         _______ _______ _______ _____ _____    ______ ____
ROOT
ATOM      1  O   UNL     1       2.023   7.954  18.080  0.00  0.00    +0.000 OA
ATOM      2  C   UNL     1       2.314   7.270  19.056  0.00  0.00    +0.000 C 
ATOM      3  N   UNL     1       1.976   7.529  20.378  0.00  0.00    +0.000 N 
ATOM      4  H   UNL     1       2.452   6.991  21.090  0.00  0.00    +0.000 HD
ENDROOT
BRANCH   3   5
ATOM      5  C   UNL     1       1.229   8.644  20.826  0.00  0.00    +0.000 A 
ATOM      6  C   UNL     1       1.019   9.782  20.042  0.00  0.00    +0.000 A 
ATOM      7  C   UNL     1       0.371  10.906  20.565  0.00  0.00    +0.000 A 
ATOM      8  C   UNL     1      -0.090  10.901  21.882  0.00  0.00    +0.000 A 
ATOM      9  C   UNL     1       0.083   9.748  22.653  0.00  0.00    +0.000 A 
ATOM     10  C   UNL     1       0.709   8.615  22.126  0.00  0.00    +0.000 A 
BRANCH   8  11
ATOM     11  C   UNL     1      -0.710  12.146  22.398  0.00  0.00    +0.000 C 
ATOM     12  O   UNL     1      -1.787  12.160  22.970  0.00  0.00    +0.000 OA
BRANCH  11  13
ATOM     13  O   UNL     1       0.031  13.254  22.190  0.00  0.00    +0.000 OA
ATOM     14  H   UNL     1       0.298  13.712  23.015  0.00  0.00    +0.000 HD
ENDBRANCH  11  13
ENDBRANCH   8  11
BRANCH   9  15
ATOM     15  O   UNL     1      -0.327   9.688  23.958  0.00  0.00    +0.000 OA
ATOM     16  H   UNL     1      -1.213  10.105  23.995  0.00  0.00    +0.000 HD
ENDBRANCH   9  15
ENDBRANCH   3   5
BRANCH   2  17
ATOM     17  C   UNL     1       3.176   6.080  18.826  0.00  0.00    +0.000 A 
ATOM     18  C   UNL     1       3.303   5.077  19.791  0.00  0.00    +0.000 A 
ATOM     19  C   UNL     1       4.095   3.966  19.519  0.00  0.00    +0.000 A 
ATOM     20  C   UNL     1       4.741   3.845  18.285  0.00  0.00    +0.000 A 
ATOM     21  C   UNL     1       4.600   4.824  17.296  0.00  0.00    +0.000 A 
ATOM     22  C   UNL     1       3.823   5.952  17.582  0.00  0.00    +0.000 A 
BRANCH  21  23
ATOM     23  N   UNL     1       5.204   4.731  16.023  0.00  0.00    +0.000 N 
ATOM     24  C   UNL     1       6.564   4.749  15.746  0.00  0.00    +0.000 C 
ATOM     25  O   UNL     1       7.451   4.797  16.593  0.00  0.00    +0.000 OA
ATOM     26  H   UNL     1       4.602   4.560  15.223  0.00  0.00    +0.000 HD
BRANCH  24  27
ATOM     27  C   UNL     1       6.882   4.675  14.331  0.00  0.00    +0.000 A 
ATOM     28  C   UNL     1       6.395   3.828  13.352  0.00  0.00    +0.000 A 
ATOM     29  C   UNL     1       7.047   4.173  12.147  0.00  0.00    +0.000 A 
ATOM     30  C   UNL     1       7.897   5.208  12.459  0.00  0.00    +0.000 A 
ATOM     31  O   UNL     1       7.804   5.526  13.779  0.00  0.00    +0.000 OA
ENDBRANCH  24  27
ENDBRANCH  21  23
ENDBRANCH   2  17
TORSDOF 7
ENDMDL
MODEL 2
REMARK VINA RESULT:      -8.3      1.295      1.482
REMARK  Name = 
REMARK  7 active torsions:
REMARK  status: ('A' for Active; 'I' for Inactive)
REMARK    1  A    between atoms: C_2  and  C_14
REMARK    2  A    between atoms: N_3  and  C_4
REMARK    3  A    between atoms: C_7  and  C_8
REMARK    4  A    between atoms: C_8  and  O_10
REMARK    5  A    between atoms: C_11  and  O_12
REMARK    6  A    between atoms: C_18  and  N_19
REMARK    7  A    between atoms: C_20  and  C_22
REMARK                            x       y       z     vdW  Elec       q    Type
REMARK                         _______ _______ _______ _____ _____    ______ ____
ROOT
ATOM      1  O   UNL     1       0.743   5.367  20.562  0.00  0.00    +0.000 OA
ATOM      2  C   UNL     1       1.875   5.711  20.237  0.00  0.00    +0.000 C 
ATOM      3  N   UNL     1       2.349   7.013  20.147  0.00  0.00    +0.000 N 
ATOM      4  H   UNL     1       3.235   7.150  19.675  0.00  0.00    +0.000 HD
ENDROOT
BRANCH   3   5
ATOM      5  C   UNL     1       1.594   8.177  20.418  0.00  0.00    +0.000 A 
ATOM      6  C   UNL     1       1.205   9.080  19.424  0.00  0.00    +0.000 A 
ATOM      7  C   UNL     1       0.555  10.274  19.751  0.00  0.00    +0.000 A 
ATOM      8  C   UNL     1       0.274  10.578  21.083  0.00  0.00    +0.000 A 
ATOM      9  C   UNL     1       0.625   9.657  22.074  0.00  0.00    +0.000 A 
ATOM     10  C   UNL     1       1.252   8.452  21.748  0.00  0.00    +0.000 A 
BRANCH   8  11
ATOM     11  C   UNL     1      -0.357  11.890  21.370  0.00  0.00    +0.000 C 
ATOM     12  O   UNL     1       0.107  12.685  22.170  0.00  0.00    +0.000 OA
BRANCH  11  13
ATOM     13  O   UNL     1      -1.479  12.125  20.659  0.00  0.00    +0.000 OA
ATOM     14  H   UNL     1      -1.331  12.663  19.852  0.00  0.00    +0.000 HD
ENDBRANCH  11  13
ENDBRANCH   8  11
BRANCH   9  15
ATOM     15  O   UNL     1       0.394   9.907  23.400  0.00  0.00    +0.000 OA
ATOM     16  H   UNL     1       0.349   9.037  23.848  0.00  0.00    +0.000 HD
ENDBRANCH   9  15
ENDBRANCH   3   5
BRANCH   2  17
ATOM     17  C   UNL     1       2.824   4.642  19.825  0.00  0.00    +0.000 A 
ATOM     18  C   UNL     1       3.025   3.506  20.613  0.00  0.00    +0.000 A 
ATOM     19  C   UNL     1       3.898   2.516  20.171  0.00  0.00    +0.000 A 
ATOM     20  C   UNL     1       4.551   2.648  18.942  0.00  0.00    +0.000 A 
ATOM     21  C   UNL     1       4.337   3.764  18.126  0.00  0.00    +0.000 A 
ATOM     22  C   UNL     1       3.479   4.769  18.584  0.00  0.00    +0.000 A 
BRANCH  21  23
ATOM     23  N   UNL     1       4.947   3.927  16.863  0.00  0.00    +0.000 N 
ATOM     24  C   UNL     1       6.253   4.326  16.616  0.00  0.00    +0.000 C 
ATOM     25  O   UNL     1       7.093   4.547  17.483  0.00  0.00    +0.000 OA
ATOM     26  H   UNL     1       4.413   3.661  16.040  0.00  0.00    +0.000 HD
BRANCH  24  27
ATOM     27  C   UNL     1       6.582   4.442  15.207  0.00  0.00    +0.000 A 
ATOM     28  C   UNL     1       6.008   3.833  14.105  0.00  0.00    +0.000 A 
ATOM     29  C   UNL     1       6.718   4.282  12.970  0.00  0.00    +0.000 A 
ATOM     30  C   UNL     1       7.686   5.138  13.442  0.00  0.00    +0.000 A 
ATOM     31  O   UNL     1       7.612   5.248  14.796  0.00  0.00    +0.000 OA
ENDBRANCH  24  27
ENDBRANCH  21  23
ENDBRANCH   2  17
TORSDOF 7
ENDMDL
MODEL 3
REMARK VINA RESULT:      -8.2      0.629      1.007
REMARK  Name = 
REMARK  7 active torsions:
REMARK  status: ('A' for Active; 'I' for Inactive)
REMARK    1  A    between atoms: C_2  and  C_14
REMARK    2  A    between atoms: N_3  and  C_4
REMARK    3  A    between atoms: C_7  and  C_8
REMARK    4  A    between atoms: C_8  and  O_10
REMARK    5  A    between atoms: C_11  and  O_12
REMARK    6  A    between atoms: C_18  and  N_19
REMARK    7  A    between atoms: C_20  and  C_22
REMARK                            x       y       z     vdW  Elec       q    Type
REMARK                         _______ _______ _______ _____ _____    ______ ____
ROOT
ATOM      1  O   UNL     1       2.344   7.985  18.031  0.00  0.00    +0.000 OA
ATOM      2  C   UNL     1       2.503   7.221  18.978  0.00  0.00    +0.000 C 
ATOM      3  N   UNL     1       2.024   7.395  20.270  0.00  0.00    +0.000 N 
ATOM      4  H   UNL     1       2.401   6.789  20.987  0.00  0.00    +0.000 HD
ENDROOT
BRANCH   3   5
ATOM      5  C   UNL     1       1.263   8.500  20.716  0.00  0.00    +0.000 A 
ATOM      6  C   UNL     1       0.954   9.591  19.898  0.00  0.00    +0.000 A 
ATOM      7  C   UNL     1       0.296  10.713  20.412  0.00  0.00    +0.000 A 
ATOM      8  C   UNL     1      -0.076  10.754  21.756  0.00  0.00    +0.000 A 
ATOM      9  C   UNL     1       0.195   9.647  22.565  0.00  0.00    +0.000 A 
ATOM     10  C   UNL     1       0.830   8.514  22.048  0.00  0.00    +0.000 A 
BRANCH   8  11
ATOM     11  C   UNL     1      -0.712  11.997  22.255  0.00  0.00    +0.000 C 
ATOM     12  O   UNL     1      -0.246  13.106  22.052  0.00  0.00    +0.000 OA
BRANCH  11  13
ATOM     13  O   UNL     1      -1.856  11.790  22.940  0.00  0.00    +0.000 OA
ATOM     14  H   UNL     1      -1.719  11.407  23.833  0.00  0.00    +0.000 HD
ENDBRANCH  11  13
ENDBRANCH   8  11
BRANCH   9  15
ATOM     15  O   UNL     1      -0.126   9.634  23.895  0.00  0.00    +0.000 OA
ATOM     16  H   UNL     1      -0.873   9.009  24.001  0.00  0.00    +0.000 HD
ENDBRANCH   9  15
ENDBRANCH   3   5
BRANCH   2  17
ATOM     17  C   UNL     1       3.352   6.021  18.755  0.00  0.00    +0.000 A 
ATOM     18  C   UNL     1       3.552   5.074  19.763  0.00  0.00    +0.000 A 
ATOM     19  C   UNL     1       4.327   3.949  19.499  0.00  0.00    +0.000 A 
ATOM     20  C   UNL     1       4.885   3.759  18.231  0.00  0.00    +0.000 A 
ATOM     21  C   UNL     1       4.670   4.680  17.200  0.00  0.00    +0.000 A 
ATOM     22  C   UNL     1       3.910   5.823  17.477  0.00  0.00    +0.000 A 
BRANCH  21  23
ATOM     23  N   UNL     1       5.182   4.516  15.895  0.00  0.00    +0.000 N 
ATOM     24  C   UNL     1       6.512   4.608  15.508  0.00  0.00    +0.000 C 
ATOM     25  O   UNL     1       7.452   4.800  16.272  0.00  0.00    +0.000 OA
ATOM     26  H   UNL     1       4.537   4.229  15.165  0.00  0.00    +0.000 HD
BRANCH  24  27
ATOM     27  C   UNL     1       6.729   4.429  14.083  0.00  0.00    +0.000 A 
ATOM     28  C   UNL     1       7.551   5.121  13.213  0.00  0.00    +0.000 A 
ATOM     29  C   UNL     1       7.374   4.548  11.934  0.00  0.00    +0.000 A 
ATOM     30  C   UNL     1       6.451   3.540  12.095  0.00  0.00    +0.000 A 
ATOM     31  O   UNL     1       6.056   3.453  13.394  0.00  0.00    +0.000 OA
ENDBRANCH  24  27
ENDBRANCH  21  23
ENDBRANCH   2  17
TORSDOF 7
ENDMDL
MODEL 4
REMARK VINA RESULT:      -8.2      0.765      1.449
REMARK  Name = 
REMARK  7 active torsions:
REMARK  status: ('A' for Active; 'I' for Inactive)
REMARK    1  A    between atoms: C_2  and  C_14
REMARK    2  A    between atoms: N_3  and  C_4
REMARK    3  A    between atoms: C_7  and  C_8
REMARK    4  A    between atoms: C_8  and  O_10
REMARK    5  A    between atoms: C_11  and  O_12
REMARK    6  A    between atoms: C_18  and  N_19
REMARK    7  A    between atoms: C_20  and  C_22
REMARK                            x       y       z     vdW  Elec       q    Type
REMARK                         _______ _______ _______ _____ _____    ______ ____
ROOT
ATOM      1  O   UNL     1       2.303   8.249  18.370  0.00  0.00    +0.000 OA
ATOM      2  C   UNL     1       2.341   7.416  19.270  0.00  0.00    +0.000 C 
ATOM      3  N   UNL     1       1.806   7.549  20.544  0.00  0.00    +0.000 N 
ATOM      4  H   UNL     1       2.088   6.867  21.237  0.00  0.00    +0.000 HD
ENDROOT
BRANCH   3   5
ATOM      5  C   UNL     1       1.119   8.688  21.025  0.00  0.00    +0.000 A 
ATOM      6  C   UNL     1       0.770   8.855  22.369  0.00  0.00    +0.000 A 
ATOM      7  C   UNL     1      -0.006   9.943  22.781  0.00  0.00    +0.000 A 
ATOM      8  C   UNL     1      -0.437  10.890  21.851  0.00  0.00    +0.000 A 
ATOM      9  C   UNL     1      -0.055  10.746  20.515  0.00  0.00    +0.000 A 
ATOM     10  C   UNL     1       0.742   9.674  20.104  0.00  0.00    +0.000 A 
BRANCH   8  11
ATOM     11  C   UNL     1      -1.313  11.983  22.340  0.00  0.00    +0.000 C 
ATOM     12  O   UNL     1      -1.032  12.674  23.305  0.00  0.00    +0.000 OA
BRANCH  11  13
ATOM     13  O   UNL     1      -2.436  12.152  21.613  0.00  0.00    +0.000 OA
ATOM     14  H   UNL     1      -2.364  12.850  20.927  0.00  0.00    +0.000 HD
ENDBRANCH  11  13
ENDBRANCH   8  11
BRANCH   9  15
ATOM     15  O   UNL     1      -0.463  11.630  19.552  0.00  0.00    +0.000 OA
ATOM     16  H   UNL     1       0.125  11.498  18.780  0.00  0.00    +0.000 HD
ENDBRANCH   9  15
ENDBRANCH   3   5
BRANCH   2  17
ATOM     17  C   UNL     1       3.095   6.161  19.008  0.00  0.00    +0.000 A 
ATOM     18  C   UNL     1       3.099   5.110  19.930  0.00  0.00    +0.000 A 
ATOM     19  C   UNL     1       3.791   3.942  19.629  0.00  0.00    +0.000 A 
ATOM     20  C   UNL     1       4.459   3.812  18.407  0.00  0.00    +0.000 A 
ATOM     21  C   UNL     1       4.440   4.841  17.460  0.00  0.00    +0.000 A 
ATOM     22  C   UNL     1       3.764   6.025  17.777  0.00  0.00    +0.000 A 
BRANCH  21  23
ATOM     23  N   UNL     1       5.070   4.746  16.200  0.00  0.00    +0.000 N 
ATOM     24  C   UNL     1       6.434   4.788  15.949  0.00  0.00    +0.000 C 
ATOM     25  O   UNL     1       7.303   4.864  16.812  0.00  0.00    +0.000 OA
ATOM     26  H   UNL     1       4.486   4.554  15.391  0.00  0.00    +0.000 HD
BRANCH  24  27
ATOM     27  C   UNL     1       6.781   4.703  14.541  0.00  0.00    +0.000 A 
ATOM     28  C   UNL     1       6.283   3.878  13.549  0.00  0.00    +0.000 A 
ATOM     29  C   UNL     1       6.975   4.199  12.360  0.00  0.00    +0.000 A 
ATOM     30  C   UNL     1       7.857   5.200  12.694  0.00  0.00    +0.000 A 
ATOM     31  O   UNL     1       7.747   5.519  14.011  0.00  0.00    +0.000 OA
ENDBRANCH  24  27
ENDBRANCH  21  23
ENDBRANCH   2  17
TORSDOF 7
ENDMDL
MODEL 5
REMARK VINA RESULT:      -8.1      2.022      2.675
REMARK  Name = 
REMARK  7 active torsions:
REMARK  status: ('A' for Active; 'I' for Inactive)
REMARK    1  A    between atoms: C_2  and  C_14
REMARK    2  A    between atoms: N_3  and  C_4
REMARK    3  A    between atoms: C_7  and  C_8
REMARK    4  A    between atoms: C_8  and  O_10
REMARK    5  A    between atoms: C_11  and  O_12
REMARK    6  A    between atoms: C_18  and  N_19
REMARK    7  A    between atoms: C_20  and  C_22
REMARK                            x       y       z     vdW  Elec       q    Type
REMARK                         _______ _______ _______ _____ _____    ______ ____
ROOT
ATOM      1  O   UNL     1       2.139   7.001  20.483  0.00  0.00    +0.000 OA
ATOM      2  C   UNL     1       2.402   6.894  19.289  0.00  0.00    +0.000 C 
ATOM      3  N   UNL     1       2.193   7.855  18.308  0.00  0.00    +0.000 N 
ATOM      4  H   UNL     1       2.270   7.554  17.344  0.00  0.00    +0.000 HD
ENDROOT
BRANCH   3   5
ATOM      5  C   UNL     1       1.632   9.135  18.525  0.00  0.00    +0.000 A 
ATOM      6  C   UNL     1       0.421   9.330  19.196  0.00  0.00    +0.000 A 
ATOM      7  C   UNL     1      -0.152  10.602  19.290  0.00  0.00    +0.000 A 
ATOM      8  C   UNL     1       0.488  11.704  18.722  0.00  0.00    +0.000 A 
ATOM      9  C   UNL     1       1.719  11.517  18.087  0.00  0.00    +0.000 A 
ATOM     10  C   UNL     1       2.306  10.251  18.013  0.00  0.00    +0.000 A 
BRANCH   8  11
ATOM     11  C   UNL     1      -0.202  13.015  18.798  0.00  0.00    +0.000 C 
ATOM     12  O   UNL     1      -0.268  13.669  19.826  0.00  0.00    +0.000 OA
BRANCH  11  13
ATOM     13  O   UNL     1      -0.737  13.422  17.628  0.00  0.00    +0.000 OA
ATOM     14  H   UNL     1      -0.737  12.731  16.932  0.00  0.00    +0.000 HD
ENDBRANCH  11  13
ENDBRANCH   8  11
BRANCH   9  15
ATOM     15  O   UNL     1       2.386  12.554  17.493  0.00  0.00    +0.000 OA
ATOM     16  H   UNL     1       2.726  12.218  16.638  0.00  0.00    +0.000 HD
ENDBRANCH   9  15
ENDBRANCH   3   5
BRANCH   2  17
ATOM     17  C   UNL     1       2.930   5.586  18.818  0.00  0.00    +0.000 A 
ATOM     18  C   UNL     1       2.638   4.399  19.494  0.00  0.00    +0.000 A 
ATOM     19  C   UNL     1       3.126   3.194  18.998  0.00  0.00    +0.000 A 
ATOM     20  C   UNL     1       3.884   3.170  17.823  0.00  0.00    +0.000 A 
ATOM     21  C   UNL     1       4.159   4.345  17.116  0.00  0.00    +0.000 A 
ATOM     22  C   UNL     1       3.688   5.558  17.632  0.00  0.00    +0.000 A 
BRANCH  21  23
ATOM     23  N   UNL     1       4.890   4.369  15.909  0.00  0.00    +0.000 N 
ATOM     24  C   UNL     1       6.254   4.587  15.768  0.00  0.00    +0.000 C 
ATOM     25  O   UNL     1       7.038   4.742  16.699  0.00  0.00    +0.000 OA
ATOM     26  H   UNL     1       4.399   4.133  15.051  0.00  0.00    +0.000 HD
BRANCH  24  27
ATOM     27  C   UNL     1       6.715   4.592  14.391  0.00  0.00    +0.000 A 
ATOM     28  C   UNL     1       6.276   3.860  13.302  0.00  0.00    +0.000 A 
ATOM     29  C   UNL     1       7.075   4.240  12.201  0.00  0.00    +0.000 A 
ATOM     30  C   UNL     1       7.958   5.180  12.680  0.00  0.00    +0.000 A 
ATOM     31  O   UNL     1       7.747   5.406  14.004  0.00  0.00    +0.000 OA
ENDBRANCH  24  27
ENDBRANCH  21  23
ENDBRANCH   2  17
TORSDOF 7
ENDMDL
MODEL 6
REMARK VINA RESULT:      -8.1      1.556      2.235
REMARK  Name = 
REMARK  7 active torsions:
REMARK  status: ('A' for Active; 'I' for Inactive)
REMARK    1  A    between atoms: C_2  and  C_14
REMARK    2  A    between atoms: N_3  and  C_4
REMARK    3  A    between atoms: C_7  and  C_8
REMARK    4  A    between atoms: C_8  and  O_10
REMARK    5  A    between atoms: C_11  and  O_12
REMARK    6  A    between atoms: C_18  and  N_19
REMARK    7  A    between atoms: C_20  and  C_22
REMARK                            x       y       z     vdW  Elec       q    Type
REMARK                         _______ _______ _______ _____ _____    ______ ____
ROOT
ATOM      1  O   UNL     1       1.771   5.636  20.852  0.00  0.00    +0.000 OA
ATOM      2  C   UNL     1       2.267   5.799  19.742  0.00  0.00    +0.000 C 
ATOM      3  N   UNL     1       2.335   6.991  19.033  0.00  0.00    +0.000 N 
ATOM      4  H   UNL     1       2.589   6.932  18.055  0.00  0.00    +0.000 HD
ENDROOT
BRANCH   3   5
ATOM      5  C   UNL     1       1.832   8.235  19.479  0.00  0.00    +0.000 A 
ATOM      6  C   UNL     1       1.347   8.439  20.774  0.00  0.00    +0.000 A 
ATOM      7  C   UNL     1       0.756   9.653  21.138  0.00  0.00    +0.000 A 
ATOM      8  C   UNL     1       0.653  10.690  20.210  0.00  0.00    +0.000 A 
ATOM      9  C   UNL     1       1.175  10.502  18.927  0.00  0.00    +0.000 A 
ATOM     10  C   UNL     1       1.789   9.298  18.568  0.00  0.00    +0.000 A 
BRANCH   8  11
ATOM     11  C   UNL     1      -0.043  11.928  20.638  0.00  0.00    +0.000 C 
ATOM     12  O   UNL     1      -0.897  12.474  19.959  0.00  0.00    +0.000 OA
BRANCH  11  13
ATOM     13  O   UNL     1       0.345  12.385  21.846  0.00  0.00    +0.000 OA
ATOM     14  H   UNL     1       0.167  11.761  22.581  0.00  0.00    +0.000 HD
ENDBRANCH  11  13
ENDBRANCH   8  11
BRANCH   9  15
ATOM     15  O   UNL     1       1.087  11.472  17.967  0.00  0.00    +0.000 OA
ATOM     16  H   UNL     1       0.163  11.800  17.980  0.00  0.00    +0.000 HD
ENDBRANCH   9  15
ENDBRANCH   3   5
BRANCH   2  17
ATOM     17  C   UNL     1       2.789   4.594  19.042  0.00  0.00    +0.000 A 
ATOM     18  C   UNL     1       2.460   3.305  19.471  0.00  0.00    +0.000 A 
ATOM     19  C   UNL     1       2.943   2.208  18.765  0.00  0.00    +0.000 A 
ATOM     20  C   UNL     1       3.734   2.394  17.627  0.00  0.00    +0.000 A 
ATOM     21  C   UNL     1       4.047   3.677  17.165  0.00  0.00    +0.000 A 
ATOM     22  C   UNL     1       3.580   4.778  17.892  0.00  0.00    +0.000 A 
BRANCH  21  23
ATOM     23  N   UNL     1       4.813   3.916  16.003  0.00  0.00    +0.000 N 
ATOM     24  C   UNL     1       6.165   4.224  15.948  0.00  0.00    +0.000 C 
ATOM     25  O   UNL     1       6.910   4.282  16.922  0.00  0.00    +0.000 OA
ATOM     26  H   UNL     1       4.362   3.783  15.102  0.00  0.00    +0.000 HD
BRANCH  24  27
ATOM     27  C   UNL     1       6.667   4.456  14.606  0.00  0.00    +0.000 A 
ATOM     28  C   UNL     1       6.315   3.859  13.408  0.00  0.00    +0.000 A 
ATOM     29  C   UNL     1       7.119   4.444  12.405  0.00  0.00    +0.000 A 
ATOM     30  C   UNL     1       7.918   5.362  13.046  0.00  0.00    +0.000 A 
ATOM     31  O   UNL     1       7.650   5.383  14.380  0.00  0.00    +0.000 OA
ENDBRANCH  24  27
ENDBRANCH  21  23
ENDBRANCH   2  17
TORSDOF 7
ENDMDL
MODEL 7
REMARK VINA RESULT:      -8.0      2.207      2.584
REMARK  Name = 
REMARK  7 active torsions:
REMARK  status: ('A' for Active; 'I' for Inactive)
REMARK    1  A    between atoms: C_2  and  C_14
REMARK    2  A    between atoms: N_3  and  C_4
REMARK    3  A    between atoms: C_7  and  C_8
REMARK    4  A    between atoms: C_8  and  O_10
REMARK    5  A    between atoms: C_11  and  O_12
REMARK    6  A    between atoms: C_18  and  N_19
REMARK    7  A    between atoms: C_20  and  C_22
REMARK                            x       y       z     vdW  Elec       q    Type
REMARK                         _______ _______ _______ _____ _____    ______ ____
ROOT
ATOM      1  O   UNL     1       1.906   7.984  20.540  0.00  0.00    +0.000 OA
ATOM      2  C   UNL     1       2.128   7.717  19.363  0.00  0.00    +0.000 C 
ATOM      3  N   UNL     1       1.855   8.524  18.266  0.00  0.00    +0.000 N 
ATOM      4  H   UNL     1       1.907   8.092  17.352  0.00  0.00    +0.000 HD
ENDROOT
BRANCH   3   5
ATOM      5  C   UNL     1       1.263   9.807  18.324  0.00  0.00    +0.000 A 
ATOM      6  C   UNL     1       2.000  10.975  18.539  0.00  0.00    +0.000 A 
ATOM      7  C   UNL     1       1.362  12.209  18.701  0.00  0.00    +0.000 A 
ATOM      8  C   UNL     1      -0.030  12.293  18.638  0.00  0.00    +0.000 A 
ATOM      9  C   UNL     1      -0.765  11.132  18.383  0.00  0.00    +0.000 A 
ATOM     10  C   UNL     1      -0.128   9.902  18.196  0.00  0.00    +0.000 A 
BRANCH   8  11
ATOM     11  C   UNL     1      -0.650  13.618  18.884  0.00  0.00    +0.000 C 
ATOM     12  O   UNL     1      -0.204  14.653  18.419  0.00  0.00    +0.000 OA
BRANCH  11  13
ATOM     13  O   UNL     1      -1.757  13.570  19.654  0.00  0.00    +0.000 OA
ATOM     14  H   UNL     1      -1.574  13.384  20.599  0.00  0.00    +0.000 HD
ENDBRANCH  11  13
ENDBRANCH   8  11
BRANCH   9  15
ATOM     15  O   UNL     1      -2.133  11.145  18.331  0.00  0.00    +0.000 OA
ATOM     16  H   UNL     1      -2.435  11.795  18.998  0.00  0.00    +0.000 HD
ENDBRANCH   9  15
ENDBRANCH   3   5
BRANCH   2  17
ATOM     17  C   UNL     1       2.679   6.369  19.059  0.00  0.00    +0.000 A 
ATOM     18  C   UNL     1       2.405   5.270  19.878  0.00  0.00    +0.000 A 
ATOM     19  C   UNL     1       2.914   4.021  19.537  0.00  0.00    +0.000 A 
ATOM     20  C   UNL     1       3.675   3.864  18.375  0.00  0.00    +0.000 A 
ATOM     21  C   UNL     1       3.933   4.946  17.527  0.00  0.00    +0.000 A 
ATOM     22  C   UNL     1       3.441   6.205  17.886  0.00  0.00    +0.000 A 
BRANCH  21  23
ATOM     23  N   UNL     1       4.667   4.830  16.326  0.00  0.00    +0.000 N 
ATOM     24  C   UNL     1       6.039   4.662  16.205  0.00  0.00    +0.000 C 
ATOM     25  O   UNL     1       6.815   4.537  17.147  0.00  0.00    +0.000 OA
ATOM     26  H   UNL     1       4.147   4.792  15.454  0.00  0.00    +0.000 HD
BRANCH  24  27
ATOM     27  C   UNL     1       6.512   4.615  14.833  0.00  0.00    +0.000 A 
ATOM     28  C   UNL     1       6.034   3.900  13.749  0.00  0.00    +0.000 A 
ATOM     29  C   UNL     1       6.867   4.207  12.652  0.00  0.00    +0.000 A 
ATOM     30  C   UNL     1       7.809   5.090  13.127  0.00  0.00    +0.000 A 
ATOM     31  O   UNL     1       7.603   5.350  14.446  0.00  0.00    +0.000 OA
ENDBRANCH  24  27
ENDBRANCH  21  23
ENDBRANCH   2  17
TORSDOF 7
ENDMDL
MODEL 8
REMARK VINA RESULT:      -8.0      5.722      8.079
REMARK  Name = 
REMARK  7 active torsions:
REMARK  status: ('A' for Active; 'I' for Inactive)
REMARK    1  A    between atoms: C_2  and  C_14
REMARK    2  A    between atoms: N_3  and  C_4
REMARK    3  A    between atoms: C_7  and  C_8
REMARK    4  A    between atoms: C_8  and  O_10
REMARK    5  A    between atoms: C_11  and  O_12
REMARK    6  A    between atoms: C_18  and  N_19
REMARK    7  A    between atoms: C_20  and  C_22
REMARK                            x       y       z     vdW  Elec       q    Type
REMARK                         _______ _______ _______ _____ _____    ______ ____
ROOT
ATOM      1  O   UNL     1       8.563   7.171  18.955  0.00  0.00    +0.000 OA
ATOM      2  C   UNL     1       7.848   7.575  18.044  0.00  0.00    +0.000 C 
ATOM      3  N   UNL     1       7.750   8.883  17.587  0.00  0.00    +0.000 N 
ATOM      4  H   UNL     1       6.977   9.100  16.970  0.00  0.00    +0.000 HD
ENDROOT
BRANCH   3   5
ATOM      5  C   UNL     1       8.469   9.984  18.107  0.00  0.00    +0.000 A 
ATOM      6  C   UNL     1       9.274   9.898  19.246  0.00  0.00    +0.000 A 
ATOM      7  C   UNL     1       9.877  11.037  19.789  0.00  0.00    +0.000 A 
ATOM      8  C   UNL     1       9.691  12.283  19.190  0.00  0.00    +0.000 A 
ATOM      9  C   UNL     1       8.920  12.364  18.027  0.00  0.00    +0.000 A 
ATOM     10  C   UNL     1       8.337  11.224  17.468  0.00  0.00    +0.000 A 
BRANCH   8  11
ATOM     11  C   UNL     1      10.302  13.462  19.852  0.00  0.00    +0.000 C 
ATOM     12  O   UNL     1       9.646  14.408  20.254  0.00  0.00    +0.000 OA
BRANCH  11  13
ATOM     13  O   UNL     1      11.643  13.384  19.979  0.00  0.00    +0.000 OA
ATOM     14  H   UNL     1      12.020  12.528  19.684  0.00  0.00    +0.000 HD
ENDBRANCH  11  13
ENDBRANCH   8  11
BRANCH   9  15
ATOM     15  O   UNL     1       8.683  13.560  17.405  0.00  0.00    +0.000 OA
ATOM     16  H   UNL     1       9.552  13.903  17.111  0.00  0.00    +0.000 HD
ENDBRANCH   9  15
ENDBRANCH   3   5
BRANCH   2  17
ATOM     17  C   UNL     1       6.935   6.592  17.402  0.00  0.00    +0.000 A 
ATOM     18  C   UNL     1       7.156   6.137  16.099  0.00  0.00    +0.000 A 
ATOM     19  C   UNL     1       6.295   5.192  15.551  0.00  0.00    +0.000 A 
ATOM     20  C   UNL     1       5.231   4.687  16.304  0.00  0.00    +0.000 A 
ATOM     21  C   UNL     1       5.013   5.107  17.620  0.00  0.00    +0.000 A 
ATOM     22  C   UNL     1       5.866   6.076  18.159  0.00  0.00    +0.000 A 
BRANCH  21  23
ATOM     23  N   UNL     1       3.974   4.602  18.432  0.00  0.00    +0.000 N 
ATOM     24  C   UNL     1       4.072   3.580  19.366  0.00  0.00    +0.000 C 
ATOM     25  O   UNL     1       5.110   2.996  19.659  0.00  0.00    +0.000 OA
ATOM     26  H   UNL     1       3.072   5.069  18.394  0.00  0.00    +0.000 HD
BRANCH  24  27
ATOM     27  C   UNL     1       2.818   3.253  20.022  0.00  0.00    +0.000 A 
ATOM     28  C   UNL     1       1.517   3.364  19.562  0.00  0.00    +0.000 A 
ATOM     29  C   UNL     1       0.673   2.921  20.604  0.00  0.00    +0.000 A 
ATOM     30  C   UNL     1       1.505   2.567  21.641  0.00  0.00    +0.000 A 
ATOM     31  O   UNL     1       2.808   2.758  21.300  0.00  0.00    +0.000 OA
ENDBRANCH  24  27
ENDBRANCH  21  23
ENDBRANCH   2  17
TORSDOF 7
ENDMDL
MODEL 9
REMARK VINA RESULT:      -7.9      1.517      2.071
REMARK  Name = 
REMARK  7 active torsions:
REMARK  status: ('A' for Active; 'I' for Inactive)
REMARK    1  A    between atoms: C_2  and  C_14
REMARK    2  A    between atoms: N_3  and  C_4
REMARK    3  A    between atoms: C_7  and  C_8
REMARK    4  A    between atoms: C_8  and  O_10
REMARK    5  A    between atoms: C_11  and  O_12
REMARK    6  A    between atoms: C_18  and  N_19
REMARK    7  A    between atoms: C_20  and  C_22
REMARK                            x       y       z     vdW  Elec       q    Type
REMARK                         _______ _______ _______ _____ _____    ______ ____
ROOT
ATOM      1  O   UNL     1       0.708   5.509  20.598  0.00  0.00    +0.000 OA
ATOM      2  C   UNL     1       1.852   5.811  20.272  0.00  0.00    +0.000 C 
ATOM      3  N   UNL     1       2.370   7.096  20.171  0.00  0.00    +0.000 N 
ATOM      4  H   UNL     1       3.260   7.198  19.700  0.00  0.00    +0.000 HD
ENDROOT
BRANCH   3   5
ATOM      5  C   UNL     1       1.654   8.287  20.430  0.00  0.00    +0.000 A 
ATOM      6  C   UNL     1       1.293   8.693  21.718  0.00  0.00    +0.000 A 
ATOM      7  C   UNL     1       0.488   9.819  21.918  0.00  0.00    +0.000 A 
ATOM      8  C   UNL     1       0.042  10.566  20.827  0.00  0.00    +0.000 A 
ATOM      9  C   UNL     1       0.437  10.185  19.542  0.00  0.00    +0.000 A 
ATOM     10  C   UNL     1       1.261   9.075  19.340  0.00  0.00    +0.000 A 
BRANCH   8  11
ATOM     11  C   UNL     1      -0.862  11.710  21.101  0.00  0.00    +0.000 C 
ATOM     12  O   UNL     1      -0.707  12.463  22.048  0.00  0.00    +0.000 OA
BRANCH  11  13
ATOM     13  O   UNL     1      -1.858  11.849  20.202  0.00  0.00    +0.000 OA
ATOM     14  H   UNL     1      -2.726  11.518  20.518  0.00  0.00    +0.000 HD
ENDBRANCH  11  13
ENDBRANCH   8  11
BRANCH   9  15
ATOM     15  O   UNL     1       0.015  10.864  18.430  0.00  0.00    +0.000 OA
ATOM     16  H   UNL     1       0.368  11.775  18.504  0.00  0.00    +0.000 HD
ENDBRANCH   9  15
ENDBRANCH   3   5
BRANCH   2  17
ATOM     17  C   UNL     1       2.764   4.707  19.871  0.00  0.00    +0.000 A 
ATOM     18  C   UNL     1       2.920   3.568  20.666  0.00  0.00    +0.000 A 
ATOM     19  C   UNL     1       3.760   2.546  20.235  0.00  0.00    +0.000 A 
ATOM     20  C   UNL     1       4.425   2.648  19.010  0.00  0.00    +0.000 A 
ATOM     21  C   UNL     1       4.257   3.767  18.187  0.00  0.00    +0.000 A 
ATOM     22  C   UNL     1       3.432   4.805  18.635  0.00  0.00    +0.000 A 
BRANCH  21  23
ATOM     23  N   UNL     1       4.880   3.902  16.927  0.00  0.00    +0.000 N 
ATOM     24  C   UNL     1       6.149   4.406  16.678  0.00  0.00    +0.000 C 
ATOM     25  O   UNL     1       6.942   4.765  17.543  0.00  0.00    +0.000 OA
ATOM     26  H   UNL     1       4.394   3.531  16.116  0.00  0.00    +0.000 HD
BRANCH  24  27
ATOM     27  C   UNL     1       6.501   4.457  15.270  0.00  0.00    +0.000 A 
ATOM     28  C   UNL     1       5.938   3.806  14.187  0.00  0.00    +0.000 A 
ATOM     29  C   UNL     1       6.669   4.199  13.045  0.00  0.00    +0.000 A 
ATOM     30  C   UNL     1       7.639   5.065  13.495  0.00  0.00    +0.000 A 
ATOM     31  O   UNL     1       7.545   5.234  14.841  0.00  0.00    +0.000 OA
ENDBRANCH  24  27
ENDBRANCH  21  23
ENDBRANCH   2  17
TORSDOF 7
ENDMDL
