MODEL 1
REMARK VINA RESULT:      -8.7      0.000      0.000
REMARK  Name = 
REMARK  3 active torsions:
REMARK  status: ('A' for Active; 'I' for Inactive)
REMARK    1  A    between atoms: C_6  and  C_7
REMARK    2  A    between atoms: C_9  and  C_10
REMARK    3  A    between atoms: C_16  and  N_17
REMARK                            x       y       z     vdW  Elec       q    Type
REMARK                         _______ _______ _______ _____ _____    ______ ____
ROOT
ATOM      1  C   UNL     1       2.055   7.771  19.366  0.00  0.00    +0.000 A 
ATOM      2  C   UNL     1       1.577   6.879  20.288  0.00  0.00    +0.000 A 
ATOM      3  N   UNL     1       2.309   5.742  20.108  0.00  0.00    +0.000 N 
ATOM      4  N   UNL     1       2.124   4.581  20.798  0.00  0.00    +0.000 NA
ATOM      5  C   UNL     1       2.937   3.658  20.416  0.00  0.00    +0.000 A 
ATOM      6  C   UNL     1       3.973   3.777  19.379  0.00  0.00    +0.000 A 
ATOM      7  C   UNL     1       4.145   4.954  18.755  0.00  0.00    +0.000 A 
ATOM      8  C   UNL     1       3.231   6.007  19.107  0.00  0.00    +0.000 A 
ATOM      9  N   UNL     1       3.066   7.230  18.626  0.00  0.00    +0.000 NA
ENDROOT
BRANCH   7  10
ATOM     10  N   UNL     1       5.171   5.137  17.826  0.00  0.00    +0.000 N 
ATOM     11  C   UNL     1       4.994   4.933  16.374  0.00  0.00    +0.000 C 
ATOM     12  C   UNL     1       6.104   4.017  15.851  0.00  0.00    +0.000 C 
ATOM     13  O   UNL     1       7.411   4.542  16.161  0.00  0.00    +0.000 OA
ATOM     14  C   UNL     1       7.565   4.712  17.579  0.00  0.00    +0.000 C 
ATOM     15  C   UNL     1       6.505   5.662  18.149  0.00  0.00    +0.000 C 
ENDBRANCH   7  10
BRANCH   1  18
ATOM     16  C   UNL     1       0.727   9.426  17.894  0.00  0.00    +0.000 C 
ATOM     17  C   UNL     1       2.042  10.098  18.137  0.00  0.00    +0.000 C 
ATOM     18  C   UNL     1       1.499   9.160  19.185  0.00  0.00    +0.000 C 
BRANCH  16  24
ATOM     19  C   UNL     1      -4.504  12.760  19.758  0.00  0.00    +0.000 A 
ATOM     20  C   UNL     1      -3.423  13.035  20.588  0.00  0.00    +0.000 A 
ATOM     21  C   UNL     1      -2.187  12.422  20.350  0.00  0.00    +0.000 A 
ATOM     22  C   UNL     1      -1.997  11.537  19.296  0.00  0.00    +0.000 A 
ATOM     23  N   UNL     1      -0.786  10.975  19.102  0.00  0.00    +0.000 NA
ATOM     24  C   UNL     1      -0.611  10.102  18.081  0.00  0.00    +0.000 A 
ATOM     25  C   UNL     1      -1.667   9.770  17.231  0.00  0.00    +0.000 A 
ATOM     26  C   UNL     1      -2.918  10.348  17.424  0.00  0.00    +0.000 A 
ATOM     27  C   UNL     1      -3.103  11.253  18.469  0.00  0.00    +0.000 A 
ATOM     28  C   UNL     1      -4.346  11.868  18.701  0.00  0.00    +0.000 A 
ENDBRANCH  16  24
ENDBRANCH   1  18
TORSDOF 3
ENDMDL
MODEL 2
REMARK VINA RESULT:      -8.7      0.920      1.890
REMARK  Name = 
REMARK  3 active torsions:
REMARK  status: ('A' for Active; 'I' for Inactive)
REMARK    1  A    between atoms: C_6  and  C_7
REMARK    2  A    between atoms: C_9  and  C_10
REMARK    3  A    between atoms: C_16  and  N_17
REMARK                            x       y       z     vdW  Elec       q    Type
REMARK                         _______ _______ _______ _____ _____    ______ ____
ROOT
ATOM      1  C   UNL     1       2.380   7.401  19.225  0.00  0.00    +0.000 A 
ATOM      2  C   UNL     1       1.856   6.533  20.146  0.00  0.00    +0.000 A 
ATOM      3  N   UNL     1       2.535   5.362  19.971  0.00  0.00    +0.000 N 
ATOM      4  N   UNL     1       2.293   4.212  20.661  0.00  0.00    +0.000 NA
ATOM      5  C   UNL     1       3.063   3.253  20.284  0.00  0.00    +0.000 A 
ATOM      6  C   UNL     1       4.110   3.322  19.253  0.00  0.00    +0.000 A 
ATOM      7  C   UNL     1       4.339   4.488  18.628  0.00  0.00    +0.000 A 
ATOM      8  C   UNL     1       3.473   5.583  18.974  0.00  0.00    +0.000 A 
ATOM      9  N   UNL     1       3.368   6.811  18.491  0.00  0.00    +0.000 NA
ENDROOT
BRANCH   7  10
ATOM     10  N   UNL     1       5.377   4.622  17.704  0.00  0.00    +0.000 N 
ATOM     11  C   UNL     1       6.765   4.948  18.087  0.00  0.00    +0.000 C 
ATOM     12  C   UNL     1       7.263   6.122  17.240  0.00  0.00    +0.000 C 
ATOM     13  O   UNL     1       7.151   5.840  15.830  0.00  0.00    +0.000 OA
ATOM     14  C   UNL     1       5.789   5.546  15.480  0.00  0.00    +0.000 C 
ATOM     15  C   UNL     1       5.254   4.344  16.267  0.00  0.00    +0.000 C 
ENDBRANCH   7  10
BRANCH   1  18
ATOM     16  C   UNL     1       0.978   9.071  17.842  0.00  0.00    +0.000 C 
ATOM     17  C   UNL     1       2.351   9.664  17.884  0.00  0.00    +0.000 C 
ATOM     18  C   UNL     1       1.890   8.814  19.040  0.00  0.00    +0.000 C 
BRANCH  16  24
ATOM     19  C   UNL     1      -4.803  11.985  18.054  0.00  0.00    +0.000 A 
ATOM     20  C   UNL     1      -4.710  11.155  16.942  0.00  0.00    +0.000 A 
ATOM     21  C   UNL     1      -3.539  10.421  16.716  0.00  0.00    +0.000 A 
ATOM     22  C   UNL     1      -2.451  10.491  17.576  0.00  0.00    +0.000 A 
ATOM     23  N   UNL     1      -1.346   9.760  17.320  0.00  0.00    +0.000 NA
ATOM     24  C   UNL     1      -0.283   9.842  18.156  0.00  0.00    +0.000 A 
ATOM     25  C   UNL     1      -0.311  10.677  19.274  0.00  0.00    +0.000 A 
ATOM     26  C   UNL     1      -1.448  11.432  19.544  0.00  0.00    +0.000 A 
ATOM     27  C   UNL     1      -2.549  11.346  18.692  0.00  0.00    +0.000 A 
ATOM     28  C   UNL     1      -3.723  12.083  18.927  0.00  0.00    +0.000 A 
ENDBRANCH  16  24
ENDBRANCH   1  18
TORSDOF 3
ENDMDL
MODEL 3
REMARK VINA RESULT:      -8.6      0.703      1.519
REMARK  Name = 
REMARK  3 active torsions:
REMARK  status: ('A' for Active; 'I' for Inactive)
REMARK    1  A    between atoms: C_6  and  C_7
REMARK    2  A    between atoms: C_9  and  C_10
REMARK    3  A    between atoms: C_16  and  N_17
REMARK                            x       y       z     vdW  Elec       q    Type
REMARK                         _______ _______ _______ _____ _____    ______ ____
ROOT
ATOM      1  C   UNL     1       2.145   7.748  19.305  0.00  0.00    +0.000 A 
ATOM      2  C   UNL     1       1.652   6.853  20.217  0.00  0.00    +0.000 A 
ATOM      3  N   UNL     1       2.361   5.704  20.020  0.00  0.00    +0.000 N 
ATOM      4  N   UNL     1       2.156   4.538  20.695  0.00  0.00    +0.000 NA
ATOM      5  C   UNL     1       2.950   3.605  20.299  0.00  0.00    +0.000 A 
ATOM      6  C   UNL     1       3.986   3.718  19.261  0.00  0.00    +0.000 A 
ATOM      7  C   UNL     1       4.179   4.899  18.652  0.00  0.00    +0.000 A 
ATOM      8  C   UNL     1       3.286   5.965  19.020  0.00  0.00    +0.000 A 
ATOM      9  N   UNL     1       3.143   7.196  18.555  0.00  0.00    +0.000 NA
ENDROOT
BRANCH   7  10
ATOM     10  N   UNL     1       5.205   5.074  17.722  0.00  0.00    +0.000 N 
ATOM     11  C   UNL     1       5.025   4.876  16.270  0.00  0.00    +0.000 C 
ATOM     12  C   UNL     1       6.125   3.950  15.743  0.00  0.00    +0.000 C 
ATOM     13  O   UNL     1       7.437   4.461  16.053  0.00  0.00    +0.000 OA
ATOM     14  C   UNL     1       7.594   4.625  17.471  0.00  0.00    +0.000 C 
ATOM     15  C   UNL     1       6.544   5.584  18.046  0.00  0.00    +0.000 C 
ENDBRANCH   7  10
BRANCH   1  18
ATOM     16  C   UNL     1       0.711   9.405  17.940  0.00  0.00    +0.000 C 
ATOM     17  C   UNL     1       2.065  10.038  18.012  0.00  0.00    +0.000 C 
ATOM     18  C   UNL     1       1.615   9.149  19.144  0.00  0.00    +0.000 C 
BRANCH  16  24
ATOM     19  C   UNL     1      -5.169  12.113  18.151  0.00  0.00    +0.000 A 
ATOM     20  C   UNL     1      -5.047  11.286  17.040  0.00  0.00    +0.000 A 
ATOM     21  C   UNL     1      -3.852  10.594  16.814  0.00  0.00    +0.000 A 
ATOM     22  C   UNL     1      -2.766  10.702  17.674  0.00  0.00    +0.000 A 
ATOM     23  N   UNL     1      -1.636  10.011  17.418  0.00  0.00    +0.000 NA
ATOM     24  C   UNL     1      -0.576  10.132  18.253  0.00  0.00    +0.000 A 
ATOM     25  C   UNL     1      -0.633  10.966  19.370  0.00  0.00    +0.000 A 
ATOM     26  C   UNL     1      -1.797  11.680  19.640  0.00  0.00    +0.000 A 
ATOM     27  C   UNL     1      -2.895  11.555  18.789  0.00  0.00    +0.000 A 
ATOM     28  C   UNL     1      -4.093  12.250  19.024  0.00  0.00    +0.000 A 
ENDBRANCH  16  24
ENDBRANCH   1  18
TORSDOF 3
ENDMDL
MODEL 4
REMARK VINA RESULT:      -8.6      2.547      3.995
REMARK  Name = 
REMARK  3 active torsions:
REMARK  status: ('A' for Active; 'I' for Inactive)
REMARK    1  A    between atoms: C_6  and  C_7
REMARK    2  A    between atoms: C_9  and  C_10
REMARK    3  A    between atoms: C_16  and  N_17
REMARK                            x       y       z     vdW  Elec       q    Type
REMARK                         _______ _______ _______ _____ _____    ______ ____
ROOT
ATOM      1  C   UNL     1       3.126   7.411  18.128  0.00  0.00    +0.000 A 
ATOM      2  C   UNL     1       3.965   7.255  17.057  0.00  0.00    +0.000 A 
ATOM      3  N   UNL     1       4.235   5.919  16.997  0.00  0.00    +0.000 N 
ATOM      4  N   UNL     1       5.075   5.336  16.096  0.00  0.00    +0.000 NA
ATOM      5  C   UNL     1       5.165   4.064  16.275  0.00  0.00    +0.000 A 
ATOM      6  C   UNL     1       4.464   3.270  17.295  0.00  0.00    +0.000 A 
ATOM      7  C   UNL     1       3.614   3.884  18.135  0.00  0.00    +0.000 A 
ATOM      8  C   UNL     1       3.512   5.313  18.014  0.00  0.00    +0.000 A 
ATOM      9  N   UNL     1       2.858   6.215  18.728  0.00  0.00    +0.000 NA
ENDROOT
BRANCH   7  10
ATOM     10  N   UNL     1       2.864   3.159  19.063  0.00  0.00    +0.000 N 
ATOM     11  C   UNL     1       1.445   2.809  18.860  0.00  0.00    +0.000 C 
ATOM     12  C   UNL     1       0.639   3.216  20.096  0.00  0.00    +0.000 C 
ATOM     13  O   UNL     1       1.171   2.614  21.294  0.00  0.00    +0.000 OA
ATOM     14  C   UNL     1       2.546   2.987  21.480  0.00  0.00    +0.000 C 
ATOM     15  C   UNL     1       3.410   2.558  20.288  0.00  0.00    +0.000 C 
ENDBRANCH   7  10
BRANCH   1  18
ATOM     16  C   UNL     1       1.095   8.970  18.469  0.00  0.00    +0.000 C 
ATOM     17  C   UNL     1       2.043   9.753  17.615  0.00  0.00    +0.000 C 
ATOM     18  C   UNL     1       2.602   8.747  18.588  0.00  0.00    +0.000 C 
BRANCH  16  24
ATOM     19  C   UNL     1      -1.993  12.313  23.077  0.00  0.00    +0.000 A 
ATOM     20  C   UNL     1      -2.106  12.951  21.846  0.00  0.00    +0.000 A 
ATOM     21  C   UNL     1      -1.515  12.384  20.711  0.00  0.00    +0.000 A 
ATOM     22  C   UNL     1      -0.811  11.187  20.768  0.00  0.00    +0.000 A 
ATOM     23  N   UNL     1      -0.264  10.676  19.646  0.00  0.00    +0.000 NA
ATOM     24  C   UNL     1       0.432   9.516  19.711  0.00  0.00    +0.000 A 
ATOM     25  C   UNL     1       0.599   8.845  20.924  0.00  0.00    +0.000 A 
ATOM     26  C   UNL     1       0.036   9.367  22.085  0.00  0.00    +0.000 A 
ATOM     27  C   UNL     1      -0.690  10.557  22.023  0.00  0.00    +0.000 A 
ATOM     28  C   UNL     1      -1.283  11.119  23.166  0.00  0.00    +0.000 A 
ENDBRANCH  16  24
ENDBRANCH   1  18
TORSDOF 3
ENDMDL
MODEL 5
REMARK VINA RESULT:      -8.5      0.569      1.112
REMARK  Name = 
REMARK  3 active torsions:
REMARK  status: ('A' for Active; 'I' for Inactive)
REMARK    1  A    between atoms: C_6  and  C_7
REMARK    2  A    between atoms: C_9  and  C_10
REMARK    3  A    between atoms: C_16  and  N_17
REMARK                            x       y       z     vdW  Elec       q    Type
REMARK                         _______ _______ _______ _____ _____    ______ ____
ROOT
ATOM      1  C   UNL     1       2.213   7.615  19.280  0.00  0.00    +0.000 A 
ATOM      2  C   UNL     1       1.719   6.787  20.253  0.00  0.00    +0.000 A 
ATOM      3  N   UNL     1       2.381   5.604  20.095  0.00  0.00    +0.000 N 
ATOM      4  N   UNL     1       2.157   4.483  20.837  0.00  0.00    +0.000 NA
ATOM      5  C   UNL     1       2.905   3.503  20.467  0.00  0.00    +0.000 A 
ATOM      6  C   UNL     1       3.910   3.524  19.393  0.00  0.00    +0.000 A 
ATOM      7  C   UNL     1       4.125   4.664  18.717  0.00  0.00    +0.000 A 
ATOM      8  C   UNL     1       3.281   5.779  19.055  0.00  0.00    +0.000 A 
ATOM      9  N   UNL     1       3.166   6.989  18.531  0.00  0.00    +0.000 NA
ENDROOT
BRANCH   7  10
ATOM     10  N   UNL     1       5.126   4.754  17.749  0.00  0.00    +0.000 N 
ATOM     11  C   UNL     1       6.543   5.013  18.071  0.00  0.00    +0.000 C 
ATOM     12  C   UNL     1       7.058   6.166  17.206  0.00  0.00    +0.000 C 
ATOM     13  O   UNL     1       6.871   5.896  15.802  0.00  0.00    +0.000 OA
ATOM     14  C   UNL     1       5.484   5.669  15.511  0.00  0.00    +0.000 C 
ATOM     15  C   UNL     1       4.927   4.489  16.317  0.00  0.00    +0.000 C 
ENDBRANCH   7  10
BRANCH   1  18
ATOM     16  C   UNL     1       0.827   9.259  17.850  0.00  0.00    +0.000 C 
ATOM     17  C   UNL     1       2.201   9.851  17.893  0.00  0.00    +0.000 C 
ATOM     18  C   UNL     1       1.727   9.024  19.062  0.00  0.00    +0.000 C 
BRANCH  16  24
ATOM     19  C   UNL     1      -4.025  12.870  20.165  0.00  0.00    +0.000 A 
ATOM     20  C   UNL     1      -2.912  12.951  20.995  0.00  0.00    +0.000 A 
ATOM     21  C   UNL     1      -1.746  12.249  20.666  0.00  0.00    +0.000 A 
ATOM     22  C   UNL     1      -1.658  11.465  19.523  0.00  0.00    +0.000 A 
ATOM     23  N   UNL     1      -0.510  10.812  19.244  0.00  0.00    +0.000 NA
ATOM     24  C   UNL     1      -0.435  10.038  18.135  0.00  0.00    +0.000 A 
ATOM     25  C   UNL     1      -1.529   9.901  17.279  0.00  0.00    +0.000 A 
ATOM     26  C   UNL     1      -2.714  10.573  17.560  0.00  0.00    +0.000 A 
ATOM     27  C   UNL     1      -2.796  11.378  18.697  0.00  0.00    +0.000 A 
ATOM     28  C   UNL     1      -3.969  12.083  19.018  0.00  0.00    +0.000 A 
ENDBRANCH  16  24
ENDBRANCH   1  18
TORSDOF 3
ENDMDL
MODEL 6
REMARK VINA RESULT:      -8.4      1.340      1.976
REMARK  Name = 
REMARK  3 active torsions:
REMARK  status: ('A' for Active; 'I' for Inactive)
REMARK    1  A    between atoms: C_6  and  C_7
REMARK    2  A    between atoms: C_9  and  C_10
REMARK    3  A    between atoms: C_16  and  N_17
REMARK                            x       y       z     vdW  Elec       q    Type
REMARK                         _______ _______ _______ _____ _____    ______ ____
ROOT
ATOM      1  C   UNL     1       2.656   7.293  19.057  0.00  0.00    +0.000 A 
ATOM      2  C   UNL     1       2.081   6.445  19.966  0.00  0.00    +0.000 A 
ATOM      3  N   UNL     1       2.691   5.239  19.776  0.00  0.00    +0.000 N 
ATOM      4  N   UNL     1       2.381   4.096  20.450  0.00  0.00    +0.000 NA
ATOM      5  C   UNL     1       3.096   3.098  20.062  0.00  0.00    +0.000 A 
ATOM      6  C   UNL     1       4.146   3.121  19.032  0.00  0.00    +0.000 A 
ATOM      7  C   UNL     1       4.444   4.280  18.424  0.00  0.00    +0.000 A 
ATOM      8  C   UNL     1       3.643   5.419  18.783  0.00  0.00    +0.000 A 
ATOM      9  N   UNL     1       3.609   6.657  18.316  0.00  0.00    +0.000 NA
ENDROOT
BRANCH   7  10
ATOM     10  N   UNL     1       5.489   4.365  17.502  0.00  0.00    +0.000 N 
ATOM     11  C   UNL     1       6.842   4.842  17.854  0.00  0.00    +0.000 C 
ATOM     12  C   UNL     1       7.273   5.926  16.862  0.00  0.00    +0.000 C 
ATOM     13  O   UNL     1       7.212   5.450  15.502  0.00  0.00    +0.000 OA
ATOM     14  C   UNL     1       5.883   5.012  15.179  0.00  0.00    +0.000 C 
ATOM     15  C   UNL     1       5.418   3.889  16.114  0.00  0.00    +0.000 C 
ENDBRANCH   7  10
BRANCH   1  18
ATOM     16  C   UNL     1       0.861   8.991  18.307  0.00  0.00    +0.000 C 
ATOM     17  C   UNL     1       2.085   9.356  17.527  0.00  0.00    +0.000 C 
ATOM     18  C   UNL     1       2.249   8.734  18.891  0.00  0.00    +0.000 C 
BRANCH  16  24
ATOM     19  C   UNL     1      -2.405  12.581  22.596  0.00  0.00    +0.000 A 
ATOM     20  C   UNL     1      -1.610  11.641  23.244  0.00  0.00    +0.000 A 
ATOM     21  C   UNL     1      -0.812  10.769  22.495  0.00  0.00    +0.000 A 
ATOM     22  C   UNL     1      -0.782  10.809  21.107  0.00  0.00    +0.000 A 
ATOM     23  N   UNL     1       0.008   9.952  20.428  0.00  0.00    +0.000 NA
ATOM     24  C   UNL     1       0.022   9.987  19.074  0.00  0.00    +0.000 A 
ATOM     25  C   UNL     1      -0.773  10.893  18.370  0.00  0.00    +0.000 A 
ATOM     26  C   UNL     1      -1.588  11.781  19.065  0.00  0.00    +0.000 A 
ATOM     27  C   UNL     1      -1.602  11.755  20.460  0.00  0.00    +0.000 A 
ATOM     28  C   UNL     1      -2.403  12.637  21.206  0.00  0.00    +0.000 A 
ENDBRANCH  16  24
ENDBRANCH   1  18
TORSDOF 3
ENDMDL
MODEL 7
REMARK VINA RESULT:      -8.3      2.187      2.694
REMARK  Name = 
REMARK  3 active torsions:
REMARK  status: ('A' for Active; 'I' for Inactive)
REMARK    1  A    between atoms: C_6  and  C_7
REMARK    2  A    between atoms: C_9  and  C_10
REMARK    3  A    between atoms: C_16  and  N_17
REMARK                            x       y       z     vdW  Elec       q    Type
REMARK                         _______ _______ _______ _____ _____    ______ ____
ROOT
ATOM      1  C   UNL     1       2.664   6.809  18.751  0.00  0.00    +0.000 A 
ATOM      2  C   UNL     1       1.867   5.807  19.238  0.00  0.00    +0.000 A 
ATOM      3  N   UNL     1       2.414   4.647  18.774  0.00  0.00    +0.000 N 
ATOM      4  N   UNL     1       1.900   3.404  18.991  0.00  0.00    +0.000 NA
ATOM      5  C   UNL     1       2.603   2.486  18.424  0.00  0.00    +0.000 A 
ATOM      6  C   UNL     1       3.830   2.682  17.636  0.00  0.00    +0.000 A 
ATOM      7  C   UNL     1       4.322   3.923  17.485  0.00  0.00    +0.000 A 
ATOM      8  C   UNL     1       3.549   4.993  18.056  0.00  0.00    +0.000 A 
ATOM      9  N   UNL     1       3.694   6.308  18.009  0.00  0.00    +0.000 NA
ENDROOT
BRANCH   7  10
ATOM     10  N   UNL     1       5.527   4.146  16.818  0.00  0.00    +0.000 N 
ATOM     11  C   UNL     1       6.734   4.675  17.484  0.00  0.00    +0.000 C 
ATOM     12  C   UNL     1       7.279   5.860  16.682  0.00  0.00    +0.000 C 
ATOM     13  O   UNL     1       7.543   5.493  15.312  0.00  0.00    +0.000 OA
ATOM     14  C   UNL     1       6.350   5.002  14.682  0.00  0.00    +0.000 C 
ATOM     15  C   UNL     1       5.787   3.781  15.419  0.00  0.00    +0.000 C 
ENDBRANCH   7  10
BRANCH   1  18
ATOM     16  C   UNL     1       0.975   8.761  18.746  0.00  0.00    +0.000 C 
ATOM     17  C   UNL     1       2.089   9.214  17.855  0.00  0.00    +0.000 C 
ATOM     18  C   UNL     1       2.402   8.273  18.990  0.00  0.00    +0.000 C 
BRANCH  16  24
ATOM     19  C   UNL     1      -1.262  13.330  22.755  0.00  0.00    +0.000 A 
ATOM     20  C   UNL     1      -0.934  13.877  21.519  0.00  0.00    +0.000 A 
ATOM     21  C   UNL     1      -0.440  13.052  20.502  0.00  0.00    +0.000 A 
ATOM     22  C   UNL     1      -0.265  11.686  20.683  0.00  0.00    +0.000 A 
ATOM     23  N   UNL     1       0.209  10.931  19.670  0.00  0.00    +0.000 NA
ATOM     24  C   UNL     1       0.390   9.601  19.857  0.00  0.00    +0.000 A 
ATOM     25  C   UNL     1       0.101   9.003  21.084  0.00  0.00    +0.000 A 
ATOM     26  C   UNL     1      -0.389   9.776  22.132  0.00  0.00    +0.000 A 
ATOM     27  C   UNL     1      -0.586  11.145  21.943  0.00  0.00    +0.000 A 
ATOM     28  C   UNL     1      -1.086  11.966  22.969  0.00  0.00    +0.000 A 
ENDBRANCH  16  24
ENDBRANCH   1  18
TORSDOF 3
ENDMDL
MODEL 8
REMARK VINA RESULT:      -8.2      1.961      3.249
REMARK  Name = 
REMARK  3 active torsions:
REMARK  status: ('A' for Active; 'I' for Inactive)
REMARK    1  A    between atoms: C_6  and  C_7
REMARK    2  A    between atoms: C_9  and  C_10
REMARK    3  A    between atoms: C_16  and  N_17
REMARK                            x       y       z     vdW  Elec       q    Type
REMARK                         _______ _______ _______ _____ _____    ______ ____
ROOT
ATOM      1  C   UNL     1       2.220   7.941  18.501  0.00  0.00    +0.000 A 
ATOM      2  C   UNL     1       3.203   8.100  17.561  0.00  0.00    +0.000 A 
ATOM      3  N   UNL     1       3.797   6.878  17.444  0.00  0.00    +0.000 N 
ATOM      4  N   UNL     1       4.863   6.606  16.640  0.00  0.00    +0.000 NA
ATOM      5  C   UNL     1       5.238   5.378  16.735  0.00  0.00    +0.000 A 
ATOM      6  C   UNL     1       4.626   4.337  17.576  0.00  0.00    +0.000 A 
ATOM      7  C   UNL     1       3.551   4.643  18.320  0.00  0.00    +0.000 A 
ATOM      8  C   UNL     1       3.119   6.015  18.291  0.00  0.00    +0.000 A 
ATOM      9  N   UNL     1       2.177   6.657  18.963  0.00  0.00    +0.000 NA
ENDROOT
BRANCH   7  10
ATOM     10  N   UNL     1       2.887   3.668  19.067  0.00  0.00    +0.000 N 
ATOM     11  C   UNL     1       1.523   3.198  18.754  0.00  0.00    +0.000 C 
ATOM     12  C   UNL     1       0.663   3.258  20.019  0.00  0.00    +0.000 C 
ATOM     13  O   UNL     1       1.254   2.503  21.096  0.00  0.00    +0.000 OA
ATOM     14  C   UNL     1       2.571   2.993  21.394  0.00  0.00    +0.000 C 
ATOM     15  C   UNL     1       3.491   2.909  20.170  0.00  0.00    +0.000 C 
ENDBRANCH   7  10
BRANCH   1  18
ATOM     16  C   UNL     1       0.855  10.052  17.914  0.00  0.00    +0.000 C 
ATOM     17  C   UNL     1       1.802  10.493  18.986  0.00  0.00    +0.000 C 
ATOM     18  C   UNL     1       1.330   9.061  18.974  0.00  0.00    +0.000 C 
BRANCH  16  24
ATOM     19  C   UNL     1      -5.240  11.945  19.020  0.00  0.00    +0.000 A 
ATOM     20  C   UNL     1      -4.359  12.593  19.880  0.00  0.00    +0.000 A 
ATOM     21  C   UNL     1      -2.987  12.331  19.797  0.00  0.00    +0.000 A 
ATOM     22  C   UNL     1      -2.463  11.438  18.872  0.00  0.00    +0.000 A 
ATOM     23  N   UNL     1      -1.132  11.223  18.826  0.00  0.00    +0.000 NA
ATOM     24  C   UNL     1      -0.629  10.340  17.930  0.00  0.00    +0.000 A 
ATOM     25  C   UNL     1      -1.468   9.643  17.059  0.00  0.00    +0.000 A 
ATOM     26  C   UNL     1      -2.841   9.861  17.101  0.00  0.00    +0.000 A 
ATOM     27  C   UNL     1      -3.365  10.776  18.015  0.00  0.00    +0.000 A 
ATOM     28  C   UNL     1      -4.744  11.036  18.090  0.00  0.00    +0.000 A 
ENDBRANCH  16  24
ENDBRANCH   1  18
TORSDOF 3
ENDMDL
MODEL 9
REMARK VINA RESULT:      -8.2      1.309      2.214
REMARK  Name = 
REMARK  3 active torsions:
REMARK  status: ('A' for Active; 'I' for Inactive)
REMARK    1  A    between atoms: C_6  and  C_7
REMARK    2  A    between atoms: C_9  and  C_10
REMARK    3  A    between atoms: C_16  and  N_17
REMARK                            x       y       z     vdW  Elec       q    Type
REMARK                         _______ _______ _______ _____ _____    ______ ____
ROOT
ATOM      1  C   UNL     1       1.791   6.475  20.506  0.00  0.00    +0.000 A 
ATOM      2  C   UNL     1       1.490   5.195  20.888  0.00  0.00    +0.000 A 
ATOM      3  N   UNL     1       2.398   4.401  20.250  0.00  0.00    +0.000 N 
ATOM      4  N   UNL     1       2.427   3.041  20.319  0.00  0.00    +0.000 NA
ATOM      5  C   UNL     1       3.374   2.541  19.605  0.00  0.00    +0.000 A 
ATOM      6  C   UNL     1       4.353   3.288  18.800  0.00  0.00    +0.000 A 
ATOM      7  C   UNL     1       4.311   4.630  18.795  0.00  0.00    +0.000 A 
ATOM      8  C   UNL     1       3.240   5.242  19.537  0.00  0.00    +0.000 A 
ATOM      9  N   UNL     1       2.861   6.504  19.660  0.00  0.00    +0.000 NA
ENDROOT
BRANCH   7  10
ATOM     10  N   UNL     1       5.270   5.381  18.114  0.00  0.00    +0.000 N 
ATOM     11  C   UNL     1       4.985   6.121  16.869  0.00  0.00    +0.000 C 
ATOM     12  C   UNL     1       6.034   5.763  15.813  0.00  0.00    +0.000 C 
ATOM     13  O   UNL     1       7.371   6.018  16.291  0.00  0.00    +0.000 OA
ATOM     14  C   UNL     1       7.630   5.272  17.490  0.00  0.00    +0.000 C 
ATOM     15  C   UNL     1       6.634   5.629  18.601  0.00  0.00    +0.000 C 
ENDBRANCH   7  10
BRANCH   1  18
ATOM     16  C   UNL     1       1.291   8.992  20.216  0.00  0.00    +0.000 C 
ATOM     17  C   UNL     1       1.666   8.838  21.657  0.00  0.00    +0.000 C 
ATOM     18  C   UNL     1       1.006   7.682  20.949  0.00  0.00    +0.000 C 
BRANCH  16  24
ATOM     19  C   UNL     1      -3.775  11.557  17.100  0.00  0.00    +0.000 A 
ATOM     20  C   UNL     1      -3.200  10.536  16.350  0.00  0.00    +0.000 A 
ATOM     21  C   UNL     1      -2.093   9.841  16.852  0.00  0.00    +0.000 A 
ATOM     22  C   UNL     1      -1.541  10.136  18.092  0.00  0.00    +0.000 A 
ATOM     23  N   UNL     1      -0.477   9.434  18.536  0.00  0.00    +0.000 NA
ATOM     24  C   UNL     1       0.065   9.735  19.740  0.00  0.00    +0.000 A 
ATOM     25  C   UNL     1      -0.455  10.766  20.525  0.00  0.00    +0.000 A 
ATOM     26  C   UNL     1      -1.553  11.492  20.073  0.00  0.00    +0.000 A 
ATOM     27  C   UNL     1      -2.121  11.181  18.837  0.00  0.00    +0.000 A 
ATOM     28  C   UNL     1      -3.235  11.881  18.341  0.00  0.00    +0.000 A 
ENDBRANCH  16  24
ENDBRANCH   1  18
TORSDOF 3
ENDMDL
