MODEL 1
REMARK VINA RESULT:      -8.3      0.000      0.000
REMARK  Name = 
REMARK  13 active torsions:
REMARK  status: ('A' for Active; 'I' for Inactive)
REMARK    1  A    between atoms: C_1  and  C_2
REMARK    2  A    between atoms: C_2  and  C_3
REMARK    3  A    between atoms: C_2  and  C_4
REMARK    4  A    between atoms: C_2  and  O_5
REMARK    5  A    between atoms: O_5  and  C_6
REMARK    6  A    between atoms: N_8  and  C_9
REMARK    7  A    between atoms: C_14  and  S_15
REMARK    8  A    between atoms: S_15  and  C_16
REMARK    9  A    between atoms: C_16  and  C_17
REMARK   10  A    between atoms: C_20  and  C_21
REMARK   11  A    between atoms: C_21  and  C_22
REMARK   12  A    between atoms: C_21  and  C_23
REMARK   13  A    between atoms: C_21  and  C_24
REMARK                            x       y       z     vdW  Elec       q    Type
REMARK                         _______ _______ _______ _____ _____    ______ ____
ROOT
ATOM      1  C   UNL     1       5.306   4.632  17.013  0.00  0.00    +0.000 A 
ATOM      2  C   UNL     1       5.639   4.495  15.718  0.00  0.00    +0.000 A 
ATOM      3  C   UNL     1       6.816   5.194  15.210  0.00  0.00    +0.000 A 
ATOM      4  O   UNL     1       7.180   5.092  14.047  0.00  0.00    +0.000 OA
ATOM      5  N   UNL     1       7.465   5.944  16.132  0.00  0.00    +0.000 N 
ATOM      6  C   UNL     1       6.997   6.086  17.400  0.00  0.00    +0.000 A 
ATOM      7  N   UNL     1       5.948   5.496  17.875  0.00  0.00    +0.000 NA
ATOM      8  H   UNL     1       8.285   6.447  15.839  0.00  0.00    +0.000 HD
ENDROOT
BRANCH   1  11
ATOM      9  C   UNL     1       4.377   3.335  18.842  0.00  0.00    +0.000 C 
ATOM     10  O   UNL     1       5.345   3.483  19.586  0.00  0.00    +0.000 OA
ATOM     11  N   UNL     1       4.303   3.873  17.577  0.00  0.00    +0.000 N 
ATOM     12  H   UNL     1       3.384   3.930  17.161  0.00  0.00    +0.000 HD
BRANCH   9  13
ATOM     13  O   UNL     1       3.241   2.693  19.219  0.00  0.00    +0.000 OA
BRANCH  13  15
ATOM     14  C   UNL     1       1.294   3.901  18.331  0.00  0.00    +0.000 C 
ATOM     15  C   UNL     1       2.103   3.533  19.587  0.00  0.00    +0.000 C 
ATOM     16  C   UNL     1       2.529   4.778  20.390  0.00  0.00    +0.000 C 
ATOM     17  C   UNL     1       1.187   2.694  20.494  0.00  0.00    +0.000 C 
ENDBRANCH  13  15
ENDBRANCH   9  13
ENDBRANCH   1  11
BRANCH   6  18
ATOM     18  S   UNL     1       7.992   7.211  18.266  0.00  0.00    +0.000 S 
BRANCH  18  19
ATOM     19  C   UNL     1       7.484   8.794  17.555  0.00  0.00    +0.000 C 
BRANCH  19  20
ATOM     20  C   UNL     1       8.337   9.919  18.101  0.00  0.00    +0.000 A 
ATOM     21  C   UNL     1       8.318  11.175  17.488  0.00  0.00    +0.000 A 
ATOM     22  C   UNL     1       9.110  12.226  17.969  0.00  0.00    +0.000 A 
ATOM     23  C   UNL     1       9.950  12.066  19.083  0.00  0.00    +0.000 A 
ATOM     24  C   UNL     1       9.987  10.789  19.673  0.00  0.00    +0.000 A 
ATOM     25  C   UNL     1       9.194   9.732  19.193  0.00  0.00    +0.000 A 
BRANCH  23  26
ATOM     26  C   UNL     1      10.777  13.232  19.665  0.00  0.00    +0.000 C 
ATOM     27  C   UNL     1      10.369  13.608  21.109  0.00  0.00    +0.000 C 
ATOM     28  C   UNL     1      12.271  12.839  19.701  0.00  0.00    +0.000 C 
ATOM     29  C   UNL     1      10.626  14.505  18.805  0.00  0.00    +0.000 C 
ENDBRANCH  23  26
ENDBRANCH  19  20
ENDBRANCH  18  19
ENDBRANCH   6  18
TORSDOF 7
ENDMDL
MODEL 2
REMARK VINA RESULT:      -8.1      2.569      9.014
REMARK  Name = 
REMARK  13 active torsions:
REMARK  status: ('A' for Active; 'I' for Inactive)
REMARK    1  A    between atoms: C_1  and  C_2
REMARK    2  A    between atoms: C_2  and  C_3
REMARK    3  A    between atoms: C_2  and  C_4
REMARK    4  A    between atoms: C_2  and  O_5
REMARK    5  A    between atoms: O_5  and  C_6
REMARK    6  A    between atoms: N_8  and  C_9
REMARK    7  A    between atoms: C_14  and  S_15
REMARK    8  A    between atoms: S_15  and  C_16
REMARK    9  A    between atoms: C_16  and  C_17
REMARK   10  A    between atoms: C_20  and  C_21
REMARK   11  A    between atoms: C_21  and  C_22
REMARK   12  A    between atoms: C_21  and  C_23
REMARK   13  A    between atoms: C_21  and  C_24
REMARK                            x       y       z     vdW  Elec       q    Type
REMARK                         _______ _______ _______ _____ _____    ______ ____
ROOT
ATOM      1  C   UNL     1       7.715   7.534  17.727  0.00  0.00    +0.000 A 
ATOM      2  C   UNL     1       7.904   7.077  18.976  0.00  0.00    +0.000 A 
ATOM      3  C   UNL     1       7.876   5.637  19.217  0.00  0.00    +0.000 A 
ATOM      4  O   UNL     1       8.062   5.161  20.328  0.00  0.00    +0.000 OA
ATOM      5  N   UNL     1       7.643   4.888  18.114  0.00  0.00    +0.000 N 
ATOM      6  C   UNL     1       7.377   5.452  16.906  0.00  0.00    +0.000 A 
ATOM      7  N   UNL     1       7.375   6.722  16.665  0.00  0.00    +0.000 NA
ATOM      8  H   UNL     1       7.614   3.888  18.219  0.00  0.00    +0.000 HD
ENDROOT
BRANCH   1  11
ATOM      9  C   UNL     1       8.593   9.745  18.210  0.00  0.00    +0.000 C 
ATOM     10  O   UNL     1       9.136   9.420  19.265  0.00  0.00    +0.000 OA
ATOM     11  N   UNL     1       7.888   8.867  17.419  0.00  0.00    +0.000 N 
ATOM     12  H   UNL     1       7.718   9.151  16.464  0.00  0.00    +0.000 HD
BRANCH   9  13
ATOM     13  O   UNL     1       8.699  10.986  17.671  0.00  0.00    +0.000 OA
BRANCH  13  15
ATOM     14  C   UNL     1       9.465  11.754  19.877  0.00  0.00    +0.000 C 
ATOM     15  C   UNL     1       9.589  11.924  18.352  0.00  0.00    +0.000 C 
ATOM     16  C   UNL     1       9.356  13.382  17.909  0.00  0.00    +0.000 C 
ATOM     17  C   UNL     1      11.031  11.553  17.964  0.00  0.00    +0.000 C 
ENDBRANCH  13  15
ENDBRANCH   9  13
ENDBRANCH   1  11
BRANCH   6  18
ATOM     18  S   UNL     1       6.997   4.212  15.754  0.00  0.00    +0.000 S 
BRANCH  18  19
ATOM     19  C   UNL     1       5.261   4.555  15.386  0.00  0.00    +0.000 C 
BRANCH  19  20
ATOM     20  C   UNL     1       4.408   4.365  16.623  0.00  0.00    +0.000 A 
ATOM     21  C   UNL     1       3.913   5.477  17.311  0.00  0.00    +0.000 A 
ATOM     22  C   UNL     1       3.133   5.323  18.465  0.00  0.00    +0.000 A 
ATOM     23  C   UNL     1       2.814   4.055  18.976  0.00  0.00    +0.000 A 
ATOM     24  C   UNL     1       3.345   2.943  18.295  0.00  0.00    +0.000 A 
ATOM     25  C   UNL     1       4.128   3.093  17.137  0.00  0.00    +0.000 A 
BRANCH  23  26
ATOM     26  C   UNL     1       1.902   3.868  20.207  0.00  0.00    +0.000 C 
ATOM     27  C   UNL     1       1.437   5.205  20.829  0.00  0.00    +0.000 C 
ATOM     28  C   UNL     1       0.632   3.090  19.796  0.00  0.00    +0.000 C 
ATOM     29  C   UNL     1       2.624   3.078  21.319  0.00  0.00    +0.000 C 
ENDBRANCH  23  26
ENDBRANCH  19  20
ENDBRANCH  18  19
ENDBRANCH   6  18
TORSDOF 7
ENDMDL
MODEL 3
REMARK VINA RESULT:      -8.0      0.894      1.452
REMARK  Name = 
REMARK  13 active torsions:
REMARK  status: ('A' for Active; 'I' for Inactive)
REMARK    1  A    between atoms: C_1  and  C_2
REMARK    2  A    between atoms: C_2  and  C_3
REMARK    3  A    between atoms: C_2  and  C_4
REMARK    4  A    between atoms: C_2  and  O_5
REMARK    5  A    between atoms: O_5  and  C_6
REMARK    6  A    between atoms: N_8  and  C_9
REMARK    7  A    between atoms: C_14  and  S_15
REMARK    8  A    between atoms: S_15  and  C_16
REMARK    9  A    between atoms: C_16  and  C_17
REMARK   10  A    between atoms: C_20  and  C_21
REMARK   11  A    between atoms: C_21  and  C_22
REMARK   12  A    between atoms: C_21  and  C_23
REMARK   13  A    between atoms: C_21  and  C_24
REMARK                            x       y       z     vdW  Elec       q    Type
REMARK                         _______ _______ _______ _____ _____    ______ ____
ROOT
ATOM      1  C   UNL     1       5.289   5.309  17.507  0.00  0.00    +0.000 A 
ATOM      2  C   UNL     1       5.686   4.845  16.310  0.00  0.00    +0.000 A 
ATOM      3  C   UNL     1       6.991   5.244  15.791  0.00  0.00    +0.000 A 
ATOM      4  O   UNL     1       7.414   4.838  14.718  0.00  0.00    +0.000 OA
ATOM      5  N   UNL     1       7.684   6.081  16.598  0.00  0.00    +0.000 N 
ATOM      6  C   UNL     1       7.157   6.564  17.754  0.00  0.00    +0.000 A 
ATOM      7  N   UNL     1       5.998   6.245  18.231  0.00  0.00    +0.000 NA
ATOM      8  H   UNL     1       8.592   6.389  16.293  0.00  0.00    +0.000 HD
ENDROOT
BRANCH   1  11
ATOM      9  C   UNL     1       4.139   3.869  19.087  0.00  0.00    +0.000 C 
ATOM     10  O   UNL     1       5.159   3.330  19.509  0.00  0.00    +0.000 OA
ATOM     11  N   UNL     1       4.142   4.841  18.112  0.00  0.00    +0.000 N 
ATOM     12  H   UNL     1       3.308   5.405  18.030  0.00  0.00    +0.000 HD
BRANCH   9  13
ATOM     13  O   UNL     1       2.903   3.623  19.593  0.00  0.00    +0.000 OA
BRANCH  13  15
ATOM     14  C   UNL     1       0.682   2.580  19.457  0.00  0.00    +0.000 C 
ATOM     15  C   UNL     1       1.918   3.058  18.674  0.00  0.00    +0.000 C 
ATOM     16  C   UNL     1       2.512   1.945  17.789  0.00  0.00    +0.000 C 
ATOM     17  C   UNL     1       1.459   4.190  17.739  0.00  0.00    +0.000 C 
ENDBRANCH  13  15
ENDBRANCH   9  13
ENDBRANCH   1  11
BRANCH   6  18
ATOM     18  S   UNL     1       8.254   7.704  18.464  0.00  0.00    +0.000 S 
BRANCH  18  19
ATOM     19  C   UNL     1       7.902   9.208  17.523  0.00  0.00    +0.000 C 
BRANCH  19  20
ATOM     20  C   UNL     1       8.565  10.406  18.169  0.00  0.00    +0.000 A 
ATOM     21  C   UNL     1       8.412  11.678  17.611  0.00  0.00    +0.000 A 
ATOM     22  C   UNL     1       9.029  12.797  18.185  0.00  0.00    +0.000 A 
ATOM     23  C   UNL     1       9.821  12.692  19.340  0.00  0.00    +0.000 A 
ATOM     24  C   UNL     1       9.996  11.402  19.875  0.00  0.00    +0.000 A 
ATOM     25  C   UNL     1       9.379  10.276  19.301  0.00  0.00    +0.000 A 
BRANCH  23  26
ATOM     26  C   UNL     1      10.452  13.924  20.021  0.00  0.00    +0.000 C 
ATOM     27  C   UNL     1       9.915  15.267  19.471  0.00  0.00    +0.000 C 
ATOM     28  C   UNL     1      10.141  13.895  21.534  0.00  0.00    +0.000 C 
ATOM     29  C   UNL     1      11.984  13.939  19.835  0.00  0.00    +0.000 C 
ENDBRANCH  23  26
ENDBRANCH  19  20
ENDBRANCH  18  19
ENDBRANCH   6  18
TORSDOF 7
ENDMDL
MODEL 4
REMARK VINA RESULT:      -7.9      5.400      7.636
REMARK  Name = 
REMARK  13 active torsions:
REMARK  status: ('A' for Active; 'I' for Inactive)
REMARK    1  A    between atoms: C_1  and  C_2
REMARK    2  A    between atoms: C_2  and  C_3
REMARK    3  A    between atoms: C_2  and  C_4
REMARK    4  A    between atoms: C_2  and  O_5
REMARK    5  A    between atoms: O_5  and  C_6
REMARK    6  A    between atoms: N_8  and  C_9
REMARK    7  A    between atoms: C_14  and  S_15
REMARK    8  A    between atoms: S_15  and  C_16
REMARK    9  A    between atoms: C_16  and  C_17
REMARK   10  A    between atoms: C_20  and  C_21
REMARK   11  A    between atoms: C_21  and  C_22
REMARK   12  A    between atoms: C_21  and  C_23
REMARK   13  A    between atoms: C_21  and  C_24
REMARK                            x       y       z     vdW  Elec       q    Type
REMARK                         _______ _______ _______ _____ _____    ______ ____
ROOT
ATOM      1  C   UNL     1       5.714   4.185  16.835  0.00  0.00    +0.000 A 
ATOM      2  C   UNL     1       6.614   4.555  17.761  0.00  0.00    +0.000 A 
ATOM      3  C   UNL     1       6.144   5.140  19.013  0.00  0.00    +0.000 A 
ATOM      4  O   UNL     1       6.915   5.477  19.901  0.00  0.00    +0.000 OA
ATOM      5  N   UNL     1       4.799   5.262  19.106  0.00  0.00    +0.000 N 
ATOM      6  C   UNL     1       3.975   4.937  18.075  0.00  0.00    +0.000 A 
ATOM      7  N   UNL     1       4.362   4.435  16.947  0.00  0.00    +0.000 NA
ATOM      8  H   UNL     1       4.417   5.658  19.949  0.00  0.00    +0.000 HD
ENDROOT
BRANCH   1  11
ATOM      9  C   UNL     1       6.435   4.090  14.519  0.00  0.00    +0.000 C 
ATOM     10  O   UNL     1       6.436   5.309  14.353  0.00  0.00    +0.000 OA
ATOM     11  N   UNL     1       6.092   3.486  15.708  0.00  0.00    +0.000 N 
ATOM     12  H   UNL     1       6.379   2.525  15.828  0.00  0.00    +0.000 HD
BRANCH   9  13
ATOM     13  O   UNL     1       6.849   3.211  13.571  0.00  0.00    +0.000 OA
BRANCH  13  15
ATOM     14  C   UNL     1       7.193   4.699  11.646  0.00  0.00    +0.000 C 
ATOM     15  C   UNL     1       6.430   3.481  12.197  0.00  0.00    +0.000 C 
ATOM     16  C   UNL     1       4.903   3.646  12.071  0.00  0.00    +0.000 C 
ATOM     17  C   UNL     1       6.831   2.264  11.346  0.00  0.00    +0.000 C 
ENDBRANCH  13  15
ENDBRANCH   9  13
ENDBRANCH   1  11
BRANCH   6  18
ATOM     18  S   UNL     1       2.340   5.340  18.485  0.00  0.00    +0.000 S 
BRANCH  18  19
ATOM     19  C   UNL     1       2.548   6.251  20.032  0.00  0.00    +0.000 C 
BRANCH  19  20
ATOM     20  C   UNL     1       1.875   7.605  19.946  0.00  0.00    +0.000 A 
ATOM     21  C   UNL     1       1.934   8.344  18.762  0.00  0.00    +0.000 A 
ATOM     22  C   UNL     1       1.329   9.604  18.666  0.00  0.00    +0.000 A 
ATOM     23  C   UNL     1       0.639  10.175  19.748  0.00  0.00    +0.000 A 
ATOM     24  C   UNL     1       0.614   9.438  20.947  0.00  0.00    +0.000 A 
ATOM     25  C   UNL     1       1.220   8.173  21.046  0.00  0.00    +0.000 A 
BRANCH  23  26
ATOM     26  C   UNL     1      -0.088  11.532  19.637  0.00  0.00    +0.000 C 
ATOM     27  C   UNL     1       0.769  12.630  18.963  0.00  0.00    +0.000 C 
ATOM     28  C   UNL     1      -1.367  11.365  18.788  0.00  0.00    +0.000 C 
ATOM     29  C   UNL     1      -0.489  12.062  21.030  0.00  0.00    +0.000 C 
ENDBRANCH  23  26
ENDBRANCH  19  20
ENDBRANCH  18  19
ENDBRANCH   6  18
TORSDOF 7
ENDMDL
MODEL 5
REMARK VINA RESULT:      -7.9      0.832      1.246
REMARK  Name = 
REMARK  13 active torsions:
REMARK  status: ('A' for Active; 'I' for Inactive)
REMARK    1  A    between atoms: C_1  and  C_2
REMARK    2  A    between atoms: C_2  and  C_3
REMARK    3  A    between atoms: C_2  and  C_4
REMARK    4  A    between atoms: C_2  and  O_5
REMARK    5  A    between atoms: O_5  and  C_6
REMARK    6  A    between atoms: N_8  and  C_9
REMARK    7  A    between atoms: C_14  and  S_15
REMARK    8  A    between atoms: S_15  and  C_16
REMARK    9  A    between atoms: C_16  and  C_17
REMARK   10  A    between atoms: C_20  and  C_21
REMARK   11  A    between atoms: C_21  and  C_22
REMARK   12  A    between atoms: C_21  and  C_23
REMARK   13  A    between atoms: C_21  and  C_24
REMARK                            x       y       z     vdW  Elec       q    Type
REMARK                         _______ _______ _______ _____ _____    ______ ____
ROOT
ATOM      1  C   UNL     1       5.674   4.512  17.640  0.00  0.00    +0.000 A 
ATOM      2  C   UNL     1       5.803   4.441  16.304  0.00  0.00    +0.000 A 
ATOM      3  C   UNL     1       6.795   5.282  15.641  0.00  0.00    +0.000 A 
ATOM      4  O   UNL     1       6.972   5.245  14.431  0.00  0.00    +0.000 OA
ATOM      5  N   UNL     1       7.499   6.083  16.474  0.00  0.00    +0.000 N 
ATOM      6  C   UNL     1       7.233   6.145  17.806  0.00  0.00    +0.000 A 
ATOM      7  N   UNL     1       6.349   5.428  18.420  0.00  0.00    +0.000 NA
ATOM      8  H   UNL     1       8.199   6.684  16.073  0.00  0.00    +0.000 HD
ENDROOT
BRANCH   1  11
ATOM      9  C   UNL     1       3.688   3.996  18.936  0.00  0.00    +0.000 C 
ATOM     10  O   UNL     1       3.243   5.142  18.918  0.00  0.00    +0.000 OA
ATOM     11  N   UNL     1       4.868   3.631  18.329  0.00  0.00    +0.000 N 
ATOM     12  H   UNL     1       5.008   2.644  18.166  0.00  0.00    +0.000 HD
BRANCH   9  13
ATOM     13  O   UNL     1       3.023   2.949  19.488  0.00  0.00    +0.000 OA
BRANCH  13  15
ATOM     14  C   UNL     1       0.595   2.631  19.282  0.00  0.00    +0.000 C 
ATOM     15  C   UNL     1       1.735   3.246  20.112  0.00  0.00    +0.000 C 
ATOM     16  C   UNL     1       1.532   4.755  20.350  0.00  0.00    +0.000 C 
ATOM     17  C   UNL     1       1.723   2.560  21.489  0.00  0.00    +0.000 C 
ENDBRANCH  13  15
ENDBRANCH   9  13
ENDBRANCH   1  11
BRANCH   6  18
ATOM     18  S   UNL     1       8.224   7.362  18.543  0.00  0.00    +0.000 S 
BRANCH  18  19
ATOM     19  C   UNL     1       7.818   8.828  17.566  0.00  0.00    +0.000 C 
BRANCH  19  20
ATOM     20  C   UNL     1       8.476  10.057  18.155  0.00  0.00    +0.000 A 
ATOM     21  C   UNL     1       8.315  11.302  17.540  0.00  0.00    +0.000 A 
ATOM     22  C   UNL     1       8.926  12.450  18.061  0.00  0.00    +0.000 A 
ATOM     23  C   UNL     1       9.721  12.402  19.218  0.00  0.00    +0.000 A 
ATOM     24  C   UNL     1       9.904  11.138  19.811  0.00  0.00    +0.000 A 
ATOM     25  C   UNL     1       9.292   9.984  19.291  0.00  0.00    +0.000 A 
BRANCH  23  26
ATOM     26  C   UNL     1      10.346  13.667  19.842  0.00  0.00    +0.000 C 
ATOM     27  C   UNL     1      11.875  13.762  19.624  0.00  0.00    +0.000 C 
ATOM     28  C   UNL     1       9.715  14.924  19.203  0.00  0.00    +0.000 C 
ATOM     29  C   UNL     1      10.101  13.715  21.365  0.00  0.00    +0.000 C 
ENDBRANCH  23  26
ENDBRANCH  19  20
ENDBRANCH  18  19
ENDBRANCH   6  18
TORSDOF 7
ENDMDL
MODEL 6
REMARK VINA RESULT:      -7.9      1.631      1.720
REMARK  Name = 
REMARK  13 active torsions:
REMARK  status: ('A' for Active; 'I' for Inactive)
REMARK    1  A    between atoms: C_1  and  C_2
REMARK    2  A    between atoms: C_2  and  C_3
REMARK    3  A    between atoms: C_2  and  C_4
REMARK    4  A    between atoms: C_2  and  O_5
REMARK    5  A    between atoms: O_5  and  C_6
REMARK    6  A    between atoms: N_8  and  C_9
REMARK    7  A    between atoms: C_14  and  S_15
REMARK    8  A    between atoms: S_15  and  C_16
REMARK    9  A    between atoms: C_16  and  C_17
REMARK   10  A    between atoms: C_20  and  C_21
REMARK   11  A    between atoms: C_21  and  C_22
REMARK   12  A    between atoms: C_21  and  C_23
REMARK   13  A    between atoms: C_21  and  C_24
REMARK                            x       y       z     vdW  Elec       q    Type
REMARK                         _______ _______ _______ _____ _____    ______ ____
ROOT
ATOM      1  C   UNL     1       5.271   5.226  17.673  0.00  0.00    +0.000 A 
ATOM      2  C   UNL     1       6.268   4.325  17.683  0.00  0.00    +0.000 A 
ATOM      3  C   UNL     1       7.649   4.796  17.715  0.00  0.00    +0.000 A 
ATOM      4  O   UNL     1       8.598   4.024  17.746  0.00  0.00    +0.000 OA
ATOM      5  N   UNL     1       7.783   6.143  17.720  0.00  0.00    +0.000 N 
ATOM      6  C   UNL     1       6.711   6.972  17.620  0.00  0.00    +0.000 A 
ATOM      7  N   UNL     1       5.477   6.586  17.571  0.00  0.00    +0.000 NA
ATOM      8  H   UNL     1       8.714   6.526  17.743  0.00  0.00    +0.000 HD
ENDROOT
BRANCH   1  11
ATOM      9  C   UNL     1       3.258   4.893  18.988  0.00  0.00    +0.000 C 
ATOM     10  O   UNL     1       3.746   5.296  20.042  0.00  0.00    +0.000 OA
ATOM     11  N   UNL     1       3.954   4.838  17.802  0.00  0.00    +0.000 N 
ATOM     12  H   UNL     1       3.406   4.757  16.957  0.00  0.00    +0.000 HD
BRANCH   9  13
ATOM     13  O   UNL     1       1.954   4.535  18.862  0.00  0.00    +0.000 OA
BRANCH  13  15
ATOM     14  C   UNL     1       0.402   2.639  18.682  0.00  0.00    +0.000 C 
ATOM     15  C   UNL     1       1.559   3.269  19.476  0.00  0.00    +0.000 C 
ATOM     16  C   UNL     1       1.222   3.423  20.972  0.00  0.00    +0.000 C 
ATOM     17  C   UNL     1       2.761   2.314  19.373  0.00  0.00    +0.000 C 
ENDBRANCH  13  15
ENDBRANCH   9  13
ENDBRANCH   1  11
BRANCH   6  18
ATOM     18  S   UNL     1       7.251   8.617  17.522  0.00  0.00    +0.000 S 
BRANCH  18  19
ATOM     19  C   UNL     1       8.685   8.613  18.622  0.00  0.00    +0.000 C 
BRANCH  19  20
ATOM     20  C   UNL     1       9.109  10.029  18.947  0.00  0.00    +0.000 A 
ATOM     21  C   UNL     1       9.330  10.949  17.918  0.00  0.00    +0.000 A 
ATOM     22  C   UNL     1       9.736  12.261  18.197  0.00  0.00    +0.000 A 
ATOM     23  C   UNL     1       9.935  12.707  19.514  0.00  0.00    +0.000 A 
ATOM     24  C   UNL     1       9.742  11.764  20.541  0.00  0.00    +0.000 A 
ATOM     25  C   UNL     1       9.335  10.447  20.265  0.00  0.00    +0.000 A 
BRANCH  23  26
ATOM     26  C   UNL     1      10.317  14.166  19.840  0.00  0.00    +0.000 C 
ATOM     27  C   UNL     1      10.033  14.557  21.309  0.00  0.00    +0.000 C 
ATOM     28  C   UNL     1      11.829  14.371  19.598  0.00  0.00    +0.000 C 
ATOM     29  C   UNL     1       9.539  15.157  18.949  0.00  0.00    +0.000 C 
ENDBRANCH  23  26
ENDBRANCH  19  20
ENDBRANCH  18  19
ENDBRANCH   6  18
TORSDOF 7
ENDMDL
MODEL 7
REMARK VINA RESULT:      -7.9      5.329      7.632
REMARK  Name = 
REMARK  13 active torsions:
REMARK  status: ('A' for Active; 'I' for Inactive)
REMARK    1  A    between atoms: C_1  and  C_2
REMARK    2  A    between atoms: C_2  and  C_3
REMARK    3  A    between atoms: C_2  and  C_4
REMARK    4  A    between atoms: C_2  and  O_5
REMARK    5  A    between atoms: O_5  and  C_6
REMARK    6  A    between atoms: N_8  and  C_9
REMARK    7  A    between atoms: C_14  and  S_15
REMARK    8  A    between atoms: S_15  and  C_16
REMARK    9  A    between atoms: C_16  and  C_17
REMARK   10  A    between atoms: C_20  and  C_21
REMARK   11  A    between atoms: C_21  and  C_22
REMARK   12  A    between atoms: C_21  and  C_23
REMARK   13  A    between atoms: C_21  and  C_24
REMARK                            x       y       z     vdW  Elec       q    Type
REMARK                         _______ _______ _______ _____ _____    ______ ____
ROOT
ATOM      1  C   UNL     1       5.845   4.388  17.050  0.00  0.00    +0.000 A 
ATOM      2  C   UNL     1       6.813   4.630  17.950  0.00  0.00    +0.000 A 
ATOM      3  C   UNL     1       6.465   5.285  19.207  0.00  0.00    +0.000 A 
ATOM      4  O   UNL     1       7.299   5.513  20.072  0.00  0.00    +0.000 OA
ATOM      5  N   UNL     1       5.155   5.601  19.332  0.00  0.00    +0.000 N 
ATOM      6  C   UNL     1       4.266   5.392  18.325  0.00  0.00    +0.000 A 
ATOM      7  N   UNL     1       4.546   4.832  17.193  0.00  0.00    +0.000 NA
ATOM      8  H   UNL     1       4.856   6.053  20.180  0.00  0.00    +0.000 HD
ENDROOT
BRANCH   1  11
ATOM      9  C   UNL     1       6.511   4.171  14.726  0.00  0.00    +0.000 C 
ATOM     10  O   UNL     1       6.710   5.373  14.556  0.00  0.00    +0.000 OA
ATOM     11  N   UNL     1       6.089   3.634  15.921  0.00  0.00    +0.000 N 
ATOM     12  H   UNL     1       6.215   2.639  16.042  0.00  0.00    +0.000 HD
BRANCH   9  13
ATOM     13  O   UNL     1       6.763   3.234  13.777  0.00  0.00    +0.000 OA
BRANCH  13  15
ATOM     14  C   UNL     1       7.150   4.537  11.729  0.00  0.00    +0.000 C 
ATOM     15  C   UNL     1       6.252   3.506  12.435  0.00  0.00    +0.000 C 
ATOM     16  C   UNL     1       4.771   3.935  12.446  0.00  0.00    +0.000 C 
ATOM     17  C   UNL     1       6.342   2.195  11.635  0.00  0.00    +0.000 C 
ENDBRANCH  13  15
ENDBRANCH   9  13
ENDBRANCH   1  11
BRANCH   6  18
ATOM     18  S   UNL     1       2.717   6.030  18.771  0.00  0.00    +0.000 S 
BRANCH  18  19
ATOM     19  C   UNL     1       2.697   7.618  17.908  0.00  0.00    +0.000 C 
BRANCH  19  20
ATOM     20  C   UNL     1       1.903   8.640  18.693  0.00  0.00    +0.000 A 
ATOM     21  C   UNL     1       1.569   8.394  20.028  0.00  0.00    +0.000 A 
ATOM     22  C   UNL     1       0.823   9.320  20.769  0.00  0.00    +0.000 A 
ATOM     23  C   UNL     1       0.384  10.530  20.208  0.00  0.00    +0.000 A 
ATOM     24  C   UNL     1       0.697  10.754  18.853  0.00  0.00    +0.000 A 
ATOM     25  C   UNL     1       1.445   9.827  18.108  0.00  0.00    +0.000 A 
BRANCH  23  26
ATOM     26  C   UNL     1      -0.381  11.590  21.029  0.00  0.00    +0.000 C 
ATOM     27  C   UNL     1       0.435  12.882  21.268  0.00  0.00    +0.000 C 
ATOM     28  C   UNL     1      -1.669  11.996  20.279  0.00  0.00    +0.000 C 
ATOM     29  C   UNL     1      -0.774  11.040  22.417  0.00  0.00    +0.000 C 
ENDBRANCH  23  26
ENDBRANCH  19  20
ENDBRANCH  18  19
ENDBRANCH   6  18
TORSDOF 7
ENDMDL
MODEL 8
REMARK VINA RESULT:      -7.8      5.756      8.552
REMARK  Name = 
REMARK  13 active torsions:
REMARK  status: ('A' for Active; 'I' for Inactive)
REMARK    1  A    between atoms: C_1  and  C_2
REMARK    2  A    between atoms: C_2  and  C_3
REMARK    3  A    between atoms: C_2  and  C_4
REMARK    4  A    between atoms: C_2  and  O_5
REMARK    5  A    between atoms: O_5  and  C_6
REMARK    6  A    between atoms: N_8  and  C_9
REMARK    7  A    between atoms: C_14  and  S_15
REMARK    8  A    between atoms: S_15  and  C_16
REMARK    9  A    between atoms: C_16  and  C_17
REMARK   10  A    between atoms: C_20  and  C_21
REMARK   11  A    between atoms: C_21  and  C_22
REMARK   12  A    between atoms: C_21  and  C_23
REMARK   13  A    between atoms: C_21  and  C_24
REMARK                            x       y       z     vdW  Elec       q    Type
REMARK                         _______ _______ _______ _____ _____    ______ ____
ROOT
ATOM      1  C   UNL     1       3.398   4.745  18.680  0.00  0.00    +0.000 A 
ATOM      2  C   UNL     1       3.164   3.938  19.729  0.00  0.00    +0.000 A 
ATOM      3  C   UNL     1       2.408   4.454  20.866  0.00  0.00    +0.000 A 
ATOM      4  O   UNL     1       2.147   3.761  21.839  0.00  0.00    +0.000 OA
ATOM      5  N   UNL     1       2.018   5.745  20.742  0.00  0.00    +0.000 N 
ATOM      6  C   UNL     1       2.380   6.505  19.675  0.00  0.00    +0.000 A 
ATOM      7  N   UNL     1       3.065   6.083  18.662  0.00  0.00    +0.000 NA
ATOM      8  H   UNL     1       1.492   6.154  21.495  0.00  0.00    +0.000 HD
ENDROOT
BRANCH   1  11
ATOM      9  C   UNL     1       5.324   4.225  17.298  0.00  0.00    +0.000 C 
ATOM     10  O   UNL     1       6.156   4.615  18.115  0.00  0.00    +0.000 OA
ATOM     11  N   UNL     1       3.966   4.263  17.519  0.00  0.00    +0.000 N 
ATOM     12  H   UNL     1       3.392   3.684  16.923  0.00  0.00    +0.000 HD
BRANCH   9  13
ATOM     13  O   UNL     1       5.659   3.638  16.120  0.00  0.00    +0.000 OA
BRANCH  13  15
ATOM     14  C   UNL     1       5.477   3.951  13.689  0.00  0.00    +0.000 C 
ATOM     15  C   UNL     1       5.998   4.533  15.015  0.00  0.00    +0.000 C 
ATOM     16  C   UNL     1       7.505   4.851  14.959  0.00  0.00    +0.000 C 
ATOM     17  C   UNL     1       5.259   5.861  15.255  0.00  0.00    +0.000 C 
ENDBRANCH  13  15
ENDBRANCH   9  13
ENDBRANCH   1  11
BRANCH   6  18
ATOM     18  S   UNL     1       1.826   8.132  19.903  0.00  0.00    +0.000 S 
BRANCH  18  19
ATOM     19  C   UNL     1       0.984   8.027  21.500  0.00  0.00    +0.000 C 
BRANCH  19  20
ATOM     20  C   UNL     1       0.164   9.275  21.750  0.00  0.00    +0.000 A 
ATOM     21  C   UNL     1      -0.080  10.175  20.709  0.00  0.00    +0.000 A 
ATOM     22  C   UNL     1      -0.826  11.342  20.923  0.00  0.00    +0.000 A 
ATOM     23  C   UNL     1      -1.359  11.655  22.184  0.00  0.00    +0.000 A 
ATOM     24  C   UNL     1      -1.080  10.759  23.233  0.00  0.00    +0.000 A 
ATOM     25  C   UNL     1      -0.332   9.588  23.022  0.00  0.00    +0.000 A 
BRANCH  23  26
ATOM     26  C   UNL     1      -2.238  12.902  22.420  0.00  0.00    +0.000 C 
ATOM     27  C   UNL     1      -3.635  12.564  22.991  0.00  0.00    +0.000 C 
ATOM     28  C   UNL     1      -1.544  13.838  23.434  0.00  0.00    +0.000 C 
ATOM     29  C   UNL     1      -2.462  13.681  21.107  0.00  0.00    +0.000 C 
ENDBRANCH  23  26
ENDBRANCH  19  20
ENDBRANCH  18  19
ENDBRANCH   6  18
TORSDOF 7
ENDMDL
MODEL 9
REMARK VINA RESULT:      -7.8      0.888      1.658
REMARK  Name = 
REMARK  13 active torsions:
REMARK  status: ('A' for Active; 'I' for Inactive)
REMARK    1  A    between atoms: C_1  and  C_2
REMARK    2  A    between atoms: C_2  and  C_3
REMARK    3  A    between atoms: C_2  and  C_4
REMARK    4  A    between atoms: C_2  and  O_5
REMARK    5  A    between atoms: O_5  and  C_6
REMARK    6  A    between atoms: N_8  and  C_9
REMARK    7  A    between atoms: C_14  and  S_15
REMARK    8  A    between atoms: S_15  and  C_16
REMARK    9  A    between atoms: C_16  and  C_17
REMARK   10  A    between atoms: C_20  and  C_21
REMARK   11  A    between atoms: C_21  and  C_22
REMARK   12  A    between atoms: C_21  and  C_23
REMARK   13  A    between atoms: C_21  and  C_24
REMARK                            x       y       z     vdW  Elec       q    Type
REMARK                         _______ _______ _______ _____ _____    ______ ____
ROOT
ATOM      1  C   UNL     1       5.062   4.787  17.055  0.00  0.00    +0.000 A 
ATOM      2  C   UNL     1       5.941   4.258  16.187  0.00  0.00    +0.000 A 
ATOM      3  C   UNL     1       7.086   5.058  15.761  0.00  0.00    +0.000 A 
ATOM      4  O   UNL     1       7.930   4.623  14.990  0.00  0.00    +0.000 OA
ATOM      5  N   UNL     1       7.135   6.299  16.299  0.00  0.00    +0.000 N 
ATOM      6  C   UNL     1       6.147   6.773  17.102  0.00  0.00    +0.000 A 
ATOM      7  N   UNL     1       5.111   6.098  17.482  0.00  0.00    +0.000 NA
ATOM      8  H   UNL     1       7.904   6.895  16.042  0.00  0.00    +0.000 HD
ENDROOT
BRANCH   1  11
ATOM      9  C   UNL     1       4.177   3.361  18.809  0.00  0.00    +0.000 C 
ATOM     10  O   UNL     1       5.195   3.389  19.498  0.00  0.00    +0.000 OA
ATOM     11  N   UNL     1       4.055   4.024  17.609  0.00  0.00    +0.000 N 
ATOM     12  H   UNL     1       3.118   4.165  17.260  0.00  0.00    +0.000 HD
BRANCH   9  13
ATOM     13  O   UNL     1       3.034   2.738  19.195  0.00  0.00    +0.000 OA
BRANCH  13  15
ATOM     14  C   UNL     1       2.517   4.903  20.238  0.00  0.00    +0.000 C 
ATOM     15  C   UNL     1       2.259   3.385  20.252  0.00  0.00    +0.000 C 
ATOM     16  C   UNL     1       2.523   2.763  21.637  0.00  0.00    +0.000 C 
ATOM     17  C   UNL     1       0.771   3.169  19.929  0.00  0.00    +0.000 C 
ENDBRANCH  13  15
ENDBRANCH   9  13
ENDBRANCH   1  11
BRANCH   6  18
ATOM     18  S   UNL     1       6.463   8.431  17.500  0.00  0.00    +0.000 S 
BRANCH  18  19
ATOM     19  C   UNL     1       8.197   8.376  18.009  0.00  0.00    +0.000 C 
BRANCH  19  20
ATOM     20  C   UNL     1       8.686   9.760  18.380  0.00  0.00    +0.000 A 
ATOM     21  C   UNL     1       9.355   9.967  19.589  0.00  0.00    +0.000 A 
ATOM     22  C   UNL     1       9.804  11.242  19.958  0.00  0.00    +0.000 A 
ATOM     23  C   UNL     1       9.604  12.361  19.133  0.00  0.00    +0.000 A 
ATOM     24  C   UNL     1       8.899  12.149  17.933  0.00  0.00    +0.000 A 
ATOM     25  C   UNL     1       8.448  10.871  17.560  0.00  0.00    +0.000 A 
BRANCH  23  26
ATOM     26  C   UNL     1      10.150  13.759  19.494  0.00  0.00    +0.000 C 
ATOM     27  C   UNL     1      11.486  14.092  18.790  0.00  0.00    +0.000 C 
ATOM     28  C   UNL     1       9.129  14.838  19.069  0.00  0.00    +0.000 C 
ATOM     29  C   UNL     1      10.394  13.885  21.012  0.00  0.00    +0.000 C 
ENDBRANCH  23  26
ENDBRANCH  19  20
ENDBRANCH  18  19
ENDBRANCH   6  18
TORSDOF 7
ENDMDL
