MODEL 1
REMARK VINA RESULT:      -8.3      0.000      0.000
REMARK  Name = 
REMARK  6 active torsions:
REMARK  status: ('A' for Active; 'I' for Inactive)
REMARK    1  A    between atoms: C_1  and  C_2
REMARK    2  A    between atoms: N_4  and  C_5
REMARK    3  A    between atoms: C_13  and  C_14
REMARK    4  A    between atoms: N_16  and  C_17
REMARK    5  A    between atoms: N_23  and  C_24
REMARK    6  A    between atoms: N_23  and  C_25
REMARK                            x       y       z     vdW  Elec       q    Type
REMARK                         _______ _______ _______ _____ _____    ______ ____
ROOT
ATOM      1  C   UNL     1       2.166   3.649  21.333  0.00  0.00    +0.000 C 
ATOM      2  C   UNL     1       2.980   4.278  20.264  0.00  0.00    +0.000 A 
ATOM      3  N   UNL     1       4.014   3.593  19.706  0.00  0.00    +0.000 NA
ATOM      4  N   UNL     1       4.507   4.437  18.756  0.00  0.00    +0.000 N 
ATOM      5  C   UNL     1       3.839   5.612  18.758  0.00  0.00    +0.000 A 
ATOM      6  S   UNL     1       3.878   6.995  17.874  0.00  0.00    +0.000 S 
ATOM      7  C   UNL     1       2.449   7.576  18.716  0.00  0.00    +0.000 A 
ATOM      8  C   UNL     1       2.007   6.644  19.670  0.00  0.00    +0.000 A 
ATOM      9  C   UNL     1       2.854   5.526  19.651  0.00  0.00    +0.000 A 
ENDROOT
BRANCH   4  10
ATOM     10  C   UNL     1       5.412   4.017  17.692  0.00  0.00    +0.000 C 
ATOM     11  C   UNL     1       4.926   4.284  16.264  0.00  0.00    +0.000 C 
ATOM     12  C   UNL     1       5.332   5.639  15.698  0.00  0.00    +0.000 C 
ATOM     13  C   UNL     1       6.804   5.950  15.945  0.00  0.00    +0.000 C 
ATOM     14  C   UNL     1       7.141   5.875  17.427  0.00  0.00    +0.000 C 
ATOM     15  C   UNL     1       6.847   4.486  17.975  0.00  0.00    +0.000 C 
ENDBRANCH   4  10
BRANCH   7  16
ATOM     16  C   UNL     1       1.898   8.874  18.304  0.00  0.00    +0.000 C 
ATOM     17  O   UNL     1       2.175   9.436  17.254  0.00  0.00    +0.000 OA
ATOM     18  N   UNL     1       1.043   9.420  19.247  0.00  0.00    +0.000 N 
ATOM     19  H   UNL     1       0.984   8.897  20.109  0.00  0.00    +0.000 HD
BRANCH  18  20
ATOM     20  C   UNL     1       0.568  10.794  19.273  0.00  0.00    +0.000 C 
ATOM     21  C   UNL     1       0.663  11.365  20.696  0.00  0.00    +0.000 C 
ATOM     22  C   UNL     1      -0.768  11.502  21.189  0.00  0.00    +0.000 C 
ATOM     23  N   UNL     1      -1.577  11.622  20.000  0.00  0.00    +0.000 N 
ATOM     24  C   UNL     1      -2.839  12.116  19.787  0.00  0.00    +0.000 C 
ATOM     25  O   UNL     1      -3.297  12.073  18.638  0.00  0.00    +0.000 OA
ATOM     26  N   UNL     1      -3.589  12.674  20.803  0.00  0.00    +0.000 N 
ATOM     27  C   UNL     1      -3.299  12.771  22.223  0.00  0.00    +0.000 C 
ATOM     28  C   UNL     1      -4.819  13.360  20.415  0.00  0.00    +0.000 C 
ATOM     29  C   UNL     1      -0.902  10.965  18.878  0.00  0.00    +0.000 C 
ENDBRANCH  18  20
ENDBRANCH   7  16
TORSDOF 3
ENDMDL
MODEL 2
REMARK VINA RESULT:      -8.3      1.490      1.990
REMARK  Name = 
REMARK  6 active torsions:
REMARK  status: ('A' for Active; 'I' for Inactive)
REMARK    1  A    between atoms: C_1  and  C_2
REMARK    2  A    between atoms: N_4  and  C_5
REMARK    3  A    between atoms: C_13  and  C_14
REMARK    4  A    between atoms: N_16  and  C_17
REMARK    5  A    between atoms: N_23  and  C_24
REMARK    6  A    between atoms: N_23  and  C_25
REMARK                            x       y       z     vdW  Elec       q    Type
REMARK                         _______ _______ _______ _____ _____    ______ ____
ROOT
ATOM      1  C   UNL     1       2.191   4.584  21.202  0.00  0.00    +0.000 C 
ATOM      2  C   UNL     1       2.626   5.441  20.073  0.00  0.00    +0.000 A 
ATOM      3  N   UNL     1       3.517   4.965  19.162  0.00  0.00    +0.000 NA
ATOM      4  N   UNL     1       3.662   5.980  18.265  0.00  0.00    +0.000 N 
ATOM      5  C   UNL     1       2.930   7.057  18.629  0.00  0.00    +0.000 A 
ATOM      6  S   UNL     1       2.615   8.540  17.999  0.00  0.00    +0.000 S 
ATOM      7  C   UNL     1       1.433   8.830  19.266  0.00  0.00    +0.000 A 
ATOM      8  C   UNL     1       1.345   7.734  20.141  0.00  0.00    +0.000 A 
ATOM      9  C   UNL     1       2.239   6.737  19.723  0.00  0.00    +0.000 A 
ENDROOT
BRANCH   4  10
ATOM     10  C   UNL     1       4.268   5.817  16.949  0.00  0.00    +0.000 C 
ATOM     11  C   UNL     1       5.362   6.828  16.592  0.00  0.00    +0.000 C 
ATOM     12  C   UNL     1       6.772   6.405  16.989  0.00  0.00    +0.000 C 
ATOM     13  C   UNL     1       7.074   4.964  16.595  0.00  0.00    +0.000 C 
ATOM     14  C   UNL     1       6.050   4.005  17.184  0.00  0.00    +0.000 C 
ATOM     15  C   UNL     1       4.649   4.350  16.699  0.00  0.00    +0.000 C 
ENDBRANCH   4  10
BRANCH   7  16
ATOM     16  C   UNL     1       0.689  10.096  19.225  0.00  0.00    +0.000 C 
ATOM     17  O   UNL     1       0.599  10.808  18.235  0.00  0.00    +0.000 OA
ATOM     18  N   UNL     1       0.116  10.424  20.444  0.00  0.00    +0.000 N 
ATOM     19  H   UNL     1       0.356   9.798  21.199  0.00  0.00    +0.000 HD
BRANCH  18  20
ATOM     20  C   UNL     1      -0.430  11.721  20.807  0.00  0.00    +0.000 C 
ATOM     21  C   UNL     1      -0.321  11.941  22.323  0.00  0.00    +0.000 C 
ATOM     22  C   UNL     1      -1.741  11.871  22.860  0.00  0.00    +0.000 C 
ATOM     23  N   UNL     1      -2.591  12.224  21.749  0.00  0.00    +0.000 N 
ATOM     24  C   UNL     1      -3.884  12.680  21.683  0.00  0.00    +0.000 C 
ATOM     25  O   UNL     1      -4.375  12.886  20.566  0.00  0.00    +0.000 OA
ATOM     26  N   UNL     1      -4.630  12.934  22.816  0.00  0.00    +0.000 N 
ATOM     27  C   UNL     1      -4.302  12.706  24.213  0.00  0.00    +0.000 C 
ATOM     28  C   UNL     1      -5.907  13.619  22.626  0.00  0.00    +0.000 C 
ATOM     29  C   UNL     1      -1.918  11.895  20.490  0.00  0.00    +0.000 C 
ENDBRANCH  18  20
ENDBRANCH   7  16
TORSDOF 3
ENDMDL
MODEL 3
REMARK VINA RESULT:      -8.2      2.652      3.373
REMARK  Name = 
REMARK  6 active torsions:
REMARK  status: ('A' for Active; 'I' for Inactive)
REMARK    1  A    between atoms: C_1  and  C_2
REMARK    2  A    between atoms: N_4  and  C_5
REMARK    3  A    between atoms: C_13  and  C_14
REMARK    4  A    between atoms: N_16  and  C_17
REMARK    5  A    between atoms: N_23  and  C_24
REMARK    6  A    between atoms: N_23  and  C_25
REMARK                            x       y       z     vdW  Elec       q    Type
REMARK                         _______ _______ _______ _____ _____    ______ ____
ROOT
ATOM      1  C   UNL     1       2.405   2.480  19.751  0.00  0.00    +0.000 C 
ATOM      2  C   UNL     1       2.853   3.771  19.175  0.00  0.00    +0.000 A 
ATOM      3  N   UNL     1       3.752   3.783  18.154  0.00  0.00    +0.000 NA
ATOM      4  N   UNL     1       3.908   5.104  17.855  0.00  0.00    +0.000 N 
ATOM      5  C   UNL     1       3.175   5.879  18.685  0.00  0.00    +0.000 A 
ATOM      6  S   UNL     1       2.870   7.485  18.842  0.00  0.00    +0.000 S 
ATOM      7  C   UNL     1       1.676   7.139  20.083  0.00  0.00    +0.000 A 
ATOM      8  C   UNL     1       1.577   5.759  20.324  0.00  0.00    +0.000 A 
ATOM      9  C   UNL     1       2.472   5.078  19.486  0.00  0.00    +0.000 A 
ENDROOT
BRANCH   4  10
ATOM     10  C   UNL     1       4.527   5.587  16.626  0.00  0.00    +0.000 C 
ATOM     11  C   UNL     1       5.746   6.496  16.810  0.00  0.00    +0.000 C 
ATOM     12  C   UNL     1       7.081   5.762  16.868  0.00  0.00    +0.000 C 
ATOM     13  C   UNL     1       7.215   4.721  15.762  0.00  0.00    +0.000 C 
ATOM     14  C   UNL     1       6.064   3.726  15.800  0.00  0.00    +0.000 C 
ATOM     15  C   UNL     1       4.731   4.440  15.626  0.00  0.00    +0.000 C 
ENDBRANCH   4  10
BRANCH   7  16
ATOM     16  C   UNL     1       0.936   8.275  20.650  0.00  0.00    +0.000 C 
ATOM     17  O   UNL     1       0.161   8.189  21.591  0.00  0.00    +0.000 OA
ATOM     18  N   UNL     1       1.184   9.465  19.985  0.00  0.00    +0.000 N 
ATOM     19  H   UNL     1       1.766   9.372  19.165  0.00  0.00    +0.000 HD
BRANCH  18  20
ATOM     20  C   UNL     1       0.410  10.689  20.111  0.00  0.00    +0.000 C 
ATOM     21  C   UNL     1       0.259  11.369  18.742  0.00  0.00    +0.000 C 
ATOM     22  C   UNL     1       1.115  12.623  18.800  0.00  0.00    +0.000 C 
ATOM     23  N   UNL     1       1.208  12.962  20.200  0.00  0.00    +0.000 N 
ATOM     24  C   UNL     1       1.518  14.131  20.849  0.00  0.00    +0.000 C 
ATOM     25  O   UNL     1       1.542  14.124  22.086  0.00  0.00    +0.000 OA
ATOM     26  N   UNL     1       1.775  15.303  20.166  0.00  0.00    +0.000 N 
ATOM     27  C   UNL     1       1.875  15.539  18.736  0.00  0.00    +0.000 C 
ATOM     28  C   UNL     1       1.875  16.523  20.963  0.00  0.00    +0.000 C 
ATOM     29  C   UNL     1       1.046  11.753  21.011  0.00  0.00    +0.000 C 
ENDBRANCH  18  20
ENDBRANCH   7  16
TORSDOF 3
ENDMDL
MODEL 4
REMARK VINA RESULT:      -8.2      2.606      4.224
REMARK  Name = 
REMARK  6 active torsions:
REMARK  status: ('A' for Active; 'I' for Inactive)
REMARK    1  A    between atoms: C_1  and  C_2
REMARK    2  A    between atoms: N_4  and  C_5
REMARK    3  A    between atoms: C_13  and  C_14
REMARK    4  A    between atoms: N_16  and  C_17
REMARK    5  A    between atoms: N_23  and  C_24
REMARK    6  A    between atoms: N_23  and  C_25
REMARK                            x       y       z     vdW  Elec       q    Type
REMARK                         _______ _______ _______ _____ _____    ______ ____
ROOT
ATOM      1  C   UNL     1       5.284   6.497  15.783  0.00  0.00    +0.000 C 
ATOM      2  C   UNL     1       4.424   5.817  16.782  0.00  0.00    +0.000 A 
ATOM      3  N   UNL     1       4.433   4.459  16.874  0.00  0.00    +0.000 NA
ATOM      4  N   UNL     1       3.573   4.183  17.895  0.00  0.00    +0.000 N 
ATOM      5  C   UNL     1       3.019   5.315  18.382  0.00  0.00    +0.000 A 
ATOM      6  S   UNL     1       1.984   5.696  19.599  0.00  0.00    +0.000 S 
ATOM      7  C   UNL     1       2.258   7.405  19.300  0.00  0.00    +0.000 A 
ATOM      8  C   UNL     1       3.157   7.599  18.237  0.00  0.00    +0.000 A 
ATOM      9  C   UNL     1       3.563   6.350  17.743  0.00  0.00    +0.000 A 
ENDROOT
BRANCH   4  10
ATOM     10  C   UNL     1       3.501   2.889  18.563  0.00  0.00    +0.000 C 
ATOM     11  C   UNL     1       3.832   2.896  20.059  0.00  0.00    +0.000 C 
ATOM     12  C   UNL     1       2.634   3.124  20.973  0.00  0.00    +0.000 C 
ATOM     13  C   UNL     1       1.438   2.263  20.582  0.00  0.00    +0.000 C 
ATOM     14  C   UNL     1       1.045   2.493  19.129  0.00  0.00    +0.000 C 
ATOM     15  C   UNL     1       2.202   2.155  18.200  0.00  0.00    +0.000 C 
ENDBRANCH   4  10
BRANCH   7  16
ATOM     16  C   UNL     1       1.583   8.367  20.182  0.00  0.00    +0.000 C 
ATOM     17  O   UNL     1       1.382   8.181  21.374  0.00  0.00    +0.000 OA
ATOM     18  N   UNL     1       1.165   9.508  19.517  0.00  0.00    +0.000 N 
ATOM     19  H   UNL     1       1.306   9.483  18.518  0.00  0.00    +0.000 HD
BRANCH  18  20
ATOM     20  C   UNL     1       0.235  10.501  20.030  0.00  0.00    +0.000 C 
ATOM     21  C   UNL     1      -0.485  11.207  18.871  0.00  0.00    +0.000 C 
ATOM     22  C   UNL     1       0.064  12.623  18.837  0.00  0.00    +0.000 C 
ATOM     23  N   UNL     1       0.528  12.889  20.178  0.00  0.00    +0.000 N 
ATOM     24  C   UNL     1       0.779  14.056  20.854  0.00  0.00    +0.000 C 
ATOM     25  O   UNL     1       1.199  13.980  22.016  0.00  0.00    +0.000 OA
ATOM     26  N   UNL     1       0.554  15.295  20.288  0.00  0.00    +0.000 N 
ATOM     27  C   UNL     1       0.138  15.635  18.938  0.00  0.00    +0.000 C 
ATOM     28  C   UNL     1       0.648  16.453  21.174  0.00  0.00    +0.000 C 
ATOM     29  C   UNL     1       0.890  11.629  20.832  0.00  0.00    +0.000 C 
ENDBRANCH  18  20
ENDBRANCH   7  16
TORSDOF 3
ENDMDL
MODEL 5
REMARK VINA RESULT:      -8.2      1.443      3.390
REMARK  Name = 
REMARK  6 active torsions:
REMARK  status: ('A' for Active; 'I' for Inactive)
REMARK    1  A    between atoms: C_1  and  C_2
REMARK    2  A    between atoms: N_4  and  C_5
REMARK    3  A    between atoms: C_13  and  C_14
REMARK    4  A    between atoms: N_16  and  C_17
REMARK    5  A    between atoms: N_23  and  C_24
REMARK    6  A    between atoms: N_23  and  C_25
REMARK                            x       y       z     vdW  Elec       q    Type
REMARK                         _______ _______ _______ _____ _____    ______ ____
ROOT
ATOM      1  C   UNL     1       5.237   5.564  15.927  0.00  0.00    +0.000 C 
ATOM      2  C   UNL     1       4.346   5.754  17.097  0.00  0.00    +0.000 A 
ATOM      3  N   UNL     1       4.175   4.744  17.993  0.00  0.00    +0.000 NA
ATOM      4  N   UNL     1       3.340   5.264  18.936  0.00  0.00    +0.000 N 
ATOM      5  C   UNL     1       2.970   6.523  18.615  0.00  0.00    +0.000 A 
ATOM      6  S   UNL     1       2.060   7.701  19.308  0.00  0.00    +0.000 S 
ATOM      7  C   UNL     1       2.547   8.823  18.046  0.00  0.00    +0.000 A 
ATOM      8  C   UNL     1       3.408   8.207  17.122  0.00  0.00    +0.000 A 
ATOM      9  C   UNL     1       3.615   6.873  17.502  0.00  0.00    +0.000 A 
ENDROOT
BRANCH   4  10
ATOM     10  C   UNL     1       3.129   4.663  20.248  0.00  0.00    +0.000 C 
ATOM     11  C   UNL     1       1.732   4.853  20.847  0.00  0.00    +0.000 C 
ATOM     12  C   UNL     1       0.735   3.756  20.491  0.00  0.00    +0.000 C 
ATOM     13  C   UNL     1       1.325   2.361  20.663  0.00  0.00    +0.000 C 
ATOM     14  C   UNL     1       2.601   2.199  19.849  0.00  0.00    +0.000 C 
ATOM     15  C   UNL     1       3.646   3.218  20.280  0.00  0.00    +0.000 C 
ENDBRANCH   4  10
BRANCH   7  16
ATOM     16  C   UNL     1       2.054  10.204  18.137  0.00  0.00    +0.000 C 
ATOM     17  O   UNL     1       2.558  11.153  17.553  0.00  0.00    +0.000 OA
ATOM     18  N   UNL     1       0.966  10.334  18.985  0.00  0.00    +0.000 N 
ATOM     19  H   UNL     1       0.718   9.488  19.478  0.00  0.00    +0.000 HD
BRANCH  18  20
ATOM     20  C   UNL     1       0.434  11.582  19.505  0.00  0.00    +0.000 C 
ATOM     21  C   UNL     1       0.720  11.699  21.010  0.00  0.00    +0.000 C 
ATOM     22  C   UNL     1      -0.623  11.542  21.705  0.00  0.00    +0.000 C 
ATOM     23  N   UNL     1      -1.610  11.943  20.732  0.00  0.00    +0.000 N 
ATOM     24  C   UNL     1      -2.912  12.357  20.853  0.00  0.00    +0.000 C 
ATOM     25  O   UNL     1      -3.540  12.623  19.821  0.00  0.00    +0.000 OA
ATOM     26  N   UNL     1      -3.523  12.505  22.083  0.00  0.00    +0.000 N 
ATOM     27  C   UNL     1      -3.022  12.191  23.410  0.00  0.00    +0.000 C 
ATOM     28  C   UNL     1      -4.830  13.157  22.096  0.00  0.00    +0.000 C 
ATOM     29  C   UNL     1      -1.086  11.726  19.381  0.00  0.00    +0.000 C 
ENDBRANCH  18  20
ENDBRANCH   7  16
TORSDOF 3
ENDMDL
MODEL 6
REMARK VINA RESULT:      -8.2      2.390      2.875
REMARK  Name = 
REMARK  6 active torsions:
REMARK  status: ('A' for Active; 'I' for Inactive)
REMARK    1  A    between atoms: C_1  and  C_2
REMARK    2  A    between atoms: N_4  and  C_5
REMARK    3  A    between atoms: C_13  and  C_14
REMARK    4  A    between atoms: N_16  and  C_17
REMARK    5  A    between atoms: N_23  and  C_24
REMARK    6  A    between atoms: N_23  and  C_25
REMARK                            x       y       z     vdW  Elec       q    Type
REMARK                         _______ _______ _______ _____ _____    ______ ____
ROOT
ATOM      1  C   UNL     1       2.825   2.876  20.788  0.00  0.00    +0.000 C 
ATOM      2  C   UNL     1       3.047   4.099  19.979  0.00  0.00    +0.000 A 
ATOM      3  N   UNL     1       3.894   4.065  18.915  0.00  0.00    +0.000 NA
ATOM      4  N   UNL     1       3.832   5.322  18.392  0.00  0.00    +0.000 N 
ATOM      5  C   UNL     1       3.020   6.114  19.127  0.00  0.00    +0.000 A 
ATOM      6  S   UNL     1       2.477   7.661  19.035  0.00  0.00    +0.000 S 
ATOM      7  C   UNL     1       1.398   7.365  20.389  0.00  0.00    +0.000 A 
ATOM      8  C   UNL     1       1.523   6.048  20.861  0.00  0.00    +0.000 A 
ATOM      9  C   UNL     1       2.480   5.370  20.092  0.00  0.00    +0.000 A 
ENDROOT
BRANCH   4  10
ATOM     10  C   UNL     1       4.323   5.670  17.063  0.00  0.00    +0.000 C 
ATOM     11  C   UNL     1       5.369   6.788  17.014  0.00  0.00    +0.000 C 
ATOM     12  C   UNL     1       6.813   6.311  17.120  0.00  0.00    +0.000 C 
ATOM     13  C   UNL     1       7.096   5.124  16.207  0.00  0.00    +0.000 C 
ATOM     14  C   UNL     1       6.139   3.974  16.486  0.00  0.00    +0.000 C 
ATOM     15  C   UNL     1       4.697   4.411  16.269  0.00  0.00    +0.000 C 
ENDBRANCH   4  10
BRANCH   7  16
ATOM     16  C   UNL     1       0.513   8.462  20.805  0.00  0.00    +0.000 C 
ATOM     17  O   UNL     1      -0.373   8.350  21.641  0.00  0.00    +0.000 OA
ATOM     18  N   UNL     1       0.764   9.644  20.128  0.00  0.00    +0.000 N 
ATOM     19  H   UNL     1       1.455   9.566  19.395  0.00  0.00    +0.000 HD
BRANCH  18  20
ATOM     20  C   UNL     1      -0.102  10.811  20.100  0.00  0.00    +0.000 C 
ATOM     21  C   UNL     1       0.545  11.936  19.278  0.00  0.00    +0.000 C 
ATOM     22  C   UNL     1       0.943  13.010  20.277  0.00  0.00    +0.000 C 
ATOM     23  N   UNL     1       0.064  12.830  21.407  0.00  0.00    +0.000 N 
ATOM     24  C   UNL     1      -0.311  13.666  22.428  0.00  0.00    +0.000 C 
ATOM     25  O   UNL     1      -1.081  13.227  23.291  0.00  0.00    +0.000 OA
ATOM     26  N   UNL     1       0.123  14.975  22.501  0.00  0.00    +0.000 N 
ATOM     27  C   UNL     1       1.070  15.685  21.659  0.00  0.00    +0.000 C 
ATOM     28  C   UNL     1      -0.513  15.827  23.503  0.00  0.00    +0.000 C 
ATOM     29  C   UNL     1      -0.374  11.434  21.473  0.00  0.00    +0.000 C 
ENDBRANCH  18  20
ENDBRANCH   7  16
TORSDOF 3
ENDMDL
MODEL 7
REMARK VINA RESULT:      -8.2      2.835     10.403
REMARK  Name = 
REMARK  6 active torsions:
REMARK  status: ('A' for Active; 'I' for Inactive)
REMARK    1  A    between atoms: C_1  and  C_2
REMARK    2  A    between atoms: N_4  and  C_5
REMARK    3  A    between atoms: C_13  and  C_14
REMARK    4  A    between atoms: N_16  and  C_17
REMARK    5  A    between atoms: N_23  and  C_24
REMARK    6  A    between atoms: N_23  and  C_25
REMARK                            x       y       z     vdW  Elec       q    Type
REMARK                         _______ _______ _______ _____ _____    ______ ____
ROOT
ATOM      1  C   UNL     1      -4.084  10.762  15.526  0.00  0.00    +0.000 C 
ATOM      2  C   UNL     1      -3.900  11.262  16.910  0.00  0.00    +0.000 A 
ATOM      3  N   UNL     1      -4.927  11.884  17.550  0.00  0.00    +0.000 NA
ATOM      4  N   UNL     1      -4.431  12.174  18.786  0.00  0.00    +0.000 N 
ATOM      5  C   UNL     1      -3.139  11.792  18.892  0.00  0.00    +0.000 A 
ATOM      6  S   UNL     1      -1.999  11.793  20.074  0.00  0.00    +0.000 S 
ATOM      7  C   UNL     1      -0.914  10.887  19.031  0.00  0.00    +0.000 A 
ATOM      8  C   UNL     1      -1.505  10.628  17.783  0.00  0.00    +0.000 A 
ATOM      9  C   UNL     1      -2.794  11.180  17.759  0.00  0.00    +0.000 A 
ENDROOT
BRANCH   4  10
ATOM     10  C   UNL     1      -5.262  12.554  19.923  0.00  0.00    +0.000 C 
ATOM     11  C   UNL     1      -5.211  14.033  20.317  0.00  0.00    +0.000 C 
ATOM     12  C   UNL     1      -6.243  14.912  19.621  0.00  0.00    +0.000 C 
ATOM     13  C   UNL     1      -7.635  14.291  19.637  0.00  0.00    +0.000 C 
ATOM     14  C   UNL     1      -7.623  12.900  19.019  0.00  0.00    +0.000 C 
ATOM     15  C   UNL     1      -6.680  11.981  19.782  0.00  0.00    +0.000 C 
ENDBRANCH   4  10
BRANCH   7  16
ATOM     16  C   UNL     1       0.390  10.493  19.584  0.00  0.00    +0.000 C 
ATOM     17  O   UNL     1       1.227  11.282  19.997  0.00  0.00    +0.000 OA
ATOM     18  N   UNL     1       0.592   9.122  19.564  0.00  0.00    +0.000 N 
ATOM     19  H   UNL     1      -0.139   8.600  19.103  0.00  0.00    +0.000 HD
BRANCH  18  20
ATOM     20  C   UNL     1       1.861   8.445  19.768  0.00  0.00    +0.000 C 
ATOM     21  C   UNL     1       2.525   8.135  18.418  0.00  0.00    +0.000 C 
ATOM     22  C   UNL     1       2.441   6.628  18.245  0.00  0.00    +0.000 C 
ATOM     23  N   UNL     1       2.349   6.091  19.581  0.00  0.00    +0.000 N 
ATOM     24  C   UNL     1       2.603   4.845  20.096  0.00  0.00    +0.000 C 
ATOM     25  O   UNL     1       2.413   4.662  21.306  0.00  0.00    +0.000 OA
ATOM     26  N   UNL     1       3.083   3.813  19.316  0.00  0.00    +0.000 N 
ATOM     27  C   UNL     1       3.314   3.766  17.882  0.00  0.00    +0.000 C 
ATOM     28  C   UNL     1       3.522   2.606  20.013  0.00  0.00    +0.000 C 
ATOM     29  C   UNL     1       1.752   7.089  20.472  0.00  0.00    +0.000 C 
ENDBRANCH  18  20
ENDBRANCH   7  16
TORSDOF 3
ENDMDL
MODEL 8
REMARK VINA RESULT:      -8.2      1.810      2.382
REMARK  Name = 
REMARK  6 active torsions:
REMARK  status: ('A' for Active; 'I' for Inactive)
REMARK    1  A    between atoms: C_1  and  C_2
REMARK    2  A    between atoms: N_4  and  C_5
REMARK    3  A    between atoms: C_13  and  C_14
REMARK    4  A    between atoms: N_16  and  C_17
REMARK    5  A    between atoms: N_23  and  C_24
REMARK    6  A    between atoms: N_23  and  C_25
REMARK                            x       y       z     vdW  Elec       q    Type
REMARK                         _______ _______ _______ _____ _____    ______ ____
ROOT
ATOM      1  C   UNL     1       1.694   5.184  20.962  0.00  0.00    +0.000 C 
ATOM      2  C   UNL     1       2.343   5.916  19.847  0.00  0.00    +0.000 A 
ATOM      3  N   UNL     1       3.258   5.286  19.062  0.00  0.00    +0.000 NA
ATOM      4  N   UNL     1       3.616   6.222  18.138  0.00  0.00    +0.000 N 
ATOM      5  C   UNL     1       2.987   7.395  18.369  0.00  0.00    +0.000 A 
ATOM      6  S   UNL     1       2.921   8.865  17.640  0.00  0.00    +0.000 S 
ATOM      7  C   UNL     1       1.659   9.365  18.755  0.00  0.00    +0.000 A 
ATOM      8  C   UNL     1       1.350   8.341  19.666  0.00  0.00    +0.000 A 
ATOM      9  C   UNL     1       2.154   7.224  19.396  0.00  0.00    +0.000 A 
ENDROOT
BRANCH   4  10
ATOM     10  C   UNL     1       4.329   5.910  16.905  0.00  0.00    +0.000 C 
ATOM     11  C   UNL     1       5.571   6.763  16.624  0.00  0.00    +0.000 C 
ATOM     12  C   UNL     1       6.869   6.201  17.191  0.00  0.00    +0.000 C 
ATOM     13  C   UNL     1       7.030   4.713  16.899  0.00  0.00    +0.000 C 
ATOM     14  C   UNL     1       5.840   3.918  17.417  0.00  0.00    +0.000 C 
ATOM     15  C   UNL     1       4.550   4.397  16.766  0.00  0.00    +0.000 C 
ENDBRANCH   4  10
BRANCH   7  16
ATOM     16  C   UNL     1       1.083  10.705  18.574  0.00  0.00    +0.000 C 
ATOM     17  O   UNL     1       1.668  11.745  18.839  0.00  0.00    +0.000 OA
ATOM     18  N   UNL     1      -0.216  10.673  18.094  0.00  0.00    +0.000 N 
ATOM     19  H   UNL     1      -0.609   9.745  18.016  0.00  0.00    +0.000 HD
BRANCH  18  20
ATOM     20  C   UNL     1      -1.147  11.789  18.079  0.00  0.00    +0.000 C 
ATOM     21  C   UNL     1      -1.504  12.207  19.513  0.00  0.00    +0.000 C 
ATOM     22  C   UNL     1      -2.951  11.792  19.723  0.00  0.00    +0.000 C 
ATOM     23  N   UNL     1      -3.535  11.751  18.404  0.00  0.00    +0.000 N 
ATOM     24  C   UNL     1      -4.835  11.801  17.968  0.00  0.00    +0.000 C 
ATOM     25  O   UNL     1      -5.047  11.723  16.751  0.00  0.00    +0.000 OA
ATOM     26  N   UNL     1      -5.895  11.959  18.838  0.00  0.00    +0.000 N 
ATOM     27  C   UNL     1      -5.903  12.001  20.291  0.00  0.00    +0.000 C 
ATOM     28  C   UNL     1      -7.205  12.217  18.244  0.00  0.00    +0.000 C 
ATOM     29  C   UNL     1      -2.492  11.486  17.411  0.00  0.00    +0.000 C 
ENDBRANCH  18  20
ENDBRANCH   7  16
TORSDOF 3
ENDMDL
MODEL 9
REMARK VINA RESULT:      -8.2      3.028     10.151
REMARK  Name = 
REMARK  6 active torsions:
REMARK  status: ('A' for Active; 'I' for Inactive)
REMARK    1  A    between atoms: C_1  and  C_2
REMARK    2  A    between atoms: N_4  and  C_5
REMARK    3  A    between atoms: C_13  and  C_14
REMARK    4  A    between atoms: N_16  and  C_17
REMARK    5  A    between atoms: N_23  and  C_24
REMARK    6  A    between atoms: N_23  and  C_25
REMARK                            x       y       z     vdW  Elec       q    Type
REMARK                         _______ _______ _______ _____ _____    ______ ____
ROOT
ATOM      1  C   UNL     1      -3.482  10.033  14.730  0.00  0.00    +0.000 C 
ATOM      2  C   UNL     1      -3.380  10.728  16.036  0.00  0.00    +0.000 A 
ATOM      3  N   UNL     1      -4.368  11.574  16.434  0.00  0.00    +0.000 NA
ATOM      4  N   UNL     1      -3.975  11.999  17.668  0.00  0.00    +0.000 N 
ATOM      5  C   UNL     1      -2.773  11.479  18.000  0.00  0.00    +0.000 A 
ATOM      6  S   UNL     1      -1.782  11.531  19.308  0.00  0.00    +0.000 S 
ATOM      7  C   UNL     1      -0.733  10.333  18.565  0.00  0.00    +0.000 A 
ATOM      8  C   UNL     1      -1.215   9.948  17.303  0.00  0.00    +0.000 A 
ATOM      9  C   UNL     1      -2.399  10.647  17.027  0.00  0.00    +0.000 A 
ENDROOT
BRANCH   4  10
ATOM     10  C   UNL     1      -4.862  12.666  18.614  0.00  0.00    +0.000 C 
ATOM     11  C   UNL     1      -6.060  13.396  18.000  0.00  0.00    +0.000 C 
ATOM     12  C   UNL     1      -7.314  12.542  17.851  0.00  0.00    +0.000 C 
ATOM     13  C   UNL     1      -7.624  11.746  19.113  0.00  0.00    +0.000 C 
ATOM     14  C   UNL     1      -6.441  10.880  19.522  0.00  0.00    +0.000 C 
ATOM     15  C   UNL     1      -5.212  11.737  19.786  0.00  0.00    +0.000 C 
ENDBRANCH   4  10
BRANCH   7  16
ATOM     16  C   UNL     1       0.429   9.874  19.338  0.00  0.00    +0.000 C 
ATOM     17  O   UNL     1       0.932  10.501  20.259  0.00  0.00    +0.000 OA
ATOM     18  N   UNL     1       0.923   8.657  18.897  0.00  0.00    +0.000 N 
ATOM     19  H   UNL     1       0.474   8.301  18.065  0.00  0.00    +0.000 HD
BRANCH  18  20
ATOM     20  C   UNL     1       2.209   8.080  19.253  0.00  0.00    +0.000 C 
ATOM     21  C   UNL     1       3.013   7.746  17.988  0.00  0.00    +0.000 C 
ATOM     22  C   UNL     1       3.042   6.230  17.896  0.00  0.00    +0.000 C 
ATOM     23  N   UNL     1       2.860   5.758  19.248  0.00  0.00    +0.000 N 
ATOM     24  C   UNL     1       3.143   4.561  19.855  0.00  0.00    +0.000 C 
ATOM     25  O   UNL     1       2.853   4.429  21.051  0.00  0.00    +0.000 OA
ATOM     26  N   UNL     1       3.759   3.525  19.182  0.00  0.00    +0.000 N 
ATOM     27  C   UNL     1       4.124   3.419  17.780  0.00  0.00    +0.000 C 
ATOM     28  C   UNL     1       4.206   2.389  19.984  0.00  0.00    +0.000 C 
ATOM     29  C   UNL     1       2.120   6.758  20.022  0.00  0.00    +0.000 C 
ENDBRANCH  18  20
ENDBRANCH   7  16
TORSDOF 3
ENDMDL
