MODEL 1
REMARK VINA RESULT:      -7.9      0.000      0.000
REMARK  Name = 
REMARK  7 active torsions:
REMARK  status: ('A' for Active; 'I' for Inactive)
REMARK    1  A    between atoms: C_1  and  O_2
REMARK    2  A    between atoms: O_2  and  C_3
REMARK    3  A    between atoms: C_6  and  C_7
REMARK    4  A    between atoms: C_8  and  C_9
REMARK    5  A    between atoms: C_8  and  C_12
REMARK    6  A    between atoms: C_9  and  O_11
REMARK    7  A    between atoms: C_19  and  O_20
REMARK                            x       y       z     vdW  Elec       q    Type
REMARK                         _______ _______ _______ _____ _____    ______ ____
ROOT
ATOM      1  C   UNL     1       5.032   4.193  15.669  0.00  0.00    +0.000 C 
ATOM      2  C   UNL     1       6.268   4.722  15.543  0.00  0.00    +0.000 C 
ENDROOT
BRANCH   1   6
ATOM      3  C   UNL     1       2.302   3.888  18.955  0.00  0.00    +0.000 A 
ATOM      4  C   UNL     1       2.753   5.136  18.505  0.00  0.00    +0.000 A 
ATOM      5  C   UNL     1       3.688   5.242  17.471  0.00  0.00    +0.000 A 
ATOM      6  C   UNL     1       4.200   4.090  16.874  0.00  0.00    +0.000 A 
ATOM      7  C   UNL     1       3.788   2.837  17.339  0.00  0.00    +0.000 A 
ATOM      8  C   UNL     1       2.831   2.737  18.363  0.00  0.00    +0.000 A 
BRANCH   3  10
ATOM      9  C   UNL     1       1.741   3.740  21.280  0.00  0.00    +0.000 C 
ATOM     10  O   UNL     1       1.352   3.986  19.936  0.00  0.00    +0.000 OA
ENDBRANCH   3  10
BRANCH   8  11
ATOM     11  O   UNL     1       2.416   1.490  18.734  0.00  0.00    +0.000 OA
ATOM     12  H   UNL     1       1.704   1.566  19.391  0.00  0.00    +0.000 HD
ENDBRANCH   8  11
ENDBRANCH   1   6
BRANCH   2  13
ATOM     13  C   UNL     1       6.979   5.387  16.657  0.00  0.00    +0.000 A 
ATOM     14  C   UNL     1       7.021   6.781  16.755  0.00  0.00    +0.000 A 
ATOM     15  C   UNL     1       7.562   7.390  17.890  0.00  0.00    +0.000 A 
ATOM     16  C   UNL     1       8.064   6.611  18.932  0.00  0.00    +0.000 A 
ATOM     17  C   UNL     1       8.048   5.222  18.832  0.00  0.00    +0.000 A 
ATOM     18  C   UNL     1       7.513   4.611  17.696  0.00  0.00    +0.000 A 
ENDBRANCH   2  13
BRANCH   2  19
ATOM     19  C   UNL     1       6.938   4.766  14.198  0.00  0.00    +0.000 C 
ATOM     20  O   UNL     1       7.878   5.502  13.940  0.00  0.00    +0.000 OA
BRANCH  19  21
ATOM     21  O   UNL     1       6.449   3.902  13.283  0.00  0.00    +0.000 OA
ATOM     22  H   UNL     1       5.713   4.238  12.744  0.00  0.00    +0.000 HD
ENDBRANCH  19  21
ENDBRANCH   2  19
TORSDOF 6
ENDMDL
MODEL 2
REMARK VINA RESULT:      -7.9      1.114      1.749
REMARK  Name = 
REMARK  7 active torsions:
REMARK  status: ('A' for Active; 'I' for Inactive)
REMARK    1  A    between atoms: C_1  and  O_2
REMARK    2  A    between atoms: O_2  and  C_3
REMARK    3  A    between atoms: C_6  and  C_7
REMARK    4  A    between atoms: C_8  and  C_9
REMARK    5  A    between atoms: C_8  and  C_12
REMARK    6  A    between atoms: C_9  and  O_11
REMARK    7  A    between atoms: C_19  and  O_20
REMARK                            x       y       z     vdW  Elec       q    Type
REMARK                         _______ _______ _______ _____ _____    ______ ____
ROOT
ATOM      1  C   UNL     1       4.915   4.226  16.050  0.00  0.00    +0.000 C 
ATOM      2  C   UNL     1       6.165   4.680  15.819  0.00  0.00    +0.000 C 
ENDROOT
BRANCH   1   6
ATOM      3  C   UNL     1       2.926   4.595  19.825  0.00  0.00    +0.000 A 
ATOM      4  C   UNL     1       3.495   3.379  19.425  0.00  0.00    +0.000 A 
ATOM      5  C   UNL     1       4.096   3.234  18.172  0.00  0.00    +0.000 A 
ATOM      6  C   UNL     1       4.126   4.310  17.284  0.00  0.00    +0.000 A 
ATOM      7  C   UNL     1       3.527   5.519  17.655  0.00  0.00    +0.000 A 
ATOM      8  C   UNL     1       2.944   5.666  18.925  0.00  0.00    +0.000 A 
BRANCH   3  10
ATOM      9  C   UNL     1       1.980   3.316  21.617  0.00  0.00    +0.000 C 
ATOM     10  O   UNL     1       2.432   4.559  21.102  0.00  0.00    +0.000 OA
ENDBRANCH   3  10
BRANCH   8  11
ATOM     11  O   UNL     1       2.431   6.886  19.260  0.00  0.00    +0.000 OA
ATOM     12  H   UNL     1       2.510   7.490  18.504  0.00  0.00    +0.000 HD
ENDBRANCH   8  11
ENDBRANCH   1   6
BRANCH   2  13
ATOM     13  C   UNL     1       6.943   5.446  16.817  0.00  0.00    +0.000 A 
ATOM     14  C   UNL     1       7.023   6.840  16.753  0.00  0.00    +0.000 A 
ATOM     15  C   UNL     1       7.630   7.558  17.787  0.00  0.00    +0.000 A 
ATOM     16  C   UNL     1       8.162   6.888  18.888  0.00  0.00    +0.000 A 
ATOM     17  C   UNL     1       8.109   5.498  18.947  0.00  0.00    +0.000 A 
ATOM     18  C   UNL     1       7.508   4.778  17.914  0.00  0.00    +0.000 A 
ENDBRANCH   2  13
BRANCH   2  19
ATOM     19  C   UNL     1       6.785   4.529  14.458  0.00  0.00    +0.000 C 
ATOM     20  O   UNL     1       7.640   5.284  14.021  0.00  0.00    +0.000 OA
BRANCH  19  21
ATOM     21  O   UNL     1       6.357   3.464  13.746  0.00  0.00    +0.000 OA
ATOM     22  H   UNL     1       6.682   3.415  12.832  0.00  0.00    +0.000 HD
ENDBRANCH  19  21
ENDBRANCH   2  19
TORSDOF 6
ENDMDL
MODEL 3
REMARK VINA RESULT:      -7.8      0.263      1.110
REMARK  Name = 
REMARK  7 active torsions:
REMARK  status: ('A' for Active; 'I' for Inactive)
REMARK    1  A    between atoms: C_1  and  O_2
REMARK    2  A    between atoms: O_2  and  C_3
REMARK    3  A    between atoms: C_6  and  C_7
REMARK    4  A    between atoms: C_8  and  C_9
REMARK    5  A    between atoms: C_8  and  C_12
REMARK    6  A    between atoms: C_9  and  O_11
REMARK    7  A    between atoms: C_19  and  O_20
REMARK                            x       y       z     vdW  Elec       q    Type
REMARK                         _______ _______ _______ _____ _____    ______ ____
ROOT
ATOM      1  C   UNL     1       4.952   4.105  15.788  0.00  0.00    +0.000 C 
ATOM      2  C   UNL     1       6.158   4.708  15.714  0.00  0.00    +0.000 C 
ENDROOT
BRANCH   1   6
ATOM      3  C   UNL     1       2.059   3.744  18.926  0.00  0.00    +0.000 A 
ATOM      4  C   UNL     1       2.517   5.000  18.507  0.00  0.00    +0.000 A 
ATOM      5  C   UNL     1       3.503   5.125  17.524  0.00  0.00    +0.000 A 
ATOM      6  C   UNL     1       4.060   3.984  16.947  0.00  0.00    +0.000 A 
ATOM      7  C   UNL     1       3.640   2.722  17.382  0.00  0.00    +0.000 A 
ATOM      8  C   UNL     1       2.633   2.603  18.355  0.00  0.00    +0.000 A 
BRANCH   3  10
ATOM      9  C   UNL     1       1.358   3.477  21.201  0.00  0.00    +0.000 C 
ATOM     10  O   UNL     1       1.059   3.823  19.857  0.00  0.00    +0.000 OA
ENDBRANCH   3  10
BRANCH   8  11
ATOM     11  O   UNL     1       2.215   1.348  18.696  0.00  0.00    +0.000 OA
ATOM     12  H   UNL     1       1.420   1.410  19.249  0.00  0.00    +0.000 HD
ENDBRANCH   8  11
ENDBRANCH   1   6
BRANCH   2  13
ATOM     13  C   UNL     1       6.761   5.448  16.844  0.00  0.00    +0.000 A 
ATOM     14  C   UNL     1       7.373   4.772  17.904  0.00  0.00    +0.000 A 
ATOM     15  C   UNL     1       8.070   5.484  18.883  0.00  0.00    +0.000 A 
ATOM     16  C   UNL     1       8.158   6.874  18.810  0.00  0.00    +0.000 A 
ATOM     17  C   UNL     1       7.530   7.557  17.771  0.00  0.00    +0.000 A 
ATOM     18  C   UNL     1       6.829   6.848  16.795  0.00  0.00    +0.000 A 
ENDBRANCH   2  13
BRANCH   2  19
ATOM     19  C   UNL     1       6.900   4.757  14.408  0.00  0.00    +0.000 C 
ATOM     20  O   UNL     1       7.871   5.472  14.213  0.00  0.00    +0.000 OA
BRANCH  19  21
ATOM     21  O   UNL     1       6.439   3.920  13.453  0.00  0.00    +0.000 OA
ATOM     22  H   UNL     1       6.925   3.084  13.362  0.00  0.00    +0.000 HD
ENDBRANCH  19  21
ENDBRANCH   2  19
TORSDOF 6
ENDMDL
MODEL 4
REMARK VINA RESULT:      -7.8      1.081      2.022
REMARK  Name = 
REMARK  7 active torsions:
REMARK  status: ('A' for Active; 'I' for Inactive)
REMARK    1  A    between atoms: C_1  and  O_2
REMARK    2  A    between atoms: O_2  and  C_3
REMARK    3  A    between atoms: C_6  and  C_7
REMARK    4  A    between atoms: C_8  and  C_9
REMARK    5  A    between atoms: C_8  and  C_12
REMARK    6  A    between atoms: C_9  and  O_11
REMARK    7  A    between atoms: C_19  and  O_20
REMARK                            x       y       z     vdW  Elec       q    Type
REMARK                         _______ _______ _______ _____ _____    ______ ____
ROOT
ATOM      1  C   UNL     1       4.833   4.031  16.222  0.00  0.00    +0.000 C 
ATOM      2  C   UNL     1       6.034   4.614  16.022  0.00  0.00    +0.000 C 
ENDROOT
BRANCH   1   6
ATOM      3  C   UNL     1       2.720   4.167  19.946  0.00  0.00    +0.000 A 
ATOM      4  C   UNL     1       3.301   2.977  19.489  0.00  0.00    +0.000 A 
ATOM      5  C   UNL     1       3.943   2.910  18.249  0.00  0.00    +0.000 A 
ATOM      6  C   UNL     1       4.003   4.040  17.433  0.00  0.00    +0.000 A 
ATOM      7  C   UNL     1       3.394   5.225  17.859  0.00  0.00    +0.000 A 
ATOM      8  C   UNL     1       2.770   5.293  19.116  0.00  0.00    +0.000 A 
BRANCH   3  10
ATOM      9  C   UNL     1       1.526   2.844  21.546  0.00  0.00    +0.000 C 
ATOM     10  O   UNL     1       2.185   4.053  21.200  0.00  0.00    +0.000 OA
ENDBRANCH   3  10
BRANCH   8  11
ATOM     11  O   UNL     1       2.249   6.492  19.511  0.00  0.00    +0.000 OA
ATOM     12  H   UNL     1       2.128   7.064  18.736  0.00  0.00    +0.000 HD
ENDBRANCH   8  11
ENDBRANCH   1   6
BRANCH   2  13
ATOM     13  C   UNL     1       6.696   5.466  17.034  0.00  0.00    +0.000 A 
ATOM     14  C   UNL     1       7.339   4.903  18.141  0.00  0.00    +0.000 A 
ATOM     15  C   UNL     1       8.089   5.708  19.002  0.00  0.00    +0.000 A 
ATOM     16  C   UNL     1       8.200   7.077  18.764  0.00  0.00    +0.000 A 
ATOM     17  C   UNL     1       7.542   7.650  17.678  0.00  0.00    +0.000 A 
ATOM     18  C   UNL     1       6.788   6.849  16.819  0.00  0.00    +0.000 A 
ENDBRANCH   2  13
BRANCH   2  19
ATOM     19  C   UNL     1       6.706   4.519  14.681  0.00  0.00    +0.000 C 
ATOM     20  O   UNL     1       7.590   5.279  14.316  0.00  0.00    +0.000 OA
BRANCH  19  21
ATOM     21  O   UNL     1       6.289   3.499  13.900  0.00  0.00    +0.000 OA
ATOM     22  H   UNL     1       5.355   3.533  13.634  0.00  0.00    +0.000 HD
ENDBRANCH  19  21
ENDBRANCH   2  19
TORSDOF 6
ENDMDL
MODEL 5
REMARK VINA RESULT:      -7.7      2.550      5.773
REMARK  Name = 
REMARK  7 active torsions:
REMARK  status: ('A' for Active; 'I' for Inactive)
REMARK    1  A    between atoms: C_1  and  O_2
REMARK    2  A    between atoms: O_2  and  C_3
REMARK    3  A    between atoms: C_6  and  C_7
REMARK    4  A    between atoms: C_8  and  C_9
REMARK    5  A    between atoms: C_8  and  C_12
REMARK    6  A    between atoms: C_9  and  O_11
REMARK    7  A    between atoms: C_19  and  O_20
REMARK                            x       y       z     vdW  Elec       q    Type
REMARK                         _______ _______ _______ _____ _____    ______ ____
ROOT
ATOM      1  C   UNL     1       4.448   4.267  17.454  0.00  0.00    +0.000 C 
ATOM      2  C   UNL     1       3.170   4.510  17.815  0.00  0.00    +0.000 C 
ENDROOT
BRANCH   1   6
ATOM      3  C   UNL     1       7.714   6.859  18.436  0.00  0.00    +0.000 A 
ATOM      4  C   UNL     1       7.009   7.010  17.234  0.00  0.00    +0.000 A 
ATOM      5  C   UNL     1       5.980   6.133  16.880  0.00  0.00    +0.000 A 
ATOM      6  C   UNL     1       5.644   5.074  17.724  0.00  0.00    +0.000 A 
ATOM      7  C   UNL     1       6.364   4.889  18.909  0.00  0.00    +0.000 A 
ATOM      8  C   UNL     1       7.383   5.787  19.271  0.00  0.00    +0.000 A 
BRANCH   3  10
ATOM      9  C   UNL     1       8.362   9.150  18.165  0.00  0.00    +0.000 C 
ATOM     10  O   UNL     1       8.648   7.840  18.634  0.00  0.00    +0.000 OA
ENDBRANCH   3  10
BRANCH   8  11
ATOM     11  O   UNL     1       8.011   5.597  20.469  0.00  0.00    +0.000 OA
ATOM     12  H   UNL     1       8.582   6.358  20.661  0.00  0.00    +0.000 HD
ENDBRANCH   8  11
ENDBRANCH   1   6
BRANCH   2  13
ATOM     13  C   UNL     1       2.774   5.662  18.655  0.00  0.00    +0.000 A 
ATOM     14  C   UNL     1       2.674   6.947  18.115  0.00  0.00    +0.000 A 
ATOM     15  C   UNL     1       2.152   7.993  18.880  0.00  0.00    +0.000 A 
ATOM     16  C   UNL     1       1.730   7.761  20.189  0.00  0.00    +0.000 A 
ATOM     17  C   UNL     1       1.850   6.489  20.743  0.00  0.00    +0.000 A 
ATOM     18  C   UNL     1       2.376   5.444  19.982  0.00  0.00    +0.000 A 
ENDBRANCH   2  13
BRANCH   2  19
ATOM     19  C   UNL     1       2.087   3.527  17.471  0.00  0.00    +0.000 C 
ATOM     20  O   UNL     1       2.269   2.320  17.411  0.00  0.00    +0.000 OA
BRANCH  19  21
ATOM     21  O   UNL     1       0.867   4.066  17.261  0.00  0.00    +0.000 OA
ATOM     22  H   UNL     1       0.813   5.030  17.368  0.00  0.00    +0.000 HD
ENDBRANCH  19  21
ENDBRANCH   2  19
TORSDOF 6
ENDMDL
MODEL 6
REMARK VINA RESULT:      -7.4      2.078      5.876
REMARK  Name = 
REMARK  7 active torsions:
REMARK  status: ('A' for Active; 'I' for Inactive)
REMARK    1  A    between atoms: C_1  and  O_2
REMARK    2  A    between atoms: O_2  and  C_3
REMARK    3  A    between atoms: C_6  and  C_7
REMARK    4  A    between atoms: C_8  and  C_9
REMARK    5  A    between atoms: C_8  and  C_12
REMARK    6  A    between atoms: C_9  and  O_11
REMARK    7  A    between atoms: C_19  and  O_20
REMARK                            x       y       z     vdW  Elec       q    Type
REMARK                         _______ _______ _______ _____ _____    ______ ____
ROOT
ATOM      1  C   UNL     1       3.998   3.371  17.727  0.00  0.00    +0.000 C 
ATOM      2  C   UNL     1       2.781   3.653  18.239  0.00  0.00    +0.000 C 
ENDROOT
BRANCH   1   6
ATOM      3  C   UNL     1       7.095   6.291  17.255  0.00  0.00    +0.000 A 
ATOM      4  C   UNL     1       6.251   5.956  16.189  0.00  0.00    +0.000 A 
ATOM      5  C   UNL     1       5.275   4.963  16.317  0.00  0.00    +0.000 A 
ATOM      6  C   UNL     1       5.135   4.275  17.523  0.00  0.00    +0.000 A 
ATOM      7  C   UNL     1       5.996   4.573  18.584  0.00  0.00    +0.000 A 
ATOM      8  C   UNL     1       6.961   5.587  18.457  0.00  0.00    +0.000 A 
BRANCH   3  10
ATOM      9  C   UNL     1       7.792   8.550  17.647  0.00  0.00    +0.000 C 
ATOM     10  O   UNL     1       7.950   7.318  16.958  0.00  0.00    +0.000 OA
ENDBRANCH   3  10
BRANCH   8  11
ATOM     11  O   UNL     1       7.732   5.881  19.545  0.00  0.00    +0.000 OA
ATOM     12  H   UNL     1       7.979   6.820  19.524  0.00  0.00    +0.000 HD
ENDBRANCH   8  11
ENDBRANCH   1   6
BRANCH   2  13
ATOM     13  C   UNL     1       2.419   4.983  18.774  0.00  0.00    +0.000 A 
ATOM     14  C   UNL     1       2.138   5.163  20.132  0.00  0.00    +0.000 A 
ATOM     15  C   UNL     1       1.950   6.447  20.648  0.00  0.00    +0.000 A 
ATOM     16  C   UNL     1       2.039   7.559  19.811  0.00  0.00    +0.000 A 
ATOM     17  C   UNL     1       2.293   7.388  18.452  0.00  0.00    +0.000 A 
ATOM     18  C   UNL     1       2.476   6.105  17.934  0.00  0.00    +0.000 A 
ENDBRANCH   2  13
BRANCH   2  19
ATOM     19  C   UNL     1       1.758   2.563  18.403  0.00  0.00    +0.000 C 
ATOM     20  O   UNL     1       0.558   2.741  18.265  0.00  0.00    +0.000 OA
BRANCH  19  21
ATOM     21  O   UNL     1       2.261   1.342  18.686  0.00  0.00    +0.000 OA
ATOM     22  H   UNL     1       3.044   1.336  19.261  0.00  0.00    +0.000 HD
ENDBRANCH  19  21
ENDBRANCH   2  19
TORSDOF 6
ENDMDL
MODEL 7
REMARK VINA RESULT:      -7.2      2.011      6.276
REMARK  Name = 
REMARK  7 active torsions:
REMARK  status: ('A' for Active; 'I' for Inactive)
REMARK    1  A    between atoms: C_1  and  O_2
REMARK    2  A    between atoms: O_2  and  C_3
REMARK    3  A    between atoms: C_6  and  C_7
REMARK    4  A    between atoms: C_8  and  C_9
REMARK    5  A    between atoms: C_8  and  C_12
REMARK    6  A    between atoms: C_9  and  O_11
REMARK    7  A    between atoms: C_19  and  O_20
REMARK                            x       y       z     vdW  Elec       q    Type
REMARK                         _______ _______ _______ _____ _____    ______ ____
ROOT
ATOM      1  C   UNL     1       3.665   3.390  19.465  0.00  0.00    +0.000 C 
ATOM      2  C   UNL     1       2.579   4.052  19.920  0.00  0.00    +0.000 C 
ENDROOT
BRANCH   1   6
ATOM      3  C   UNL     1       6.447   5.056  16.667  0.00  0.00    +0.000 A 
ATOM      4  C   UNL     1       5.440   4.177  16.247  0.00  0.00    +0.000 A 
ATOM      5  C   UNL     1       4.564   3.584  17.161  0.00  0.00    +0.000 A 
ATOM      6  C   UNL     1       4.690   3.854  18.524  0.00  0.00    +0.000 A 
ATOM      7  C   UNL     1       5.715   4.701  18.962  0.00  0.00    +0.000 A 
ATOM      8  C   UNL     1       6.579   5.311  18.037  0.00  0.00    +0.000 A 
BRANCH   3  10
ATOM      9  C   UNL     1       7.105   4.925  14.367  0.00  0.00    +0.000 C 
ATOM     10  O   UNL     1       7.171   5.575  15.628  0.00  0.00    +0.000 OA
ENDBRANCH   3  10
BRANCH   8  11
ATOM     11  O   UNL     1       7.520   6.179  18.512  0.00  0.00    +0.000 OA
ATOM     12  H   UNL     1       7.155   7.078  18.527  0.00  0.00    +0.000 HD
ENDBRANCH   8  11
ENDBRANCH   1   6
BRANCH   2  13
ATOM     13  C   UNL     1       2.289   5.460  19.573  0.00  0.00    +0.000 A 
ATOM     14  C   UNL     1       2.015   6.406  20.565  0.00  0.00    +0.000 A 
ATOM     15  C   UNL     1       1.895   7.758  20.235  0.00  0.00    +0.000 A 
ATOM     16  C   UNL     1       2.046   8.173  18.912  0.00  0.00    +0.000 A 
ATOM     17  C   UNL     1       2.294   7.234  17.913  0.00  0.00    +0.000 A 
ATOM     18  C   UNL     1       2.409   5.882  18.240  0.00  0.00    +0.000 A 
ENDBRANCH   2  13
BRANCH   2  19
ATOM     19  C   UNL     1       1.665   3.406  20.923  0.00  0.00    +0.000 C 
ATOM     20  O   UNL     1       1.997   3.152  22.070  0.00  0.00    +0.000 OA
BRANCH  19  21
ATOM     21  O   UNL     1       0.415   3.148  20.479  0.00  0.00    +0.000 OA
ATOM     22  H   UNL     1       0.262   2.240  20.170  0.00  0.00    +0.000 HD
ENDBRANCH  19  21
ENDBRANCH   2  19
TORSDOF 6
ENDMDL
MODEL 8
REMARK VINA RESULT:      -7.2      3.385      5.583
REMARK  Name = 
REMARK  7 active torsions:
REMARK  status: ('A' for Active; 'I' for Inactive)
REMARK    1  A    between atoms: C_1  and  O_2
REMARK    2  A    between atoms: O_2  and  C_3
REMARK    3  A    between atoms: C_6  and  C_7
REMARK    4  A    between atoms: C_8  and  C_9
REMARK    5  A    between atoms: C_8  and  C_12
REMARK    6  A    between atoms: C_9  and  O_11
REMARK    7  A    between atoms: C_19  and  O_20
REMARK                            x       y       z     vdW  Elec       q    Type
REMARK                         _______ _______ _______ _____ _____    ______ ____
ROOT
ATOM      1  C   UNL     1       4.073   6.188  17.860  0.00  0.00    +0.000 C 
ATOM      2  C   UNL     1       4.118   4.839  17.901  0.00  0.00    +0.000 C 
ENDROOT
BRANCH   1   6
ATOM      3  C   UNL     1       1.317   9.017  19.516  0.00  0.00    +0.000 A 
ATOM      4  C   UNL     1       1.686   7.868  20.228  0.00  0.00    +0.000 A 
ATOM      5  C   UNL     1       2.540   6.911  19.672  0.00  0.00    +0.000 A 
ATOM      6  C   UNL     1       3.033   7.084  18.378  0.00  0.00    +0.000 A 
ATOM      7  C   UNL     1       2.642   8.208  17.642  0.00  0.00    +0.000 A 
ATOM      8  C   UNL     1       1.801   9.178  18.214  0.00  0.00    +0.000 A 
BRANCH   3  10
ATOM      9  C   UNL     1       0.595   9.813  21.658  0.00  0.00    +0.000 C 
ATOM     10  O   UNL     1       0.519   9.861  20.241  0.00  0.00    +0.000 OA
ENDBRANCH   3  10
BRANCH   8  11
ATOM     11  O   UNL     1       1.504  10.287  17.474  0.00  0.00    +0.000 OA
ATOM     12  H   UNL     1       1.180  10.990  18.060  0.00  0.00    +0.000 HD
ENDBRANCH   8  11
ENDBRANCH   1   6
BRANCH   2  13
ATOM     13  C   UNL     1       3.096   4.019  18.587  0.00  0.00    +0.000 A 
ATOM     14  C   UNL     1       3.253   3.642  19.924  0.00  0.00    +0.000 A 
ATOM     15  C   UNL     1       2.212   3.000  20.600  0.00  0.00    +0.000 A 
ATOM     16  C   UNL     1       1.011   2.730  19.945  0.00  0.00    +0.000 A 
ATOM     17  C   UNL     1       0.856   3.080  18.606  0.00  0.00    +0.000 A 
ATOM     18  C   UNL     1       1.896   3.716  17.927  0.00  0.00    +0.000 A 
ENDBRANCH   2  13
BRANCH   2  19
ATOM     19  C   UNL     1       5.304   4.105  17.343  0.00  0.00    +0.000 C 
ATOM     20  O   UNL     1       5.355   3.678  16.200  0.00  0.00    +0.000 OA
BRANCH  19  21
ATOM     21  O   UNL     1       6.348   3.971  18.190  0.00  0.00    +0.000 OA
ATOM     22  H   UNL     1       6.422   4.659  18.873  0.00  0.00    +0.000 HD
ENDBRANCH  19  21
ENDBRANCH   2  19
TORSDOF 6
ENDMDL
MODEL 9
REMARK VINA RESULT:      -7.2      1.046      1.553
REMARK  Name = 
REMARK  7 active torsions:
REMARK  status: ('A' for Active; 'I' for Inactive)
REMARK    1  A    between atoms: C_1  and  O_2
REMARK    2  A    between atoms: O_2  and  C_3
REMARK    3  A    between atoms: C_6  and  C_7
REMARK    4  A    between atoms: C_8  and  C_9
REMARK    5  A    between atoms: C_8  and  C_12
REMARK    6  A    between atoms: C_9  and  O_11
REMARK    7  A    between atoms: C_19  and  O_20
REMARK                            x       y       z     vdW  Elec       q    Type
REMARK                         _______ _______ _______ _____ _____    ______ ____
ROOT
ATOM      1  C   UNL     1       4.964   3.816  15.984  0.00  0.00    +0.000 C 
ATOM      2  C   UNL     1       6.076   4.557  15.796  0.00  0.00    +0.000 C 
ENDROOT
BRANCH   1   6
ATOM      3  C   UNL     1       2.656   2.873  19.467  0.00  0.00    +0.000 A 
ATOM      4  C   UNL     1       2.068   3.495  18.358  0.00  0.00    +0.000 A 
ATOM      5  C   UNL     1       2.825   3.858  17.240  0.00  0.00    +0.000 A 
ATOM      6  C   UNL     1       4.198   3.613  17.219  0.00  0.00    +0.000 A 
ATOM      7  C   UNL     1       4.806   3.028  18.335  0.00  0.00    +0.000 A 
ATOM      8  C   UNL     1       4.037   2.645  19.447  0.00  0.00    +0.000 A 
BRANCH   3  10
ATOM      9  C   UNL     1       1.773   3.280  21.657  0.00  0.00    +0.000 C 
ATOM     10  O   UNL     1       1.751   2.547  20.440  0.00  0.00    +0.000 OA
ENDBRANCH   3  10
BRANCH   8  11
ATOM     11  O   UNL     1       4.670   2.019  20.482  0.00  0.00    +0.000 OA
ATOM     12  H   UNL     1       4.042   1.873  21.207  0.00  0.00    +0.000 HD
ENDBRANCH   8  11
ENDBRANCH   1   6
BRANCH   2  13
ATOM     13  C   UNL     1       6.681   5.388  16.859  0.00  0.00    +0.000 A 
ATOM     14  C   UNL     1       7.469   4.815  17.862  0.00  0.00    +0.000 A 
ATOM     15  C   UNL     1       8.157   5.627  18.767  0.00  0.00    +0.000 A 
ATOM     16  C   UNL     1       8.061   7.015  18.676  0.00  0.00    +0.000 A 
ATOM     17  C   UNL     1       7.259   7.594  17.696  0.00  0.00    +0.000 A 
ATOM     18  C   UNL     1       6.567   6.785  16.794  0.00  0.00    +0.000 A 
ENDBRANCH   2  13
BRANCH   2  19
ATOM     19  C   UNL     1       6.689   4.667  14.428  0.00  0.00    +0.000 C 
ATOM     20  O   UNL     1       7.670   5.353  14.184  0.00  0.00    +0.000 OA
BRANCH  19  21
ATOM     21  O   UNL     1       6.098   3.919  13.471  0.00  0.00    +0.000 OA
ATOM     22  H   UNL     1       6.083   2.962  13.640  0.00  0.00    +0.000 HD
ENDBRANCH  19  21
ENDBRANCH   2  19
TORSDOF 6
ENDMDL
