MODEL 1
REMARK VINA RESULT:      -5.9      0.000      0.000
REMARK  Name = 
REMARK  4 active torsions:
REMARK  status: ('A' for Active; 'I' for Inactive)
REMARK    1  A    between atoms: N_1  and  C_2
REMARK    2  A    between atoms: N_6  and  C_7
REMARK    3  A    between atoms: C_8  and  C_9
REMARK    4  A    between atoms: C_20  and  C_21
REMARK                            x       y       z     vdW  Elec       q    Type
REMARK                         _______ _______ _______ _____ _____    ______ ____
ROOT
ATOM      1  C   UNL     1       8.645  13.393  20.178  0.00  0.00    +0.000 A 
ATOM      2  C   UNL     1       9.323  13.110  18.934  0.00  0.00    +0.000 A 
ATOM      3  C   UNL     1       9.878  11.851  18.645  0.00  0.00    +0.000 A 
ATOM      4  C   UNL     1       9.880  10.857  19.597  0.00  0.00    +0.000 A 
ATOM      5  C   UNL     1       9.342  11.129  20.848  0.00  0.00    +0.000 A 
ATOM      6  C   UNL     1       8.711  12.363  21.181  0.00  0.00    +0.000 A 
ENDROOT
BRANCH   2   7
ATOM      7  C   UNL     1       9.567  14.105  17.871  0.00  0.00    +0.000 C 
ATOM      8  C   UNL     1      10.621  14.935  17.903  0.00  0.00    +0.000 C 
ATOM      9  S   UNL     1      10.826  16.252  16.793  0.00  0.00    +0.000 S 
ATOM     10  C   UNL     1      11.962  17.055  17.857  0.00  0.00    +0.000 C 
ATOM     11  O   UNL     1      12.332  18.209  17.733  0.00  0.00    +0.000 OA
ATOM     12  N   UNL     1      12.328  16.211  18.852  0.00  0.00    +0.000 N 
ATOM     13  C   UNL     1      11.662  15.029  18.976  0.00  0.00    +0.000 C 
ATOM     14  O   UNL     1      11.879  14.225  19.863  0.00  0.00    +0.000 OA
ATOM     15  H   UNL     1      12.980  16.501  19.568  0.00  0.00    +0.000 HD
ENDBRANCH   2   7
BRANCH   1  20
ATOM     16  C   UNL     1       5.677  15.655  20.009  0.00  0.00    +0.000 C 
ATOM     17  C   UNL     1       6.240  16.939  20.635  0.00  0.00    +0.000 C 
ATOM     18  C   UNL     1       7.440  16.654  21.547  0.00  0.00    +0.000 C 
ATOM     19  C   UNL     1       8.502  15.816  20.835  0.00  0.00    +0.000 C 
ATOM     20  N   UNL     1       7.901  14.591  20.288  0.00  0.00    +0.000 N 
ATOM     21  C   UNL     1       6.828  14.878  19.307  0.00  0.00    +0.000 C 
BRANCH  16  22
ATOM     22  N   UNL     1       5.025  14.844  21.053  0.00  0.00    +0.000 NA
ATOM     23  H   UNL     1       5.007  13.865  20.775  0.00  0.00    +0.000 HD
ATOM     24  H   UNL     1       4.048  15.146  21.095  0.00  0.00    +0.000 HD
ENDBRANCH  16  22
ENDBRANCH   1  20
BRANCH   6  25
ATOM     25  C   UNL     1       8.216  12.470  22.591  0.00  0.00    +0.000 A 
ATOM     26  C   UNL     1       7.065  11.805  23.036  0.00  0.00    +0.000 A 
ATOM     27  C   UNL     1       6.682  11.815  24.382  0.00  0.00    +0.000 A 
ATOM     28  C   UNL     1       7.365  12.608  25.297  0.00  0.00    +0.000 A 
ATOM     29  C   UNL     1       8.432  13.383  24.865  0.00  0.00    +0.000 A 
ATOM     30  C   UNL     1       8.867  13.293  23.539  0.00  0.00    +0.000 A 
ENDBRANCH   6  25
TORSDOF 4
ENDMDL
MODEL 2
REMARK VINA RESULT:      -5.9      9.506     10.963
REMARK  Name = 
REMARK  4 active torsions:
REMARK  status: ('A' for Active; 'I' for Inactive)
REMARK    1  A    between atoms: N_1  and  C_2
REMARK    2  A    between atoms: N_6  and  C_7
REMARK    3  A    between atoms: C_8  and  C_9
REMARK    4  A    between atoms: C_20  and  C_21
REMARK                            x       y       z     vdW  Elec       q    Type
REMARK                         _______ _______ _______ _____ _____    ______ ____
ROOT
ATOM      1  C   UNL     1      -0.283  10.467  20.882  0.00  0.00    +0.000 A 
ATOM      2  C   UNL     1      -0.989  10.916  22.060  0.00  0.00    +0.000 A 
ATOM      3  C   UNL     1      -0.690  10.439  23.349  0.00  0.00    +0.000 A 
ATOM      4  C   UNL     1       0.237   9.436  23.520  0.00  0.00    +0.000 A 
ATOM      5  C   UNL     1       0.853   8.897  22.399  0.00  0.00    +0.000 A 
ATOM      6  C   UNL     1       0.637   9.378  21.075  0.00  0.00    +0.000 A 
ENDROOT
BRANCH   2   7
ATOM      7  C   UNL     1      -2.128  11.856  22.043  0.00  0.00    +0.000 C 
ATOM      8  C   UNL     1      -1.962  13.176  22.214  0.00  0.00    +0.000 C 
ATOM      9  S   UNL     1      -3.284  14.282  22.411  0.00  0.00    +0.000 S 
ATOM     10  C   UNL     1      -2.244  15.495  23.129  0.00  0.00    +0.000 C 
ATOM     11  O   UNL     1      -2.638  16.486  23.717  0.00  0.00    +0.000 OA
ATOM     12  N   UNL     1      -0.947  15.140  22.964  0.00  0.00    +0.000 N 
ATOM     13  C   UNL     1      -0.675  13.897  22.477  0.00  0.00    +0.000 C 
ATOM     14  O   UNL     1       0.454  13.462  22.339  0.00  0.00    +0.000 OA
ATOM     15  H   UNL     1      -0.198  15.719  23.316  0.00  0.00    +0.000 HD
ENDBRANCH   2   7
BRANCH   1  20
ATOM     16  C   UNL     1      -2.011  11.641  17.785  0.00  0.00    +0.000 C 
ATOM     17  C   UNL     1      -1.024  12.700  17.272  0.00  0.00    +0.000 C 
ATOM     18  C   UNL     1      -0.141  13.254  18.397  0.00  0.00    +0.000 C 
ATOM     19  C   UNL     1       0.536  12.132  19.185  0.00  0.00    +0.000 C 
ATOM     20  N   UNL     1      -0.468  11.174  19.670  0.00  0.00    +0.000 N 
ATOM     21  C   UNL     1      -1.229  10.545  18.566  0.00  0.00    +0.000 C 
BRANCH  16  22
ATOM     22  N   UNL     1      -3.034  12.288  18.626  0.00  0.00    +0.000 NA
ATOM     23  H   UNL     1      -3.241  11.707  19.435  0.00  0.00    +0.000 HD
ATOM     24  H   UNL     1      -3.895  12.321  18.072  0.00  0.00    +0.000 HD
ENDBRANCH  16  22
ENDBRANCH   1  20
BRANCH   6  25
ATOM     25  C   UNL     1       1.377   8.646  19.997  0.00  0.00    +0.000 A 
ATOM     26  C   UNL     1       1.572   9.187  18.719  0.00  0.00    +0.000 A 
ATOM     27  C   UNL     1       2.368   8.549  17.761  0.00  0.00    +0.000 A 
ATOM     28  C   UNL     1       2.877   7.279  18.010  0.00  0.00    +0.000 A 
ATOM     29  C   UNL     1       2.595   6.656  19.218  0.00  0.00    +0.000 A 
ATOM     30  C   UNL     1       1.880   7.341  20.206  0.00  0.00    +0.000 A 
ENDBRANCH   6  25
TORSDOF 4
ENDMDL
MODEL 3
REMARK VINA RESULT:      -5.7      3.175      5.544
REMARK  Name = 
REMARK  4 active torsions:
REMARK  status: ('A' for Active; 'I' for Inactive)
REMARK    1  A    between atoms: N_1  and  C_2
REMARK    2  A    between atoms: N_6  and  C_7
REMARK    3  A    between atoms: C_8  and  C_9
REMARK    4  A    between atoms: C_20  and  C_21
REMARK                            x       y       z     vdW  Elec       q    Type
REMARK                         _______ _______ _______ _____ _____    ______ ____
ROOT
ATOM      1  C   UNL     1       8.833  14.839  21.187  0.00  0.00    +0.000 A 
ATOM      2  C   UNL     1       8.039  15.287  22.308  0.00  0.00    +0.000 A 
ATOM      3  C   UNL     1       7.849  14.505  23.461  0.00  0.00    +0.000 A 
ATOM      4  C   UNL     1       8.342  13.221  23.518  0.00  0.00    +0.000 A 
ATOM      5  C   UNL     1       9.010  12.713  22.413  0.00  0.00    +0.000 A 
ATOM      6  C   UNL     1       9.287  13.475  21.242  0.00  0.00    +0.000 A 
ENDROOT
BRANCH   2   7
ATOM      7  C   UNL     1       7.295  16.562  22.347  0.00  0.00    +0.000 C 
ATOM      8  C   UNL     1       6.033  16.662  21.902  0.00  0.00    +0.000 C 
ATOM      9  S   UNL     1       5.203  18.176  21.735  0.00  0.00    +0.000 S 
ATOM     10  C   UNL     1       4.035  17.485  20.627  0.00  0.00    +0.000 C 
ATOM     11  O   UNL     1       3.264  18.131  19.940  0.00  0.00    +0.000 OA
ATOM     12  N   UNL     1       4.152  16.135  20.625  0.00  0.00    +0.000 N 
ATOM     13  C   UNL     1       5.206  15.577  21.283  0.00  0.00    +0.000 C 
ATOM     14  O   UNL     1       5.430  14.380  21.300  0.00  0.00    +0.000 OA
ATOM     15  H   UNL     1       3.559  15.561  20.042  0.00  0.00    +0.000 HD
ENDBRANCH   2   7
BRANCH   1  20
ATOM     16  C   UNL     1       8.400  17.036  18.197  0.00  0.00    +0.000 C 
ATOM     17  C   UNL     1       9.727  17.807  18.194  0.00  0.00    +0.000 C 
ATOM     18  C   UNL     1      10.373  17.843  19.585  0.00  0.00    +0.000 C 
ATOM     19  C   UNL     1      10.492  16.442  20.187  0.00  0.00    +0.000 C 
ATOM     20  N   UNL     1       9.181  15.775  20.185  0.00  0.00    +0.000 N 
ATOM     21  C   UNL     1       8.624  15.628  18.821  0.00  0.00    +0.000 C 
BRANCH  16  22
ATOM     22  N   UNL     1       7.384  17.807  18.936  0.00  0.00    +0.000 NA
ATOM     23  H   UNL     1       7.422  18.787  18.663  0.00  0.00    +0.000 HD
ATOM     24  H   UNL     1       7.650  17.776  19.924  0.00  0.00    +0.000 HD
ENDBRANCH  16  22
ENDBRANCH   1  20
BRANCH   6  25
ATOM     25  C   UNL     1       9.998  12.736  20.148  0.00  0.00    +0.000 A 
ATOM     26  C   UNL     1       9.318  12.157  19.067  0.00  0.00    +0.000 A 
ATOM     27  C   UNL     1      10.001  11.578  17.992  0.00  0.00    +0.000 A 
ATOM     28  C   UNL     1      11.384  11.439  18.036  0.00  0.00    +0.000 A 
ATOM     29  C   UNL     1      12.079  11.885  19.152  0.00  0.00    +0.000 A 
ATOM     30  C   UNL     1      11.399  12.549  20.177  0.00  0.00    +0.000 A 
ENDBRANCH   6  25
TORSDOF 4
ENDMDL
MODEL 4
REMARK VINA RESULT:      -5.7      0.722      1.636
REMARK  Name = 
REMARK  4 active torsions:
REMARK  status: ('A' for Active; 'I' for Inactive)
REMARK    1  A    between atoms: N_1  and  C_2
REMARK    2  A    between atoms: N_6  and  C_7
REMARK    3  A    between atoms: C_8  and  C_9
REMARK    4  A    between atoms: C_20  and  C_21
REMARK                            x       y       z     vdW  Elec       q    Type
REMARK                         _______ _______ _______ _____ _____    ______ ____
ROOT
ATOM      1  C   UNL     1       8.548  13.601  20.361  0.00  0.00    +0.000 A 
ATOM      2  C   UNL     1       9.208  13.350  19.101  0.00  0.00    +0.000 A 
ATOM      3  C   UNL     1       9.787  12.108  18.784  0.00  0.00    +0.000 A 
ATOM      4  C   UNL     1       9.831  11.103  19.724  0.00  0.00    +0.000 A 
ATOM      5  C   UNL     1       9.312  11.347  20.988  0.00  0.00    +0.000 A 
ATOM      6  C   UNL     1       8.659  12.561  21.349  0.00  0.00    +0.000 A 
ENDROOT
BRANCH   2   7
ATOM      7  C   UNL     1       9.406  14.364  18.046  0.00  0.00    +0.000 C 
ATOM      8  C   UNL     1      10.495  15.147  18.009  0.00  0.00    +0.000 C 
ATOM      9  S   UNL     1      10.666  16.486  16.919  0.00  0.00    +0.000 S 
ATOM     10  C   UNL     1      11.921  17.209  17.903  0.00  0.00    +0.000 C 
ATOM     11  O   UNL     1      12.331  18.349  17.777  0.00  0.00    +0.000 OA
ATOM     12  N   UNL     1      12.331  16.323  18.842  0.00  0.00    +0.000 N 
ATOM     13  C   UNL     1      11.626  15.167  18.992  0.00  0.00    +0.000 C 
ATOM     14  O   UNL     1      11.880  14.330  19.838  0.00  0.00    +0.000 OA
ATOM     15  H   UNL     1      13.053  16.564  19.507  0.00  0.00    +0.000 HD
ENDBRANCH   2   7
BRANCH   1  20
ATOM     16  C   UNL     1       7.829  17.255  20.659  0.00  0.00    +0.000 C 
ATOM     17  C   UNL     1       6.295  17.265  20.611  0.00  0.00    +0.000 C 
ATOM     18  C   UNL     1       5.734  16.019  19.916  0.00  0.00    +0.000 C 
ATOM     19  C   UNL     1       6.309  14.734  20.514  0.00  0.00    +0.000 C 
ATOM     20  N   UNL     1       7.778  14.780  20.501  0.00  0.00    +0.000 N 
ATOM     21  C   UNL     1       8.315  15.916  21.286  0.00  0.00    +0.000 C 
BRANCH  16  22
ATOM     22  N   UNL     1       8.366  17.451  19.300  0.00  0.00    +0.000 NA
ATOM     23  H   UNL     1       8.240  16.604  18.750  0.00  0.00    +0.000 HD
ATOM     24  H   UNL     1       9.377  17.581  19.397  0.00  0.00    +0.000 HD
ENDBRANCH  16  22
ENDBRANCH   1  20
BRANCH   6  25
ATOM     25  C   UNL     1       8.189  12.639  22.770  0.00  0.00    +0.000 A 
ATOM     26  C   UNL     1       8.806  13.464  23.721  0.00  0.00    +0.000 A 
ATOM     27  C   UNL     1       8.285  13.622  25.010  0.00  0.00    +0.000 A 
ATOM     28  C   UNL     1       7.208  12.847  25.427  0.00  0.00    +0.000 A 
ATOM     29  C   UNL     1       6.652  11.924  24.552  0.00  0.00    +0.000 A 
ATOM     30  C   UNL     1       7.118  11.843  23.236  0.00  0.00    +0.000 A 
ENDBRANCH   6  25
TORSDOF 4
ENDMDL
MODEL 5
REMARK VINA RESULT:      -5.7      3.356      5.498
REMARK  Name = 
REMARK  4 active torsions:
REMARK  status: ('A' for Active; 'I' for Inactive)
REMARK    1  A    between atoms: N_1  and  C_2
REMARK    2  A    between atoms: N_6  and  C_7
REMARK    3  A    between atoms: C_8  and  C_9
REMARK    4  A    between atoms: C_20  and  C_21
REMARK                            x       y       z     vdW  Elec       q    Type
REMARK                         _______ _______ _______ _____ _____    ______ ____
ROOT
ATOM      1  C   UNL     1       7.997  13.751  21.213  0.00  0.00    +0.000 A 
ATOM      2  C   UNL     1       6.978  13.836  22.233  0.00  0.00    +0.000 A 
ATOM      3  C   UNL     1       6.852  12.881  23.257  0.00  0.00    +0.000 A 
ATOM      4  C   UNL     1       7.650  11.760  23.263  0.00  0.00    +0.000 A 
ATOM      5  C   UNL     1       8.562  11.584  22.232  0.00  0.00    +0.000 A 
ATOM      6  C   UNL     1       8.779  12.543  21.202  0.00  0.00    +0.000 A 
ENDROOT
BRANCH   2   7
ATOM      7  C   UNL     1       5.930  14.875  22.281  0.00  0.00    +0.000 C 
ATOM      8  C   UNL     1       6.086  16.010  22.979  0.00  0.00    +0.000 C 
ATOM      9  S   UNL     1       4.806  17.152  23.233  0.00  0.00    +0.000 S 
ATOM     10  C   UNL     1       5.630  17.867  24.604  0.00  0.00    +0.000 C 
ATOM     11  O   UNL     1       5.116  18.631  25.401  0.00  0.00    +0.000 OA
ATOM     12  N   UNL     1       6.904  17.410  24.659  0.00  0.00    +0.000 N 
ATOM     13  C   UNL     1       7.263  16.395  23.823  0.00  0.00    +0.000 C 
ATOM     14  O   UNL     1       8.366  15.879  23.827  0.00  0.00    +0.000 OA
ATOM     15  H   UNL     1       7.536  17.711  25.387  0.00  0.00    +0.000 HD
ENDBRANCH   2   7
BRANCH   1  20
ATOM     16  C   UNL     1       7.292  16.285  18.559  0.00  0.00    +0.000 C 
ATOM     17  C   UNL     1       8.479  17.243  18.735  0.00  0.00    +0.000 C 
ATOM     18  C   UNL     1       9.075  17.166  20.145  0.00  0.00    +0.000 C 
ATOM     19  C   UNL     1       9.402  15.725  20.541  0.00  0.00    +0.000 C 
ATOM     20  N   UNL     1       8.216  14.872  20.377  0.00  0.00    +0.000 N 
ATOM     21  C   UNL     1       7.725  14.850  18.980  0.00  0.00    +0.000 C 
BRANCH  16  22
ATOM     22  N   UNL     1       6.148  16.767  19.353  0.00  0.00    +0.000 NA
ATOM     23  H   UNL     1       5.541  17.345  18.776  0.00  0.00    +0.000 HD
ATOM     24  H   UNL     1       6.528  17.385  20.075  0.00  0.00    +0.000 HD
ENDBRANCH  16  22
ENDBRANCH   1  20
BRANCH   6  25
ATOM     25  C   UNL     1       9.791  12.155  20.166  0.00  0.00    +0.000 A 
ATOM     26  C   UNL     1       9.425  11.667  18.904  0.00  0.00    +0.000 A 
ATOM     27  C   UNL     1      10.373  11.425  17.904  0.00  0.00    +0.000 A 
ATOM     28  C   UNL     1      11.730  11.533  18.186  0.00  0.00    +0.000 A 
ATOM     29  C   UNL     1      12.134  11.889  19.466  0.00  0.00    +0.000 A 
ATOM     30  C   UNL     1      11.178  12.223  20.431  0.00  0.00    +0.000 A 
ENDBRANCH   6  25
TORSDOF 4
ENDMDL
MODEL 6
REMARK VINA RESULT:      -5.7      8.039     10.439
REMARK  Name = 
REMARK  4 active torsions:
REMARK  status: ('A' for Active; 'I' for Inactive)
REMARK    1  A    between atoms: N_1  and  C_2
REMARK    2  A    between atoms: N_6  and  C_7
REMARK    3  A    between atoms: C_8  and  C_9
REMARK    4  A    between atoms: C_20  and  C_21
REMARK                            x       y       z     vdW  Elec       q    Type
REMARK                         _______ _______ _______ _____ _____    ______ ____
ROOT
ATOM      1  C   UNL     1      -1.344  14.520  21.366  0.00  0.00    +0.000 A 
ATOM      2  C   UNL     1      -0.373  15.505  20.946  0.00  0.00    +0.000 A 
ATOM      3  C   UNL     1      -0.145  16.694  21.659  0.00  0.00    +0.000 A 
ATOM      4  C   UNL     1      -0.925  17.011  22.749  0.00  0.00    +0.000 A 
ATOM      5  C   UNL     1      -1.946  16.145  23.113  0.00  0.00    +0.000 A 
ATOM      6  C   UNL     1      -2.187  14.898  22.468  0.00  0.00    +0.000 A 
ENDROOT
BRANCH   2   7
ATOM      7  C   UNL     1       0.428  15.412  19.709  0.00  0.00    +0.000 C 
ATOM      8  C   UNL     1       1.681  14.932  19.708  0.00  0.00    +0.000 C 
ATOM      9  S   UNL     1       2.724  15.003  18.323  0.00  0.00    +0.000 S 
ATOM     10  C   UNL     1       4.154  14.781  19.311  0.00  0.00    +0.000 C 
ATOM     11  O   UNL     1       5.296  14.964  18.929  0.00  0.00    +0.000 OA
ATOM     12  N   UNL     1       3.790  14.418  20.565  0.00  0.00    +0.000 N 
ATOM     13  C   UNL     1       2.469  14.466  20.894  0.00  0.00    +0.000 C 
ATOM     14  O   UNL     1       2.044  14.209  22.005  0.00  0.00    +0.000 OA
ATOM     15  H   UNL     1       4.483  14.246  21.280  0.00  0.00    +0.000 HD
ENDBRANCH   2   7
BRANCH   1  20
ATOM     16  C   UNL     1      -2.004  11.939  18.746  0.00  0.00    +0.000 C 
ATOM     17  C   UNL     1      -1.223  10.740  19.302  0.00  0.00    +0.000 C 
ATOM     18  C   UNL     1      -0.104  11.175  20.255  0.00  0.00    +0.000 C 
ATOM     19  C   UNL     1      -0.625  12.111  21.346  0.00  0.00    +0.000 C 
ATOM     20  N   UNL     1      -1.333  13.249  20.743  0.00  0.00    +0.000 N 
ATOM     21  C   UNL     1      -2.495  12.825  19.929  0.00  0.00    +0.000 C 
BRANCH  16  22
ATOM     22  N   UNL     1      -1.148  12.695  17.815  0.00  0.00    +0.000 NA
ATOM     23  H   UNL     1      -0.912  13.601  18.213  0.00  0.00    +0.000 HD
ATOM     24  H   UNL     1      -1.712  12.888  16.983  0.00  0.00    +0.000 HD
ENDBRANCH  16  22
ENDBRANCH   1  20
BRANCH   6  25
ATOM     25  C   UNL     1      -3.355  14.118  22.993  0.00  0.00    +0.000 A 
ATOM     26  C   UNL     1      -3.205  13.065  23.907  0.00  0.00    +0.000 A 
ATOM     27  C   UNL     1      -4.309  12.426  24.482  0.00  0.00    +0.000 A 
ATOM     28  C   UNL     1      -5.596  12.732  24.053  0.00  0.00    +0.000 A 
ATOM     29  C   UNL     1      -5.774  13.680  23.054  0.00  0.00    +0.000 A 
ATOM     30  C   UNL     1      -4.673  14.381  22.554  0.00  0.00    +0.000 A 
ENDBRANCH   6  25
TORSDOF 4
ENDMDL
MODEL 7
REMARK VINA RESULT:      -5.6      8.558     11.240
REMARK  Name = 
REMARK  4 active torsions:
REMARK  status: ('A' for Active; 'I' for Inactive)
REMARK    1  A    between atoms: N_1  and  C_2
REMARK    2  A    between atoms: N_6  and  C_7
REMARK    3  A    between atoms: C_8  and  C_9
REMARK    4  A    between atoms: C_20  and  C_21
REMARK                            x       y       z     vdW  Elec       q    Type
REMARK                         _______ _______ _______ _____ _____    ______ ____
ROOT
ATOM      1  C   UNL     1      -0.245  13.391  20.185  0.00  0.00    +0.000 A 
ATOM      2  C   UNL     1      -1.336  12.446  20.262  0.00  0.00    +0.000 A 
ATOM      3  C   UNL     1      -1.151  11.062  20.093  0.00  0.00    +0.000 A 
ATOM      4  C   UNL     1       0.084  10.564  19.744  0.00  0.00    +0.000 A 
ATOM      5  C   UNL     1       1.132  11.454  19.546  0.00  0.00    +0.000 A 
ATOM      6  C   UNL     1       1.022  12.858  19.761  0.00  0.00    +0.000 A 
ENDROOT
BRANCH   2   7
ATOM      7  C   UNL     1      -2.751  12.819  20.456  0.00  0.00    +0.000 C 
ATOM      8  C   UNL     1      -3.315  12.860  21.672  0.00  0.00    +0.000 C 
ATOM      9  S   UNL     1      -5.017  13.085  21.923  0.00  0.00    +0.000 S 
ATOM     10  C   UNL     1      -4.928  12.430  23.545  0.00  0.00    +0.000 C 
ATOM     11  O   UNL     1      -5.892  12.101  24.214  0.00  0.00    +0.000 OA
ATOM     12  N   UNL     1      -3.631  12.311  23.919  0.00  0.00    +0.000 N 
ATOM     13  C   UNL     1      -2.667  12.518  22.979  0.00  0.00    +0.000 C 
ATOM     14  O   UNL     1      -1.477  12.386  23.198  0.00  0.00    +0.000 OA
ATOM     15  H   UNL     1      -3.381  11.947  24.828  0.00  0.00    +0.000 HD
ENDBRANCH   2   7
BRANCH   1  20
ATOM     16  C   UNL     1      -1.523  16.899  20.071  0.00  0.00    +0.000 C 
ATOM     17  C   UNL     1      -1.134  17.408  21.467  0.00  0.00    +0.000 C 
ATOM     18  C   UNL     1      -0.965  16.260  22.469  0.00  0.00    +0.000 C 
ATOM     19  C   UNL     1      -0.020  15.181  21.936  0.00  0.00    +0.000 C 
ATOM     20  N   UNL     1      -0.469  14.721  20.614  0.00  0.00    +0.000 N 
ATOM     21  C   UNL     1      -0.504  15.815  19.616  0.00  0.00    +0.000 C 
BRANCH  16  22
ATOM     22  N   UNL     1      -2.901  16.377  20.104  0.00  0.00    +0.000 NA
ATOM     23  H   UNL     1      -2.978  15.555  19.510  0.00  0.00    +0.000 HD
ATOM     24  H   UNL     1      -3.499  17.092  19.681  0.00  0.00    +0.000 HD
ENDBRANCH  16  22
ENDBRANCH   1  20
BRANCH   6  25
ATOM     25  C   UNL     1       2.259  13.651  19.467  0.00  0.00    +0.000 A 
ATOM     26  C   UNL     1       2.621  14.025  18.166  0.00  0.00    +0.000 A 
ATOM     27  C   UNL     1       3.710  14.868  17.916  0.00  0.00    +0.000 A 
ATOM     28  C   UNL     1       4.552  15.247  18.956  0.00  0.00    +0.000 A 
ATOM     29  C   UNL     1       4.299  14.788  20.241  0.00  0.00    +0.000 A 
ATOM     30  C   UNL     1       3.154  14.026  20.496  0.00  0.00    +0.000 A 
ENDBRANCH   6  25
TORSDOF 4
ENDMDL
MODEL 8
REMARK VINA RESULT:      -5.6      9.887     12.233
REMARK  Name = 
REMARK  4 active torsions:
REMARK  status: ('A' for Active; 'I' for Inactive)
REMARK    1  A    between atoms: N_1  and  C_2
REMARK    2  A    between atoms: N_6  and  C_7
REMARK    3  A    between atoms: C_8  and  C_9
REMARK    4  A    between atoms: C_20  and  C_21
REMARK                            x       y       z     vdW  Elec       q    Type
REMARK                         _______ _______ _______ _____ _____    ______ ____
ROOT
ATOM      1  C   UNL     1      -3.260  12.269  19.837  0.00  0.00    +0.000 A 
ATOM      2  C   UNL     1      -2.401  11.541  18.931  0.00  0.00    +0.000 A 
ATOM      3  C   UNL     1      -2.810  11.166  17.639  0.00  0.00    +0.000 A 
ATOM      4  C   UNL     1      -4.102  11.399  17.224  0.00  0.00    +0.000 A 
ATOM      5  C   UNL     1      -4.991  11.990  18.110  0.00  0.00    +0.000 A 
ATOM      6  C   UNL     1      -4.622  12.447  19.408  0.00  0.00    +0.000 A 
ENDROOT
BRANCH   2   7
ATOM      7  C   UNL     1      -1.048  11.058  19.270  0.00  0.00    +0.000 C 
ATOM      8  C   UNL     1       0.046  11.808  19.069  0.00  0.00    +0.000 C 
ATOM      9  S   UNL     1       1.661  11.202  19.255  0.00  0.00    +0.000 S 
ATOM     10  C   UNL     1       2.326  12.498  18.283  0.00  0.00    +0.000 C 
ATOM     11  O   UNL     1       3.459  12.517  17.834  0.00  0.00    +0.000 OA
ATOM     12  N   UNL     1       1.381  13.446  18.077  0.00  0.00    +0.000 N 
ATOM     13  C   UNL     1       0.102  13.177  18.461  0.00  0.00    +0.000 C 
ATOM     14  O   UNL     1      -0.830  13.938  18.276  0.00  0.00    +0.000 OA
ATOM     15  H   UNL     1       1.581  14.274  17.533  0.00  0.00    +0.000 HD
ENDBRANCH   2   7
BRANCH   1  20
ATOM     16  C   UNL     1      -1.700  12.346  23.230  0.00  0.00    +0.000 C 
ATOM     17  C   UNL     1      -1.367  13.838  23.376  0.00  0.00    +0.000 C 
ATOM     18  C   UNL     1      -1.235  14.531  22.014  0.00  0.00    +0.000 C 
ATOM     19  C   UNL     1      -2.453  14.270  21.128  0.00  0.00    +0.000 C 
ATOM     20  N   UNL     1      -2.694  12.824  21.009  0.00  0.00    +0.000 N 
ATOM     21  C   UNL     1      -2.951  12.184  22.320  0.00  0.00    +0.000 C 
BRANCH  16  22
ATOM     22  N   UNL     1      -0.531  11.632  22.687  0.00  0.00    +0.000 NA
ATOM     23  H   UNL     1       0.326  12.000  23.096  0.00  0.00    +0.000 HD
ATOM     24  H   UNL     1      -0.487  11.852  21.688  0.00  0.00    +0.000 HD
ENDBRANCH  16  22
ENDBRANCH   1  20
BRANCH   6  25
ATOM     25  C   UNL     1      -5.734  13.036  20.223  0.00  0.00    +0.000 A 
ATOM     26  C   UNL     1      -6.099  14.386  20.131  0.00  0.00    +0.000 A 
ATOM     27  C   UNL     1      -7.215  14.895  20.804  0.00  0.00    +0.000 A 
ATOM     28  C   UNL     1      -7.916  14.095  21.699  0.00  0.00    +0.000 A 
ATOM     29  C   UNL     1      -7.503  12.787  21.913  0.00  0.00    +0.000 A 
ATOM     30  C   UNL     1      -6.446  12.259  21.165  0.00  0.00    +0.000 A 
ENDBRANCH   6  25
TORSDOF 4
ENDMDL
MODEL 9
REMARK VINA RESULT:      -5.6      9.447     11.773
REMARK  Name = 
REMARK  4 active torsions:
REMARK  status: ('A' for Active; 'I' for Inactive)
REMARK    1  A    between atoms: N_1  and  C_2
REMARK    2  A    between atoms: N_6  and  C_7
REMARK    3  A    between atoms: C_8  and  C_9
REMARK    4  A    between atoms: C_20  and  C_21
REMARK                            x       y       z     vdW  Elec       q    Type
REMARK                         _______ _______ _______ _____ _____    ______ ____
ROOT
ATOM      1  C   UNL     1      -2.730  12.709  20.084  0.00  0.00    +0.000 A 
ATOM      2  C   UNL     1      -1.528  12.148  19.509  0.00  0.00    +0.000 A 
ATOM      3  C   UNL     1      -1.527  11.460  18.283  0.00  0.00    +0.000 A 
ATOM      4  C   UNL     1      -2.710  11.208  17.627  0.00  0.00    +0.000 A 
ATOM      5  C   UNL     1      -3.899  11.629  18.207  0.00  0.00    +0.000 A 
ATOM      6  C   UNL     1      -3.961  12.382  19.414  0.00  0.00    +0.000 A 
ENDROOT
BRANCH   2   7
ATOM      7  C   UNL     1      -0.203  12.173  20.159  0.00  0.00    +0.000 C 
ATOM      8  C   UNL     1       0.678  13.161  19.939  0.00  0.00    +0.000 C 
ATOM      9  S   UNL     1       2.315  13.118  20.512  0.00  0.00    +0.000 S 
ATOM     10  C   UNL     1       2.818  14.332  19.354  0.00  0.00    +0.000 C 
ATOM     11  O   UNL     1       3.977  14.601  19.089  0.00  0.00    +0.000 OA
ATOM     12  N   UNL     1       1.727  14.891  18.775  0.00  0.00    +0.000 N 
ATOM     13  C   UNL     1       0.509  14.332  19.020  0.00  0.00    +0.000 C 
ATOM     14  O   UNL     1      -0.524  14.725  18.511  0.00  0.00    +0.000 OA
ATOM     15  H   UNL     1       1.820  15.614  18.076  0.00  0.00    +0.000 HD
ENDBRANCH   2   7
BRANCH   1  20
ATOM     16  C   UNL     1      -1.961  13.832  23.563  0.00  0.00    +0.000 C 
ATOM     17  C   UNL     1      -2.155  15.350  23.440  0.00  0.00    +0.000 C 
ATOM     18  C   UNL     1      -1.990  15.834  21.994  0.00  0.00    +0.000 C 
ATOM     19  C   UNL     1      -2.867  15.035  21.029  0.00  0.00    +0.000 C 
ATOM     20  N   UNL     1      -2.607  13.596  21.180  0.00  0.00    +0.000 N 
ATOM     21  C   UNL     1      -2.896  13.110  22.549  0.00  0.00    +0.000 C 
BRANCH  16  22
ATOM     22  N   UNL     1      -0.544  13.497  23.336  0.00  0.00    +0.000 NA
ATOM     23  H   UNL     1      -0.263  12.732  23.947  0.00  0.00    +0.000 HD
ATOM     24  H   UNL     1       0.004  14.311  23.630  0.00  0.00    +0.000 HD
ENDBRANCH  16  22
ENDBRANCH   1  20
BRANCH   6  25
ATOM     25  C   UNL     1      -5.341  12.719  19.891  0.00  0.00    +0.000 A 
ATOM     26  C   UNL     1      -5.935  12.077  20.987  0.00  0.00    +0.000 A 
ATOM     27  C   UNL     1      -7.173  12.484  21.497  0.00  0.00    +0.000 A 
ATOM     28  C   UNL     1      -7.916  13.456  20.837  0.00  0.00    +0.000 A 
ATOM     29  C   UNL     1      -7.415  14.023  19.672  0.00  0.00    +0.000 A 
ATOM     30  C   UNL     1      -6.136  13.679  19.224  0.00  0.00    +0.000 A 
ENDBRANCH   6  25
TORSDOF 4
ENDMDL
