MODEL 1
REMARK VINA RESULT:      -7.3      0.000      0.000
REMARK  Name = 
REMARK  11 active torsions:
REMARK  status: ('A' for Active; 'I' for Inactive)
REMARK    1  A    between atoms: C_1  and  C_2
REMARK    2  A    between atoms: C_2  and  O_3
REMARK    3  A    between atoms: O_3  and  C_4
REMARK    4  A    between atoms: C_4  and  C_6
REMARK    5  A    between atoms: C_8  and  O_9
REMARK    6  A    between atoms: O_9  and  C_10
REMARK    7  A    between atoms: C_10  and  C_11
REMARK    8  A    between atoms: C_16  and  O_17
REMARK    9  A    between atoms: O_17  and  C_18
REMARK   10  A    between atoms: C_19  and  O_20
REMARK   11  A    between atoms: O_20  and  C_21
REMARK                            x       y       z     vdW  Elec       q    Type
REMARK                         _______ _______ _______ _____ _____    ______ ____
ROOT
ATOM      1  C   UNL     1       2.663   6.840  18.289  0.00  0.00    +0.000 A 
ATOM      2  C   UNL     1       2.003   5.617  18.182  0.00  0.00    +0.000 A 
ATOM      3  C   UNL     1       2.646   4.545  17.576  0.00  0.00    +0.000 A 
ATOM      4  C   UNL     1       3.929   4.688  16.994  0.00  0.00    +0.000 A 
ATOM      5  C   UNL     1       4.571   3.617  16.362  0.00  0.00    +0.000 A 
ATOM      6  C   UNL     1       5.813   3.770  15.750  0.00  0.00    +0.000 A 
ATOM      7  C   UNL     1       6.475   4.999  15.755  0.00  0.00    +0.000 A 
ATOM      8  C   UNL     1       5.873   6.096  16.408  0.00  0.00    +0.000 A 
ATOM      9  C   UNL     1       4.594   5.946  17.038  0.00  0.00    +0.000 A 
ATOM     10  C   UNL     1       3.936   7.000  17.723  0.00  0.00    +0.000 A 
ENDROOT
BRANCH   1  11
ATOM     11  C   UNL     1       2.087   7.949  19.101  0.00  0.00    +0.000 C 
ATOM     12  O   UNL     1       1.881   7.878  20.303  0.00  0.00    +0.000 OA
BRANCH  11  13
ATOM     13  O   UNL     1       1.698   8.957  18.283  0.00  0.00    +0.000 OA
BRANCH  13  15
ATOM     14  C   UNL     1      -0.330  10.206  18.394  0.00  0.00    +0.000 C 
ATOM     15  C   UNL     1       1.088  10.085  18.925  0.00  0.00    +0.000 C 
ENDBRANCH  13  15
ENDBRANCH  11  13
ENDBRANCH   1  11
BRANCH   7  16
ATOM     16  O   UNL     1       7.651   5.174  15.074  0.00  0.00    +0.000 OA
ATOM     17  C   UNL     1       7.604   5.084  13.654  0.00  0.00    +0.000 C 
ENDBRANCH   7  16
BRANCH   8  18
ATOM     18  O   UNL     1       6.407   7.365  16.519  0.00  0.00    +0.000 OA
ATOM     19  C   UNL     1       7.461   7.614  17.440  0.00  0.00    +0.000 C 
ENDBRANCH   8  18
BRANCH   3  20
ATOM     20  O   UNL     1       2.063   3.235  17.545  0.00  0.00    +0.000 OA
BRANCH  20  21
ATOM     21  C   UNL     1       1.478   2.533  18.605  0.00  0.00    +0.000 C 
ATOM     22  C   UNL     1       2.503   2.291  19.674  0.00  0.00    +0.000 C 
ATOM     23  O   UNL     1       0.306   2.199  18.710  0.00  0.00    +0.000 OA
ENDBRANCH  20  21
ENDBRANCH   3  20
TORSDOF 7
ENDMDL
MODEL 2
REMARK VINA RESULT:      -7.2      0.866      1.283
REMARK  Name = 
REMARK  11 active torsions:
REMARK  status: ('A' for Active; 'I' for Inactive)
REMARK    1  A    between atoms: C_1  and  C_2
REMARK    2  A    between atoms: C_2  and  O_3
REMARK    3  A    between atoms: O_3  and  C_4
REMARK    4  A    between atoms: C_4  and  C_6
REMARK    5  A    between atoms: C_8  and  O_9
REMARK    6  A    between atoms: O_9  and  C_10
REMARK    7  A    between atoms: C_10  and  C_11
REMARK    8  A    between atoms: C_16  and  O_17
REMARK    9  A    between atoms: O_17  and  C_18
REMARK   10  A    between atoms: C_19  and  O_20
REMARK   11  A    between atoms: O_20  and  C_21
REMARK                            x       y       z     vdW  Elec       q    Type
REMARK                         _______ _______ _______ _____ _____    ______ ____
ROOT
ATOM      1  C   UNL     1       2.622   6.892  18.280  0.00  0.00    +0.000 A 
ATOM      2  C   UNL     1       1.954   5.672  18.180  0.00  0.00    +0.000 A 
ATOM      3  C   UNL     1       2.596   4.589  17.593  0.00  0.00    +0.000 A 
ATOM      4  C   UNL     1       3.886   4.716  17.024  0.00  0.00    +0.000 A 
ATOM      5  C   UNL     1       4.527   3.633  16.411  0.00  0.00    +0.000 A 
ATOM      6  C   UNL     1       5.777   3.770  15.812  0.00  0.00    +0.000 A 
ATOM      7  C   UNL     1       6.449   4.994  15.811  0.00  0.00    +0.000 A 
ATOM      8  C   UNL     1       5.847   6.102  16.444  0.00  0.00    +0.000 A 
ATOM      9  C   UNL     1       4.560   5.969  17.062  0.00  0.00    +0.000 A 
ATOM     10  C   UNL     1       3.903   7.036  17.727  0.00  0.00    +0.000 A 
ENDROOT
BRANCH   1  11
ATOM     11  C   UNL     1       2.045   8.014  19.073  0.00  0.00    +0.000 C 
ATOM     12  O   UNL     1       1.775   9.110  18.606  0.00  0.00    +0.000 OA
BRANCH  11  13
ATOM     13  O   UNL     1       2.020   7.678  20.385  0.00  0.00    +0.000 OA
BRANCH  13  15
ATOM     14  C   UNL     1       1.359   9.092  22.189  0.00  0.00    +0.000 C 
ATOM     15  C   UNL     1       0.874   8.122  21.124  0.00  0.00    +0.000 C 
ENDBRANCH  13  15
ENDBRANCH  11  13
ENDBRANCH   1  11
BRANCH   7  16
ATOM     16  O   UNL     1       7.633   5.152  15.141  0.00  0.00    +0.000 OA
ATOM     17  C   UNL     1       7.595   5.085  13.719  0.00  0.00    +0.000 C 
ENDBRANCH   7  16
BRANCH   8  18
ATOM     18  O   UNL     1       6.389   7.369  16.547  0.00  0.00    +0.000 OA
ATOM     19  C   UNL     1       7.465   7.609  17.444  0.00  0.00    +0.000 C 
ENDBRANCH   8  18
BRANCH   3  20
ATOM     20  O   UNL     1       2.003   3.283  17.570  0.00  0.00    +0.000 OA
BRANCH  20  21
ATOM     21  C   UNL     1       1.464   2.568  18.647  0.00  0.00    +0.000 C 
ATOM     22  C   UNL     1       2.519   2.370  19.695  0.00  0.00    +0.000 C 
ATOM     23  O   UNL     1       0.308   2.193  18.777  0.00  0.00    +0.000 OA
ENDBRANCH  20  21
ENDBRANCH   3  20
TORSDOF 7
ENDMDL
MODEL 3
REMARK VINA RESULT:      -6.8      2.053      6.111
REMARK  Name = 
REMARK  11 active torsions:
REMARK  status: ('A' for Active; 'I' for Inactive)
REMARK    1  A    between atoms: C_1  and  C_2
REMARK    2  A    between atoms: C_2  and  O_3
REMARK    3  A    between atoms: O_3  and  C_4
REMARK    4  A    between atoms: C_4  and  C_6
REMARK    5  A    between atoms: C_8  and  O_9
REMARK    6  A    between atoms: O_9  and  C_10
REMARK    7  A    between atoms: C_10  and  C_11
REMARK    8  A    between atoms: C_16  and  O_17
REMARK    9  A    between atoms: O_17  and  C_18
REMARK   10  A    between atoms: C_19  and  O_20
REMARK   11  A    between atoms: O_20  and  C_21
REMARK                            x       y       z     vdW  Elec       q    Type
REMARK                         _______ _______ _______ _____ _____    ______ ____
ROOT
ATOM      1  C   UNL     1       4.100   6.376  17.695  0.00  0.00    +0.000 A 
ATOM      2  C   UNL     1       3.976   5.514  18.784  0.00  0.00    +0.000 A 
ATOM      3  C   UNL     1       3.059   5.807  19.785  0.00  0.00    +0.000 A 
ATOM      4  C   UNL     1       2.300   7.002  19.764  0.00  0.00    +0.000 A 
ATOM      5  C   UNL     1       1.391   7.311  20.783  0.00  0.00    +0.000 A 
ATOM      6  C   UNL     1       0.678   8.508  20.785  0.00  0.00    +0.000 A 
ATOM      7  C   UNL     1       0.833   9.444  19.760  0.00  0.00    +0.000 A 
ATOM      8  C   UNL     1       1.718   9.154  18.699  0.00  0.00    +0.000 A 
ATOM      9  C   UNL     1       2.457   7.925  18.692  0.00  0.00    +0.000 A 
ATOM     10  C   UNL     1       3.353   7.563  17.654  0.00  0.00    +0.000 A 
ENDROOT
BRANCH   1  11
ATOM     11  C   UNL     1       4.925   5.999  16.513  0.00  0.00    +0.000 C 
ATOM     12  O   UNL     1       5.098   6.722  15.544  0.00  0.00    +0.000 OA
BRANCH  11  13
ATOM     13  O   UNL     1       5.308   4.705  16.621  0.00  0.00    +0.000 OA
BRANCH  13  15
ATOM     14  C   UNL     1       7.502   4.635  17.555  0.00  0.00    +0.000 C 
ATOM     15  C   UNL     1       6.677   4.426  16.296  0.00  0.00    +0.000 C 
ENDBRANCH  13  15
ENDBRANCH  11  13
ENDBRANCH   1  11
BRANCH   7  16
ATOM     16  O   UNL     1       0.205  10.660  19.809  0.00  0.00    +0.000 OA
ATOM     17  C   UNL     1      -1.098  10.748  19.243  0.00  0.00    +0.000 C 
ENDBRANCH   7  16
BRANCH   8  18
ATOM     18  O   UNL     1       1.965   9.963  17.607  0.00  0.00    +0.000 OA
ATOM     19  C   UNL     1       2.475  11.275  17.797  0.00  0.00    +0.000 C 
ENDBRANCH   8  18
BRANCH   3  20
ATOM     20  O   UNL     1       2.806   4.897  20.865  0.00  0.00    +0.000 OA
BRANCH  20  21
ATOM     21  C   UNL     1       2.310   3.590  20.785  0.00  0.00    +0.000 C 
ATOM     22  C   UNL     1       0.993   3.595  20.066  0.00  0.00    +0.000 C 
ATOM     23  O   UNL     1       2.858   2.570  21.177  0.00  0.00    +0.000 OA
ENDBRANCH  20  21
ENDBRANCH   3  20
TORSDOF 7
ENDMDL
MODEL 4
REMARK VINA RESULT:      -6.8      1.668      5.913
REMARK  Name = 
REMARK  11 active torsions:
REMARK  status: ('A' for Active; 'I' for Inactive)
REMARK    1  A    between atoms: C_1  and  C_2
REMARK    2  A    between atoms: C_2  and  O_3
REMARK    3  A    between atoms: O_3  and  C_4
REMARK    4  A    between atoms: C_4  and  C_6
REMARK    5  A    between atoms: C_8  and  O_9
REMARK    6  A    between atoms: O_9  and  C_10
REMARK    7  A    between atoms: C_10  and  C_11
REMARK    8  A    between atoms: C_16  and  O_17
REMARK    9  A    between atoms: O_17  and  C_18
REMARK   10  A    between atoms: C_19  and  O_20
REMARK   11  A    between atoms: O_20  and  C_21
REMARK                            x       y       z     vdW  Elec       q    Type
REMARK                         _______ _______ _______ _____ _____    ______ ____
ROOT
ATOM      1  C   UNL     1       4.640   5.875  17.113  0.00  0.00    +0.000 A 
ATOM      2  C   UNL     1       4.593   4.650  17.777  0.00  0.00    +0.000 A 
ATOM      3  C   UNL     1       3.728   4.489  18.852  0.00  0.00    +0.000 A 
ATOM      4  C   UNL     1       2.946   5.566  19.337  0.00  0.00    +0.000 A 
ATOM      5  C   UNL     1       2.090   5.414  20.433  0.00  0.00    +0.000 A 
ATOM      6  C   UNL     1       1.356   6.484  20.938  0.00  0.00    +0.000 A 
ATOM      7  C   UNL     1       1.435   7.753  20.360  0.00  0.00    +0.000 A 
ATOM      8  C   UNL     1       2.266   7.938  19.234  0.00  0.00    +0.000 A 
ATOM      9  C   UNL     1       3.026   6.841  18.711  0.00  0.00    +0.000 A 
ATOM     10  C   UNL     1       3.870   6.952  17.575  0.00  0.00    +0.000 A 
ENDROOT
BRANCH   1  11
ATOM     11  C   UNL     1       5.406   6.026  15.843  0.00  0.00    +0.000 C 
ATOM     12  O   UNL     1       5.179   6.889  15.009  0.00  0.00    +0.000 OA
BRANCH  11  13
ATOM     13  O   UNL     1       6.261   4.985  15.702  0.00  0.00    +0.000 OA
BRANCH  13  15
ATOM     14  C   UNL     1       5.955   3.849  13.627  0.00  0.00    +0.000 C 
ATOM     15  C   UNL     1       6.836   4.818  14.399  0.00  0.00    +0.000 C 
ENDBRANCH  13  15
ENDBRANCH  11  13
ENDBRANCH   1  11
BRANCH   7  16
ATOM     16  O   UNL     1       0.787   8.826  20.913  0.00  0.00    +0.000 OA
ATOM     17  C   UNL     1      -0.364   8.558  21.707  0.00  0.00    +0.000 C 
ENDBRANCH   7  16
BRANCH   8  18
ATOM     18  O   UNL     1       2.436   9.120  18.540  0.00  0.00    +0.000 OA
ATOM     19  C   UNL     1       1.338   9.699  17.845  0.00  0.00    +0.000 C 
ENDBRANCH   8  18
BRANCH   3  20
ATOM     20  O   UNL     1       3.552   3.219  19.495  0.00  0.00    +0.000 OA
BRANCH  20  21
ATOM     21  C   UNL     1       3.038   2.042  18.939  0.00  0.00    +0.000 C 
ATOM     22  C   UNL     1       1.540   2.112  18.911  0.00  0.00    +0.000 C 
ATOM     23  O   UNL     1       3.675   1.103  18.484  0.00  0.00    +0.000 OA
ENDBRANCH  20  21
ENDBRANCH   3  20
TORSDOF 7
ENDMDL
MODEL 5
REMARK VINA RESULT:      -6.8      2.086      5.924
REMARK  Name = 
REMARK  11 active torsions:
REMARK  status: ('A' for Active; 'I' for Inactive)
REMARK    1  A    between atoms: C_1  and  C_2
REMARK    2  A    between atoms: C_2  and  O_3
REMARK    3  A    between atoms: O_3  and  C_4
REMARK    4  A    between atoms: C_4  and  C_6
REMARK    5  A    between atoms: C_8  and  O_9
REMARK    6  A    between atoms: O_9  and  C_10
REMARK    7  A    between atoms: C_10  and  C_11
REMARK    8  A    between atoms: C_16  and  O_17
REMARK    9  A    between atoms: O_17  and  C_18
REMARK   10  A    between atoms: C_19  and  O_20
REMARK   11  A    between atoms: O_20  and  C_21
REMARK                            x       y       z     vdW  Elec       q    Type
REMARK                         _______ _______ _______ _____ _____    ______ ____
ROOT
ATOM      1  C   UNL     1       4.166   6.394  17.655  0.00  0.00    +0.000 A 
ATOM      2  C   UNL     1       4.047   5.511  18.727  0.00  0.00    +0.000 A 
ATOM      3  C   UNL     1       3.117   5.770  19.726  0.00  0.00    +0.000 A 
ATOM      4  C   UNL     1       2.339   6.953  19.719  0.00  0.00    +0.000 A 
ATOM      5  C   UNL     1       1.417   7.230  20.736  0.00  0.00    +0.000 A 
ATOM      6  C   UNL     1       0.685   8.414  20.753  0.00  0.00    +0.000 A 
ATOM      7  C   UNL     1       0.832   9.371  19.746  0.00  0.00    +0.000 A 
ATOM      8  C   UNL     1       1.731   9.114  18.688  0.00  0.00    +0.000 A 
ATOM      9  C   UNL     1       2.490   7.898  18.666  0.00  0.00    +0.000 A 
ATOM     10  C   UNL     1       3.400   7.569  17.628  0.00  0.00    +0.000 A 
ENDROOT
BRANCH   1  11
ATOM     11  C   UNL     1       5.007   6.052  16.473  0.00  0.00    +0.000 C 
ATOM     12  O   UNL     1       4.848   5.051  15.791  0.00  0.00    +0.000 OA
BRANCH  11  13
ATOM     13  O   UNL     1       6.039   6.924  16.382  0.00  0.00    +0.000 OA
BRANCH  13  15
ATOM     14  C   UNL     1       7.766   7.988  17.637  0.00  0.00    +0.000 C 
ATOM     15  C   UNL     1       7.165   6.654  17.229  0.00  0.00    +0.000 C 
ENDBRANCH  13  15
ENDBRANCH  11  13
ENDBRANCH   1  11
BRANCH   7  16
ATOM     16  O   UNL     1       0.184  10.575  19.812  0.00  0.00    +0.000 OA
ATOM     17  C   UNL     1      -1.105  10.659  19.212  0.00  0.00    +0.000 C 
ENDBRANCH   7  16
BRANCH   8  18
ATOM     18  O   UNL     1       1.973   9.946  17.612  0.00  0.00    +0.000 OA
ATOM     19  C   UNL     1       2.443  11.270  17.831  0.00  0.00    +0.000 C 
ENDBRANCH   8  18
BRANCH   3  20
ATOM     20  O   UNL     1       2.870   4.838  20.787  0.00  0.00    +0.000 OA
BRANCH  20  21
ATOM     21  C   UNL     1       2.513   3.489  20.675  0.00  0.00    +0.000 C 
ATOM     22  C   UNL     1       1.025   3.375  20.513  0.00  0.00    +0.000 C 
ATOM     23  O   UNL     1       3.267   2.526  20.654  0.00  0.00    +0.000 OA
ENDBRANCH  20  21
ENDBRANCH   3  20
TORSDOF 7
ENDMDL
MODEL 6
REMARK VINA RESULT:      -6.7      1.634      5.703
REMARK  Name = 
REMARK  11 active torsions:
REMARK  status: ('A' for Active; 'I' for Inactive)
REMARK    1  A    between atoms: C_1  and  C_2
REMARK    2  A    between atoms: C_2  and  O_3
REMARK    3  A    between atoms: O_3  and  C_4
REMARK    4  A    between atoms: C_4  and  C_6
REMARK    5  A    between atoms: C_8  and  O_9
REMARK    6  A    between atoms: O_9  and  C_10
REMARK    7  A    between atoms: C_10  and  C_11
REMARK    8  A    between atoms: C_16  and  O_17
REMARK    9  A    between atoms: O_17  and  C_18
REMARK   10  A    between atoms: C_19  and  O_20
REMARK   11  A    between atoms: O_20  and  C_21
REMARK                            x       y       z     vdW  Elec       q    Type
REMARK                         _______ _______ _______ _____ _____    ______ ____
ROOT
ATOM      1  C   UNL     1       4.597   5.837  17.243  0.00  0.00    +0.000 A 
ATOM      2  C   UNL     1       4.506   4.614  17.906  0.00  0.00    +0.000 A 
ATOM      3  C   UNL     1       3.606   4.470  18.954  0.00  0.00    +0.000 A 
ATOM      4  C   UNL     1       2.832   5.563  19.416  0.00  0.00    +0.000 A 
ATOM      5  C   UNL     1       1.940   5.428  20.486  0.00  0.00    +0.000 A 
ATOM      6  C   UNL     1       1.213   6.514  20.969  0.00  0.00    +0.000 A 
ATOM      7  C   UNL     1       1.334   7.780  20.393  0.00  0.00    +0.000 A 
ATOM      8  C   UNL     1       2.202   7.948  19.292  0.00  0.00    +0.000 A 
ATOM      9  C   UNL     1       2.955   6.836  18.792  0.00  0.00    +0.000 A 
ATOM     10  C   UNL     1       3.835   6.929  17.682  0.00  0.00    +0.000 A 
ENDROOT
BRANCH   1  11
ATOM     11  C   UNL     1       5.404   5.971  15.997  0.00  0.00    +0.000 C 
ATOM     12  O   UNL     1       5.307   5.219  15.039  0.00  0.00    +0.000 OA
BRANCH  11  13
ATOM     13  O   UNL     1       6.338   6.937  16.162  0.00  0.00    +0.000 OA
BRANCH  13  15
ATOM     14  C   UNL     1       7.814   8.017  17.694  0.00  0.00    +0.000 C 
ATOM     15  C   UNL     1       7.339   6.677  17.157  0.00  0.00    +0.000 C 
ENDBRANCH  13  15
ENDBRANCH  11  13
ENDBRANCH   1  11
BRANCH   7  16
ATOM     16  O   UNL     1       0.692   8.866  20.926  0.00  0.00    +0.000 OA
ATOM     17  C   UNL     1      -0.364   8.615  21.848  0.00  0.00    +0.000 C 
ENDBRANCH   7  16
BRANCH   8  18
ATOM     18  O   UNL     1       2.416   9.126  18.603  0.00  0.00    +0.000 OA
ATOM     19  C   UNL     1       1.360   9.709  17.851  0.00  0.00    +0.000 C 
ENDBRANCH   8  18
BRANCH   3  20
ATOM     20  O   UNL     1       3.386   3.205  19.592  0.00  0.00    +0.000 OA
BRANCH  20  21
ATOM     21  C   UNL     1       2.931   2.018  19.005  0.00  0.00    +0.000 C 
ATOM     22  C   UNL     1       1.433   2.043  18.918  0.00  0.00    +0.000 C 
ATOM     23  O   UNL     1       3.614   1.103  18.568  0.00  0.00    +0.000 OA
ENDBRANCH  20  21
ENDBRANCH   3  20
TORSDOF 7
ENDMDL
MODEL 7
REMARK VINA RESULT:      -6.7      1.748      6.237
REMARK  Name = 
REMARK  11 active torsions:
REMARK  status: ('A' for Active; 'I' for Inactive)
REMARK    1  A    between atoms: C_1  and  C_2
REMARK    2  A    between atoms: C_2  and  O_3
REMARK    3  A    between atoms: O_3  and  C_4
REMARK    4  A    between atoms: C_4  and  C_6
REMARK    5  A    between atoms: C_8  and  O_9
REMARK    6  A    between atoms: O_9  and  C_10
REMARK    7  A    between atoms: C_10  and  C_11
REMARK    8  A    between atoms: C_16  and  O_17
REMARK    9  A    between atoms: O_17  and  C_18
REMARK   10  A    between atoms: C_19  and  O_20
REMARK   11  A    between atoms: O_20  and  C_21
REMARK                            x       y       z     vdW  Elec       q    Type
REMARK                         _______ _______ _______ _____ _____    ______ ____
ROOT
ATOM      1  C   UNL     1       4.453   6.381  17.069  0.00  0.00    +0.000 A 
ATOM      2  C   UNL     1       3.641   7.445  17.456  0.00  0.00    +0.000 A 
ATOM      3  C   UNL     1       2.806   7.302  18.557  0.00  0.00    +0.000 A 
ATOM      4  C   UNL     1       2.704   6.070  19.249  0.00  0.00    +0.000 A 
ATOM      5  C   UNL     1       1.847   5.915  20.345  0.00  0.00    +0.000 A 
ATOM      6  C   UNL     1       1.714   4.691  20.998  0.00  0.00    +0.000 A 
ATOM      7  C   UNL     1       2.442   3.571  20.592  0.00  0.00    +0.000 A 
ATOM      8  C   UNL     1       3.339   3.697  19.509  0.00  0.00    +0.000 A 
ATOM      9  C   UNL     1       3.480   4.953  18.831  0.00  0.00    +0.000 A 
ATOM     10  C   UNL     1       4.370   5.155  17.745  0.00  0.00    +0.000 A 
ENDROOT
BRANCH   1  11
ATOM     11  C   UNL     1       5.498   6.560  16.021  0.00  0.00    +0.000 C 
ATOM     12  O   UNL     1       5.256   6.857  14.861  0.00  0.00    +0.000 OA
BRANCH  11  13
ATOM     13  O   UNL     1       6.705   6.196  16.517  0.00  0.00    +0.000 OA
BRANCH  13  15
ATOM     14  C   UNL     1       7.830   6.410  18.609  0.00  0.00    +0.000 C 
ATOM     15  C   UNL     1       7.343   7.151  17.375  0.00  0.00    +0.000 C 
ENDBRANCH  13  15
ENDBRANCH  11  13
ENDBRANCH   1  11
BRANCH   7  16
ATOM     16  O   UNL     1       2.242   2.347  21.171  0.00  0.00    +0.000 OA
ATOM     17  C   UNL     1       1.258   2.261  22.197  0.00  0.00    +0.000 C 
ENDBRANCH   7  16
BRANCH   8  18
ATOM     18  O   UNL     1       4.142   2.694  19.002  0.00  0.00    +0.000 OA
ATOM     19  C   UNL     1       3.574   1.666  18.203  0.00  0.00    +0.000 C 
ENDBRANCH   8  18
BRANCH   3  20
ATOM     20  O   UNL     1       2.039   8.399  19.071  0.00  0.00    +0.000 OA
BRANCH  20  21
ATOM     21  C   UNL     1       1.524   9.490  18.360  0.00  0.00    +0.000 C 
ATOM     22  C   UNL     1       0.202   9.892  18.946  0.00  0.00    +0.000 C 
ATOM     23  O   UNL     1       2.058  10.086  17.436  0.00  0.00    +0.000 OA
ENDBRANCH  20  21
ENDBRANCH   3  20
TORSDOF 7
ENDMDL
MODEL 8
REMARK VINA RESULT:      -6.6      2.744      6.962
REMARK  Name = 
REMARK  11 active torsions:
REMARK  status: ('A' for Active; 'I' for Inactive)
REMARK    1  A    between atoms: C_1  and  C_2
REMARK    2  A    between atoms: C_2  and  O_3
REMARK    3  A    between atoms: O_3  and  C_4
REMARK    4  A    between atoms: C_4  and  C_6
REMARK    5  A    between atoms: C_8  and  O_9
REMARK    6  A    between atoms: O_9  and  C_10
REMARK    7  A    between atoms: C_10  and  C_11
REMARK    8  A    between atoms: C_16  and  O_17
REMARK    9  A    between atoms: O_17  and  C_18
REMARK   10  A    between atoms: C_19  and  O_20
REMARK   11  A    between atoms: O_20  and  C_21
REMARK                            x       y       z     vdW  Elec       q    Type
REMARK                         _______ _______ _______ _____ _____    ______ ____
ROOT
ATOM      1  C   UNL     1       5.655   4.691  15.001  0.00  0.00    +0.000 A 
ATOM      2  C   UNL     1       6.156   5.929  15.398  0.00  0.00    +0.000 A 
ATOM      3  C   UNL     1       5.897   6.391  16.682  0.00  0.00    +0.000 A 
ATOM      4  C   UNL     1       5.069   5.666  17.573  0.00  0.00    +0.000 A 
ATOM      5  C   UNL     1       4.787   6.138  18.860  0.00  0.00    +0.000 A 
ATOM      6  C   UNL     1       3.936   5.447  19.720  0.00  0.00    +0.000 A 
ATOM      7  C   UNL     1       3.341   4.244  19.336  0.00  0.00    +0.000 A 
ATOM      8  C   UNL     1       3.625   3.721  18.056  0.00  0.00    +0.000 A 
ATOM      9  C   UNL     1       4.498   4.428  17.165  0.00  0.00    +0.000 A 
ATOM     10  C   UNL     1       4.838   3.955  15.872  0.00  0.00    +0.000 A 
ENDROOT
BRANCH   1  11
ATOM     11  C   UNL     1       6.073   4.077  13.708  0.00  0.00    +0.000 C 
ATOM     12  O   UNL     1       7.159   4.268  13.183  0.00  0.00    +0.000 OA
BRANCH  11  13
ATOM     13  O   UNL     1       5.024   3.421  13.157  0.00  0.00    +0.000 OA
BRANCH  13  15
ATOM     14  C   UNL     1       3.890   3.235  11.067  0.00  0.00    +0.000 C 
ATOM     15  C   UNL     1       5.198   2.989  11.801  0.00  0.00    +0.000 C 
ENDBRANCH  13  15
ENDBRANCH  11  13
ENDBRANCH   1  11
BRANCH   7  16
ATOM     16  O   UNL     1       2.432   3.613  20.143  0.00  0.00    +0.000 OA
ATOM     17  C   UNL     1       1.079   4.051  20.073  0.00  0.00    +0.000 C 
ENDBRANCH   7  16
BRANCH   8  18
ATOM     18  O   UNL     1       3.134   2.538  17.538  0.00  0.00    +0.000 OA
ATOM     19  C   UNL     1       3.538   1.296  18.099  0.00  0.00    +0.000 C 
ENDBRANCH   8  18
BRANCH   3  20
ATOM     20  O   UNL     1       6.485   7.600  17.182  0.00  0.00    +0.000 OA
BRANCH  20  21
ATOM     21  C   UNL     1       7.674   7.737  17.909  0.00  0.00    +0.000 C 
ATOM     22  C   UNL     1       8.156   9.155  17.821  0.00  0.00    +0.000 C 
ATOM     23  O   UNL     1       8.235   6.876  18.571  0.00  0.00    +0.000 OA
ENDBRANCH  20  21
ENDBRANCH   3  20
TORSDOF 7
ENDMDL
MODEL 9
REMARK VINA RESULT:      -6.6      1.861      5.948
REMARK  Name = 
REMARK  11 active torsions:
REMARK  status: ('A' for Active; 'I' for Inactive)
REMARK    1  A    between atoms: C_1  and  C_2
REMARK    2  A    between atoms: C_2  and  O_3
REMARK    3  A    between atoms: O_3  and  C_4
REMARK    4  A    between atoms: C_4  and  C_6
REMARK    5  A    between atoms: C_8  and  O_9
REMARK    6  A    between atoms: O_9  and  C_10
REMARK    7  A    between atoms: C_10  and  C_11
REMARK    8  A    between atoms: C_16  and  O_17
REMARK    9  A    between atoms: O_17  and  C_18
REMARK   10  A    between atoms: C_19  and  O_20
REMARK   11  A    between atoms: O_20  and  C_21
REMARK                            x       y       z     vdW  Elec       q    Type
REMARK                         _______ _______ _______ _____ _____    ______ ____
ROOT
ATOM      1  C   UNL     1       4.455   5.529  16.918  0.00  0.00    +0.000 A 
ATOM      2  C   UNL     1       4.283   4.317  17.585  0.00  0.00    +0.000 A 
ATOM      3  C   UNL     1       3.426   4.253  18.677  0.00  0.00    +0.000 A 
ATOM      4  C   UNL     1       2.781   5.411  19.176  0.00  0.00    +0.000 A 
ATOM      5  C   UNL     1       1.935   5.356  20.289  0.00  0.00    +0.000 A 
ATOM      6  C   UNL     1       1.336   6.502  20.807  0.00  0.00    +0.000 A 
ATOM      7  C   UNL     1       1.547   7.754  20.226  0.00  0.00    +0.000 A 
ATOM      8  C   UNL     1       2.371   7.845  19.083  0.00  0.00    +0.000 A 
ATOM      9  C   UNL     1       2.991   6.670  18.546  0.00  0.00    +0.000 A 
ATOM     10  C   UNL     1       3.819   6.685  17.394  0.00  0.00    +0.000 A 
ENDROOT
BRANCH   1  11
ATOM     11  C   UNL     1       5.207   5.593  15.633  0.00  0.00    +0.000 C 
ATOM     12  O   UNL     1       5.560   6.635  15.102  0.00  0.00    +0.000 OA
BRANCH  11  13
ATOM     13  O   UNL     1       5.291   4.354  15.094  0.00  0.00    +0.000 OA
BRANCH  13  15
ATOM     14  C   UNL     1       5.978   3.612  12.933  0.00  0.00    +0.000 C 
ATOM     15  C   UNL     1       6.453   4.097  14.292  0.00  0.00    +0.000 C 
ENDBRANCH  13  15
ENDBRANCH  11  13
ENDBRANCH   1  11
BRANCH   7  16
ATOM     16  O   UNL     1       1.036   8.892  20.790  0.00  0.00    +0.000 OA
ATOM     17  C   UNL     1       1.250   9.086  22.184  0.00  0.00    +0.000 C 
ENDBRANCH   7  16
BRANCH   8  18
ATOM     18  O   UNL     1       2.659   9.001  18.384  0.00  0.00    +0.000 OA
ATOM     19  C   UNL     1       1.607   9.755  17.796  0.00  0.00    +0.000 C 
ENDBRANCH   8  18
BRANCH   3  20
ATOM     20  O   UNL     1       3.121   3.011  19.325  0.00  0.00    +0.000 OA
BRANCH  20  21
ATOM     21  C   UNL     1       3.801   2.414  20.394  0.00  0.00    +0.000 C 
ATOM     22  C   UNL     1       2.880   2.300  21.573  0.00  0.00    +0.000 C 
ATOM     23  O   UNL     1       4.946   1.987  20.392  0.00  0.00    +0.000 OA
ENDBRANCH  20  21
ENDBRANCH   3  20
TORSDOF 7
ENDMDL
