MODEL 1
REMARK VINA RESULT:      -6.2      0.000      0.000
REMARK  Name = 
REMARK  3 active torsions:
REMARK  status: ('A' for Active; 'I' for Inactive)
REMARK    1  A    between atoms: O_1  and  C_2
REMARK    2  A    between atoms: C_2  and  C_3
REMARK    3  A    between atoms: N_5  and  C_6
REMARK                            x       y       z     vdW  Elec       q    Type
REMARK                         _______ _______ _______ _____ _____    ______ ____
ROOT
ATOM      1  C   UNL     1       6.829   4.624  14.747  0.00  0.00    +0.000 A 
ATOM      2  C   UNL     1       5.546   4.339  15.154  0.00  0.00    +0.000 A 
ATOM      3  N   UNL     1       5.621   4.212  16.519  0.00  0.00    +0.000 N 
ATOM      4  N   UNL     1       6.906   4.395  16.914  0.00  0.00    +0.000 NA
ATOM      5  N   UNL     1       7.646   4.646  15.842  0.00  0.00    +0.000 NA
ENDROOT
BRANCH   3   6
ATOM      6  C   UNL     1       4.580   3.945  17.446  0.00  0.00    +0.000 A 
ATOM      7  C   UNL     1       3.282   3.653  17.004  0.00  0.00    +0.000 A 
ATOM      8  C   UNL     1       2.267   3.398  17.933  0.00  0.00    +0.000 A 
ATOM      9  C   UNL     1       2.547   3.438  19.298  0.00  0.00    +0.000 A 
ATOM     10 BR   UNL     1       1.170   3.097  20.547  0.00  0.00    +0.000 Br
ATOM     11  C   UNL     1       3.832   3.728  19.747  0.00  0.00    +0.000 A 
ATOM     12  C   UNL     1       4.852   3.978  18.823  0.00  0.00    +0.000 A 
ENDBRANCH   3   6
BRANCH   1  13
ATOM     13  C   UNL     1       7.364   4.886  13.390  0.00  0.00    +0.000 C 
BRANCH  13  14
ATOM     14  O   UNL     1       8.445   5.820  13.406  0.00  0.00    +0.000 OA
ATOM     15  H   UNL     1       9.238   5.315  13.652  0.00  0.00    +0.000 HD
ENDBRANCH  13  14
ENDBRANCH   1  13
TORSDOF 3
ENDMDL
MODEL 2
REMARK VINA RESULT:      -6.2      0.244      1.288
REMARK  Name = 
REMARK  3 active torsions:
REMARK  status: ('A' for Active; 'I' for Inactive)
REMARK    1  A    between atoms: O_1  and  C_2
REMARK    2  A    between atoms: C_2  and  C_3
REMARK    3  A    between atoms: N_5  and  C_6
REMARK                            x       y       z     vdW  Elec       q    Type
REMARK                         _______ _______ _______ _____ _____    ______ ____
ROOT
ATOM      1  C   UNL     1       6.869   4.646  14.880  0.00  0.00    +0.000 A 
ATOM      2  C   UNL     1       5.584   4.368  15.289  0.00  0.00    +0.000 A 
ATOM      3  N   UNL     1       5.654   4.275  16.657  0.00  0.00    +0.000 N 
ATOM      4  N   UNL     1       6.938   4.469  17.052  0.00  0.00    +0.000 NA
ATOM      5  N   UNL     1       7.682   4.695  15.977  0.00  0.00    +0.000 NA
ENDROOT
BRANCH   3   6
ATOM      6  C   UNL     1       4.610   4.028  17.586  0.00  0.00    +0.000 A 
ATOM      7  C   UNL     1       4.898   3.700  18.919  0.00  0.00    +0.000 A 
ATOM      8  C   UNL     1       3.856   3.454  19.819  0.00  0.00    +0.000 A 
ATOM      9  C   UNL     1       2.532   3.532  19.390  0.00  0.00    +0.000 A 
ATOM     10 BR   UNL     1       1.129   3.194  20.611  0.00  0.00    +0.000 Br
ATOM     11  C   UNL     1       2.236   3.855  18.069  0.00  0.00    +0.000 A 
ATOM     12  C   UNL     1       3.274   4.108  17.165  0.00  0.00    +0.000 A 
ENDBRANCH   3   6
BRANCH   1  13
ATOM     13  C   UNL     1       7.409   4.876  13.519  0.00  0.00    +0.000 C 
BRANCH  13  14
ATOM     14  O   UNL     1       8.457   5.846  13.511  0.00  0.00    +0.000 OA
ATOM     15  H   UNL     1       8.663   6.033  14.442  0.00  0.00    +0.000 HD
ENDBRANCH  13  14
ENDBRANCH   1  13
TORSDOF 3
ENDMDL
MODEL 3
REMARK VINA RESULT:      -6.1      1.150      1.232
REMARK  Name = 
REMARK  3 active torsions:
REMARK  status: ('A' for Active; 'I' for Inactive)
REMARK    1  A    between atoms: O_1  and  C_2
REMARK    2  A    between atoms: C_2  and  C_3
REMARK    3  A    between atoms: N_5  and  C_6
REMARK                            x       y       z     vdW  Elec       q    Type
REMARK                         _______ _______ _______ _____ _____    ______ ____
ROOT
ATOM      1  C   UNL     1       6.137   4.924  14.913  0.00  0.00    +0.000 A 
ATOM      2  C   UNL     1       5.588   4.007  15.780  0.00  0.00    +0.000 A 
ATOM      3  N   UNL     1       4.832   4.747  16.655  0.00  0.00    +0.000 N 
ATOM      4  N   UNL     1       4.940   6.062  16.337  0.00  0.00    +0.000 NA
ATOM      5  N   UNL     1       5.733   6.177  15.279  0.00  0.00    +0.000 NA
ENDROOT
BRANCH   3   6
ATOM      6  C   UNL     1       4.030   4.299  17.737  0.00  0.00    +0.000 A 
ATOM      7  C   UNL     1       2.650   4.546  17.759  0.00  0.00    +0.000 A 
ATOM      8  C   UNL     1       1.876   4.102  18.837  0.00  0.00    +0.000 A 
ATOM      9  C   UNL     1       2.479   3.418  19.892  0.00  0.00    +0.000 A 
ATOM     10 BR   UNL     1       1.429   2.826  21.347  0.00  0.00    +0.000 Br
ATOM     11  C   UNL     1       3.848   3.169  19.881  0.00  0.00    +0.000 A 
ATOM     12  C   UNL     1       4.627   3.605  18.802  0.00  0.00    +0.000 A 
ENDBRANCH   3   6
BRANCH   1  13
ATOM     13  C   UNL     1       7.026   4.720  13.745  0.00  0.00    +0.000 C 
BRANCH  13  14
ATOM     14  O   UNL     1       8.072   5.691  13.686  0.00  0.00    +0.000 OA
ATOM     15  H   UNL     1       8.471   5.716  14.572  0.00  0.00    +0.000 HD
ENDBRANCH  13  14
ENDBRANCH   1  13
TORSDOF 3
ENDMDL
MODEL 4
REMARK VINA RESULT:      -6.1      1.147      1.682
REMARK  Name = 
REMARK  3 active torsions:
REMARK  status: ('A' for Active; 'I' for Inactive)
REMARK    1  A    between atoms: O_1  and  C_2
REMARK    2  A    between atoms: C_2  and  C_3
REMARK    3  A    between atoms: N_5  and  C_6
REMARK                            x       y       z     vdW  Elec       q    Type
REMARK                         _______ _______ _______ _____ _____    ______ ____
ROOT
ATOM      1  C   UNL     1       6.133   4.952  14.914  0.00  0.00    +0.000 A 
ATOM      2  C   UNL     1       5.580   4.028  15.771  0.00  0.00    +0.000 A 
ATOM      3  N   UNL     1       4.835   4.761  16.661  0.00  0.00    +0.000 N 
ATOM      4  N   UNL     1       4.953   6.079  16.361  0.00  0.00    +0.000 NA
ATOM      5  N   UNL     1       5.741   6.203  15.301  0.00  0.00    +0.000 NA
ENDROOT
BRANCH   3   6
ATOM      6  C   UNL     1       4.035   4.303  17.740  0.00  0.00    +0.000 A 
ATOM      7  C   UNL     1       4.602   3.574  18.795  0.00  0.00    +0.000 A 
ATOM      8  C   UNL     1       3.796   3.126  19.848  0.00  0.00    +0.000 A 
ATOM      9  C   UNL     1       2.430   3.402  19.845  0.00  0.00    +0.000 A 
ATOM     10 BR   UNL     1       1.348   2.789  21.269  0.00  0.00    +0.000 Br
ATOM     11  C   UNL     1       1.857   4.123  18.802  0.00  0.00    +0.000 A 
ATOM     12  C   UNL     1       2.659   4.579  17.749  0.00  0.00    +0.000 A 
ENDBRANCH   3   6
BRANCH   1  13
ATOM     13  C   UNL     1       7.014   4.758  13.739  0.00  0.00    +0.000 C 
BRANCH  13  14
ATOM     14  O   UNL     1       8.098   5.688  13.717  0.00  0.00    +0.000 OA
ATOM     15  H   UNL     1       8.364   5.818  14.642  0.00  0.00    +0.000 HD
ENDBRANCH  13  14
ENDBRANCH   1  13
TORSDOF 3
ENDMDL
MODEL 5
REMARK VINA RESULT:      -6.0      1.538      1.623
REMARK  Name = 
REMARK  3 active torsions:
REMARK  status: ('A' for Active; 'I' for Inactive)
REMARK    1  A    between atoms: O_1  and  C_2
REMARK    2  A    between atoms: C_2  and  C_3
REMARK    3  A    between atoms: N_5  and  C_6
REMARK                            x       y       z     vdW  Elec       q    Type
REMARK                         _______ _______ _______ _____ _____    ______ ____
ROOT
ATOM      1  C   UNL     1       6.800   4.515  13.868  0.00  0.00    +0.000 A 
ATOM      2  C   UNL     1       5.731   4.115  14.636  0.00  0.00    +0.000 A 
ATOM      3  N   UNL     1       5.880   4.772  15.833  0.00  0.00    +0.000 N 
ATOM      4  N   UNL     1       7.009   5.523  15.791  0.00  0.00    +0.000 NA
ATOM      5  N   UNL     1       7.574   5.371  14.600  0.00  0.00    +0.000 NA
ENDROOT
BRANCH   3   6
ATOM      6  C   UNL     1       5.040   4.739  16.976  0.00  0.00    +0.000 A 
ATOM      7  C   UNL     1       3.831   4.029  16.960  0.00  0.00    +0.000 A 
ATOM      8  C   UNL     1       3.013   4.013  18.095  0.00  0.00    +0.000 A 
ATOM      9  C   UNL     1       3.399   4.708  19.241  0.00  0.00    +0.000 A 
ATOM     10 BR   UNL     1       2.287   4.686  20.768  0.00  0.00    +0.000 Br
ATOM     11  C   UNL     1       4.596   5.417  19.267  0.00  0.00    +0.000 A 
ATOM     12  C   UNL     1       5.422   5.432  18.136  0.00  0.00    +0.000 A 
ENDBRANCH   3   6
BRANCH   1  13
ATOM     13  C   UNL     1       7.164   4.157  12.477  0.00  0.00    +0.000 C 
BRANCH  13  14
ATOM     14  O   UNL     1       6.604   2.905  12.077  0.00  0.00    +0.000 OA
ATOM     15  H   UNL     1       7.032   2.228  12.627  0.00  0.00    +0.000 HD
ENDBRANCH  13  14
ENDBRANCH   1  13
TORSDOF 3
ENDMDL
MODEL 6
REMARK VINA RESULT:      -6.0      1.924      2.135
REMARK  Name = 
REMARK  3 active torsions:
REMARK  status: ('A' for Active; 'I' for Inactive)
REMARK    1  A    between atoms: O_1  and  C_2
REMARK    2  A    between atoms: C_2  and  C_3
REMARK    3  A    between atoms: N_5  and  C_6
REMARK                            x       y       z     vdW  Elec       q    Type
REMARK                         _______ _______ _______ _____ _____    ______ ____
ROOT
ATOM      1  C   UNL     1       6.704   4.392  13.619  0.00  0.00    +0.000 A 
ATOM      2  C   UNL     1       5.587   4.140  14.382  0.00  0.00    +0.000 A 
ATOM      3  N   UNL     1       5.754   4.885  15.523  0.00  0.00    +0.000 N 
ATOM      4  N   UNL     1       6.939   5.544  15.455  0.00  0.00    +0.000 NA
ATOM      5  N   UNL     1       7.521   5.249  14.300  0.00  0.00    +0.000 NA
ENDROOT
BRANCH   3   6
ATOM      6  C   UNL     1       4.885   5.014  16.637  0.00  0.00    +0.000 A 
ATOM      7  C   UNL     1       4.513   6.279  17.115  0.00  0.00    +0.000 A 
ATOM      8  C   UNL     1       3.660   6.387  18.219  0.00  0.00    +0.000 A 
ATOM      9  C   UNL     1       3.183   5.236  18.845  0.00  0.00    +0.000 A 
ATOM     10 BR   UNL     1       2.034   5.390  20.338  0.00  0.00    +0.000 Br
ATOM     11  C   UNL     1       3.547   3.976  18.380  0.00  0.00    +0.000 A 
ATOM     12  C   UNL     1       4.396   3.862  17.272  0.00  0.00    +0.000 A 
ENDBRANCH   3   6
BRANCH   1  13
ATOM     13  C   UNL     1       7.075   3.889  12.275  0.00  0.00    +0.000 C 
BRANCH  13  14
ATOM     14  O   UNL     1       6.487   2.618  11.992  0.00  0.00    +0.000 OA
ATOM     15  H   UNL     1       5.543   2.784  11.833  0.00  0.00    +0.000 HD
ENDBRANCH  13  14
ENDBRANCH   1  13
TORSDOF 3
ENDMDL
MODEL 7
REMARK VINA RESULT:      -5.7      1.515      1.769
REMARK  Name = 
REMARK  3 active torsions:
REMARK  status: ('A' for Active; 'I' for Inactive)
REMARK    1  A    between atoms: O_1  and  C_2
REMARK    2  A    between atoms: C_2  and  C_3
REMARK    3  A    between atoms: N_5  and  C_6
REMARK                            x       y       z     vdW  Elec       q    Type
REMARK                         _______ _______ _______ _____ _____    ______ ____
ROOT
ATOM      1  C   UNL     1       6.119   4.908  14.977  0.00  0.00    +0.000 A 
ATOM      2  C   UNL     1       5.635   4.000  15.890  0.00  0.00    +0.000 A 
ATOM      3  N   UNL     1       4.845   4.732  16.742  0.00  0.00    +0.000 N 
ATOM      4  N   UNL     1       4.872   6.036  16.365  0.00  0.00    +0.000 NA
ATOM      5  N   UNL     1       5.645   6.150  15.293  0.00  0.00    +0.000 NA
ENDROOT
BRANCH   3   6
ATOM      6  C   UNL     1       4.083   4.286  17.853  0.00  0.00    +0.000 A 
ATOM      7  C   UNL     1       3.567   5.200  18.783  0.00  0.00    +0.000 A 
ATOM      8  C   UNL     1       2.822   4.742  19.876  0.00  0.00    +0.000 A 
ATOM      9  C   UNL     1       2.599   3.376  20.042  0.00  0.00    +0.000 A 
ATOM     10 BR   UNL     1       1.597   2.764  21.523  0.00  0.00    +0.000 Br
ATOM     11  C   UNL     1       3.108   2.461  19.126  0.00  0.00    +0.000 A 
ATOM     12  C   UNL     1       3.848   2.913  18.027  0.00  0.00    +0.000 A 
ENDBRANCH   3   6
BRANCH   1  13
ATOM     13  C   UNL     1       7.006   4.704  13.807  0.00  0.00    +0.000 C 
BRANCH  13  14
ATOM     14  O   UNL     1       6.464   3.769  12.874  0.00  0.00    +0.000 OA
ATOM     15  H   UNL     1       5.576   3.544  13.198  0.00  0.00    +0.000 HD
ENDBRANCH  13  14
ENDBRANCH   1  13
TORSDOF 3
ENDMDL
MODEL 8
REMARK VINA RESULT:      -5.6      1.521      1.643
REMARK  Name = 
REMARK  3 active torsions:
REMARK  status: ('A' for Active; 'I' for Inactive)
REMARK    1  A    between atoms: O_1  and  C_2
REMARK    2  A    between atoms: C_2  and  C_3
REMARK    3  A    between atoms: N_5  and  C_6
REMARK                            x       y       z     vdW  Elec       q    Type
REMARK                         _______ _______ _______ _____ _____    ______ ____
ROOT
ATOM      1  C   UNL     1       6.088   4.887  14.912  0.00  0.00    +0.000 A 
ATOM      2  C   UNL     1       5.595   3.965  15.806  0.00  0.00    +0.000 A 
ATOM      3  N   UNL     1       4.841   4.691  16.694  0.00  0.00    +0.000 N 
ATOM      4  N   UNL     1       4.897   6.005  16.356  0.00  0.00    +0.000 NA
ATOM      5  N   UNL     1       5.654   6.131  15.274  0.00  0.00    +0.000 NA
ENDROOT
BRANCH   3   6
ATOM      6  C   UNL     1       4.087   4.232  17.805  0.00  0.00    +0.000 A 
ATOM      7  C   UNL     1       3.945   2.861  18.060  0.00  0.00    +0.000 A 
ATOM      8  C   UNL     1       3.193   2.427  19.157  0.00  0.00    +0.000 A 
ATOM      9  C   UNL     1       2.581   3.359  19.994  0.00  0.00    +0.000 A 
ATOM     10 BR   UNL     1       1.562   2.765  21.471  0.00  0.00    +0.000 Br
ATOM     11  C   UNL     1       2.713   4.722  19.749  0.00  0.00    +0.000 A 
ATOM     12  C   UNL     1       3.470   5.163  18.657  0.00  0.00    +0.000 A 
ENDBRANCH   3   6
BRANCH   1  13
ATOM     13  C   UNL     1       6.948   4.696  13.720  0.00  0.00    +0.000 C 
BRANCH  13  14
ATOM     14  O   UNL     1       6.390   3.761  12.795  0.00  0.00    +0.000 OA
ATOM     15  H   UNL     1       6.715   2.886  13.063  0.00  0.00    +0.000 HD
ENDBRANCH  13  14
ENDBRANCH   1  13
TORSDOF 3
ENDMDL
MODEL 9
REMARK VINA RESULT:      -5.6      4.846      5.907
REMARK  Name = 
REMARK  3 active torsions:
REMARK  status: ('A' for Active; 'I' for Inactive)
REMARK    1  A    between atoms: O_1  and  C_2
REMARK    2  A    between atoms: C_2  and  C_3
REMARK    3  A    between atoms: N_5  and  C_6
REMARK                            x       y       z     vdW  Elec       q    Type
REMARK                         _______ _______ _______ _____ _____    ______ ____
ROOT
ATOM      1  C   UNL     1       3.768   3.746  19.648  0.00  0.00    +0.000 A 
ATOM      2  C   UNL     1       2.705   4.609  19.785  0.00  0.00    +0.000 A 
ATOM      3  N   UNL     1       3.173   5.829  19.363  0.00  0.00    +0.000 N 
ATOM      4  N   UNL     1       4.477   5.706  19.005  0.00  0.00    +0.000 NA
ATOM      5  N   UNL     1       4.845   4.443  19.176  0.00  0.00    +0.000 NA
ENDROOT
BRANCH   3   6
ATOM      6  C   UNL     1       2.482   7.065  19.273  0.00  0.00    +0.000 A 
ATOM      7  C   UNL     1       1.828   7.605  20.390  0.00  0.00    +0.000 A 
ATOM      8  C   UNL     1       1.146   8.822  20.281  0.00  0.00    +0.000 A 
ATOM      9  C   UNL     1       1.114   9.495  19.060  0.00  0.00    +0.000 A 
ATOM     10 BR   UNL     1       0.187  11.136  18.919  0.00  0.00    +0.000 Br
ATOM     11  C   UNL     1       1.758   8.966  17.946  0.00  0.00    +0.000 A 
ATOM     12  C   UNL     1       2.447   7.752  18.050  0.00  0.00    +0.000 A 
ENDBRANCH   3   6
BRANCH   1  13
ATOM     13  C   UNL     1       3.861   2.293  19.925  0.00  0.00    +0.000 C 
BRANCH  13  14
ATOM     14  O   UNL     1       5.215   1.846  20.016  0.00  0.00    +0.000 OA
ATOM     15  H   UNL     1       5.409   1.393  19.179  0.00  0.00    +0.000 HD
ENDBRANCH  13  14
ENDBRANCH   1  13
TORSDOF 3
ENDMDL
