MODEL 1
REMARK VINA RESULT:      -8.7      0.000      0.000
REMARK  Name = 
REMARK  9 active torsions:
REMARK  status: ('A' for Active; 'I' for Inactive)
REMARK    1  A    between atoms: C_1  and  O_2
REMARK    2  A    between atoms: O_2  and  C_3
REMARK    3  A    between atoms: C_6  and  C_7
REMARK    4  A    between atoms: N_13  and  C_14
REMARK    5  A    between atoms: C_14  and  C_15
REMARK    6  A    between atoms: N_25  and  C_26
REMARK    7  A    between atoms: C_26  and  C_27
REMARK    8  A    between atoms: C_27  and  N_28
REMARK    9  A    between atoms: C_29  and  C_30
REMARK                            x       y       z     vdW  Elec       q    Type
REMARK                         _______ _______ _______ _____ _____    ______ ____
ROOT
ATOM      1  C   UNL     1      -0.805  11.931  22.082  0.00  0.00    +0.000 A 
ATOM      2  N   UNL     1      -0.058  11.001  22.607  0.00  0.00    +0.000 NA
ATOM      3  C   UNL     1       0.559  10.089  21.734  0.00  0.00    +0.000 A 
ATOM      4  C   UNL     1       1.302   9.032  22.216  0.00  0.00    +0.000 A 
ATOM      5  N   UNL     1       1.844   8.060  21.447  0.00  0.00    +0.000 NA
ATOM      6  C   UNL     1       1.672   8.173  20.127  0.00  0.00    +0.000 A 
ATOM      7  N   UNL     1       2.126   7.201  19.270  0.00  0.00    +0.000 N 
ATOM      8  N   UNL     1       1.013   9.184  19.551  0.00  0.00    +0.000 NA
ATOM      9  C   UNL     1       0.440  10.109  20.351  0.00  0.00    +0.000 A 
ATOM     10  N   UNL     1      -0.325  11.147  19.758  0.00  0.00    +0.000 N 
ATOM     11  C   UNL     1      -0.934  12.098  20.563  0.00  0.00    +0.000 A 
ATOM     12  O   UNL     1      -1.549  13.063  20.140  0.00  0.00    +0.000 OA
ATOM     13  H   UNL     1       2.605   7.616  18.481  0.00  0.00    +0.000 HD
ENDROOT
BRANCH   1  17
ATOM     14  C   UNL     1      -3.010  14.744  24.492  0.00  0.00    +0.000 A 
ATOM     15  C   UNL     1      -1.698  15.018  24.094  0.00  0.00    +0.000 A 
ATOM     16  C   UNL     1      -0.974  14.100  23.325  0.00  0.00    +0.000 A 
ATOM     17  C   UNL     1      -1.554  12.883  22.960  0.00  0.00    +0.000 A 
ATOM     18  C   UNL     1      -2.843  12.584  23.428  0.00  0.00    +0.000 A 
ATOM     19  C   UNL     1      -3.574  13.514  24.170  0.00  0.00    +0.000 A 
BRANCH  14  21
ATOM     20  C   UNL     1      -2.863  16.905  25.441  0.00  0.00    +0.000 C 
ATOM     21  O   UNL     1      -3.630  15.724  25.216  0.00  0.00    +0.000 OA
ENDBRANCH  14  21
ENDBRANCH   1  17
BRANCH   7  22
ATOM     22  C   UNL     1       2.656   5.973  19.807  0.00  0.00    +0.000 C 
BRANCH  22  23
ATOM     23  C   UNL     1       3.644   5.389  18.814  0.00  0.00    +0.000 A 
ATOM     24  C   UNL     1       3.182   4.634  17.717  0.00  0.00    +0.000 A 
ATOM     25  C   UNL     1       4.076   4.053  16.817  0.00  0.00    +0.000 A 
ATOM     26  C   UNL     1       5.443   4.212  17.011  0.00  0.00    +0.000 A 
ATOM     27  F   UNL     1       6.287   3.634  16.144  0.00  0.00    +0.000 F 
ATOM     28  C   UNL     1       5.922   4.950  18.091  0.00  0.00    +0.000 A 
ATOM     29 CL   UNL     1       7.617   5.139  18.336  0.00  0.00    +0.000 Cl
ATOM     30  C   UNL     1       5.028   5.539  18.992  0.00  0.00    +0.000 A 
ENDBRANCH  22  23
ENDBRANCH   7  22
BRANCH  10  31
ATOM     31  C   UNL     1      -0.582  11.096  18.306  0.00  0.00    +0.000 C 
BRANCH  31  32
ATOM     32  C   UNL     1      -1.836  10.306  17.874  0.00  0.00    +0.000 C 
BRANCH  32  33
ATOM     33  N   UNL     1      -2.006  10.167  16.440  0.00  0.00    +0.000 N 
ATOM     34  C   UNL     1      -3.140  10.602  15.804  0.00  0.00    +0.000 C 
ATOM     35  C   UNL     1      -3.220  10.200  14.358  0.00  0.00    +0.000 C 
ATOM     36  O   UNL     1      -4.014  11.270  16.348  0.00  0.00    +0.000 OA
ATOM     37  H   UNL     1      -1.449   9.452  15.987  0.00  0.00    +0.000 HD
ENDBRANCH  32  33
ENDBRANCH  31  32
ENDBRANCH  10  31
TORSDOF 7
ENDMDL
MODEL 2
REMARK VINA RESULT:      -8.7      1.191      1.312
REMARK  Name = 
REMARK  9 active torsions:
REMARK  status: ('A' for Active; 'I' for Inactive)
REMARK    1  A    between atoms: C_1  and  O_2
REMARK    2  A    between atoms: O_2  and  C_3
REMARK    3  A    between atoms: C_6  and  C_7
REMARK    4  A    between atoms: N_13  and  C_14
REMARK    5  A    between atoms: C_14  and  C_15
REMARK    6  A    between atoms: N_25  and  C_26
REMARK    7  A    between atoms: C_26  and  C_27
REMARK    8  A    between atoms: C_27  and  N_28
REMARK    9  A    between atoms: C_29  and  C_30
REMARK                            x       y       z     vdW  Elec       q    Type
REMARK                         _______ _______ _______ _____ _____    ______ ____
ROOT
ATOM      1  C   UNL     1      -1.071  12.288  22.316  0.00  0.00    +0.000 A 
ATOM      2  N   UNL     1      -0.391  11.316  22.855  0.00  0.00    +0.000 NA
ATOM      3  C   UNL     1       0.244  10.406  21.993  0.00  0.00    +0.000 A 
ATOM      4  C   UNL     1       0.918   9.309  22.485  0.00  0.00    +0.000 A 
ATOM      5  N   UNL     1       1.470   8.339  21.722  0.00  0.00    +0.000 NA
ATOM      6  C   UNL     1       1.381   8.495  20.397  0.00  0.00    +0.000 A 
ATOM      7  N   UNL     1       1.850   7.531  19.540  0.00  0.00    +0.000 N 
ATOM      8  N   UNL     1       0.795   9.547  19.814  0.00  0.00    +0.000 NA
ATOM      9  C   UNL     1       0.209  10.470  20.606  0.00  0.00    +0.000 A 
ATOM     10  N   UNL     1      -0.482  11.552  20.001  0.00  0.00    +0.000 N 
ATOM     11  C   UNL     1      -1.102  12.503  20.797  0.00  0.00    +0.000 A 
ATOM     12  O   UNL     1      -1.656  13.502  20.368  0.00  0.00    +0.000 OA
ATOM     13  H   UNL     1       2.390   7.950  18.793  0.00  0.00    +0.000 HD
ENDROOT
BRANCH   1  17
ATOM     14  C   UNL     1      -3.304  15.121  24.676  0.00  0.00    +0.000 A 
ATOM     15  C   UNL     1      -1.941  15.311  24.433  0.00  0.00    +0.000 A 
ATOM     16  C   UNL     1      -1.209  14.385  23.680  0.00  0.00    +0.000 A 
ATOM     17  C   UNL     1      -1.836  13.243  23.176  0.00  0.00    +0.000 A 
ATOM     18  C   UNL     1      -3.187  13.023  23.489  0.00  0.00    +0.000 A 
ATOM     19  C   UNL     1      -3.921  13.962  24.215  0.00  0.00    +0.000 A 
BRANCH  14  21
ATOM     20  C   UNL     1      -4.886  16.879  24.689  0.00  0.00    +0.000 C 
ATOM     21  O   UNL     1      -3.923  16.102  25.399  0.00  0.00    +0.000 OA
ENDBRANCH  14  21
ENDBRANCH   1  17
BRANCH   7  22
ATOM     22  C   UNL     1       2.302   6.269  20.070  0.00  0.00    +0.000 C 
BRANCH  22  23
ATOM     23  C   UNL     1       3.068   5.529  18.988  0.00  0.00    +0.000 A 
ATOM     24  C   UNL     1       3.776   6.248  18.005  0.00  0.00    +0.000 A 
ATOM     25  C   UNL     1       4.450   5.587  16.977  0.00  0.00    +0.000 A 
ATOM     26  C   UNL     1       4.413   4.199  16.916  0.00  0.00    +0.000 A 
ATOM     27  F   UNL     1       5.055   3.582  15.914  0.00  0.00    +0.000 F 
ATOM     28  C   UNL     1       3.716   3.468  17.876  0.00  0.00    +0.000 A 
ATOM     29 CL   UNL     1       3.663   1.748  17.795  0.00  0.00    +0.000 Cl
ATOM     30  C   UNL     1       3.043   4.128  18.911  0.00  0.00    +0.000 A 
ENDBRANCH  22  23
ENDBRANCH   7  22
BRANCH  10  31
ATOM     31  C   UNL     1      -0.653  11.551  18.536  0.00  0.00    +0.000 C 
BRANCH  31  32
ATOM     32  C   UNL     1      -1.989  10.979  18.016  0.00  0.00    +0.000 C 
BRANCH  32  33
ATOM     33  N   UNL     1      -1.992  10.613  16.613  0.00  0.00    +0.000 N 
ATOM     34  C   UNL     1      -3.105  10.781  15.828  0.00  0.00    +0.000 C 
ATOM     35  C   UNL     1      -2.983  10.171  14.460  0.00  0.00    +0.000 C 
ATOM     36  O   UNL     1      -4.111  11.383  16.190  0.00  0.00    +0.000 OA
ATOM     37  H   UNL     1      -1.302   9.932  16.321  0.00  0.00    +0.000 HD
ENDBRANCH  32  33
ENDBRANCH  31  32
ENDBRANCH  10  31
TORSDOF 7
ENDMDL
MODEL 3
REMARK VINA RESULT:      -8.5      1.461      1.727
REMARK  Name = 
REMARK  9 active torsions:
REMARK  status: ('A' for Active; 'I' for Inactive)
REMARK    1  A    between atoms: C_1  and  O_2
REMARK    2  A    between atoms: O_2  and  C_3
REMARK    3  A    between atoms: C_6  and  C_7
REMARK    4  A    between atoms: N_13  and  C_14
REMARK    5  A    between atoms: C_14  and  C_15
REMARK    6  A    between atoms: N_25  and  C_26
REMARK    7  A    between atoms: C_26  and  C_27
REMARK    8  A    between atoms: C_27  and  N_28
REMARK    9  A    between atoms: C_29  and  C_30
REMARK                            x       y       z     vdW  Elec       q    Type
REMARK                         _______ _______ _______ _____ _____    ______ ____
ROOT
ATOM      1  C   UNL     1      -1.272  12.366  22.281  0.00  0.00    +0.000 A 
ATOM      2  N   UNL     1      -0.592  11.455  22.919  0.00  0.00    +0.000 NA
ATOM      3  C   UNL     1       0.067  10.477  22.155  0.00  0.00    +0.000 A 
ATOM      4  C   UNL     1       0.742   9.437  22.757  0.00  0.00    +0.000 A 
ATOM      5  N   UNL     1       1.317   8.407  22.095  0.00  0.00    +0.000 NA
ATOM      6  C   UNL     1       1.252   8.442  20.761  0.00  0.00    +0.000 A 
ATOM      7  N   UNL     1       1.747   7.409  20.003  0.00  0.00    +0.000 N 
ATOM      8  N   UNL     1       0.668   9.429  20.073  0.00  0.00    +0.000 NA
ATOM      9  C   UNL     1       0.058  10.414  20.768  0.00  0.00    +0.000 A 
ATOM     10  N   UNL     1      -0.631  11.429  20.054  0.00  0.00    +0.000 N 
ATOM     11  C   UNL     1      -1.276  12.442  20.749  0.00  0.00    +0.000 A 
ATOM     12  O   UNL     1      -1.830  13.391  20.221  0.00  0.00    +0.000 OA
ATOM     13  H   UNL     1       2.297   7.764  19.232  0.00  0.00    +0.000 HD
ENDROOT
BRANCH   1  17
ATOM     14  C   UNL     1      -3.535  15.399  24.346  0.00  0.00    +0.000 A 
ATOM     15  C   UNL     1      -2.140  15.361  24.437  0.00  0.00    +0.000 A 
ATOM     16  C   UNL     1      -1.403  14.368  23.781  0.00  0.00    +0.000 A 
ATOM     17  C   UNL     1      -2.062  13.386  23.037  0.00  0.00    +0.000 A 
ATOM     18  C   UNL     1      -3.465  13.387  23.013  0.00  0.00    +0.000 A 
ATOM     19  C   UNL     1      -4.196  14.395  23.644  0.00  0.00    +0.000 A 
BRANCH  14  21
ATOM     20  C   UNL     1      -5.459  16.758  24.548  0.00  0.00    +0.000 C 
ATOM     21  O   UNL     1      -4.148  16.427  25.004  0.00  0.00    +0.000 OA
ENDBRANCH  14  21
ENDBRANCH   1  17
BRANCH   7  22
ATOM     22  C   UNL     1       2.201   6.206  20.654  0.00  0.00    +0.000 C 
BRANCH  22  23
ATOM     23  C   UNL     1       2.215   5.075  19.641  0.00  0.00    +0.000 A 
ATOM     24  C   UNL     1       1.277   4.028  19.738  0.00  0.00    +0.000 A 
ATOM     25  C   UNL     1       1.301   2.958  18.842  0.00  0.00    +0.000 A 
ATOM     26  C   UNL     1       2.270   2.919  17.847  0.00  0.00    +0.000 A 
ATOM     27  F   UNL     1       2.286   1.876  17.004  0.00  0.00    +0.000 F 
ATOM     28  C   UNL     1       3.210   3.942  17.736  0.00  0.00    +0.000 A 
ATOM     29 CL   UNL     1       4.417   3.889  16.508  0.00  0.00    +0.000 Cl
ATOM     30  C   UNL     1       3.185   5.019  18.629  0.00  0.00    +0.000 A 
ENDBRANCH  22  23
ENDBRANCH   7  22
BRANCH  10  31
ATOM     31  C   UNL     1      -0.774  11.293  18.592  0.00  0.00    +0.000 C 
BRANCH  31  32
ATOM     32  C   UNL     1      -1.923  10.382  18.112  0.00  0.00    +0.000 C 
BRANCH  32  33
ATOM     33  N   UNL     1      -1.979  10.172  16.678  0.00  0.00    +0.000 N 
ATOM     34  C   UNL     1      -3.024  10.640  15.922  0.00  0.00    +0.000 C 
ATOM     35  C   UNL     1      -3.006  10.163  14.497  0.00  0.00    +0.000 C 
ATOM     36  O   UNL     1      -3.895  11.388  16.352  0.00  0.00    +0.000 OA
ATOM     37  H   UNL     1      -1.433   9.401  16.312  0.00  0.00    +0.000 HD
ENDBRANCH  32  33
ENDBRANCH  31  32
ENDBRANCH  10  31
TORSDOF 7
ENDMDL
MODEL 4
REMARK VINA RESULT:      -8.3      2.604      3.180
REMARK  Name = 
REMARK  9 active torsions:
REMARK  status: ('A' for Active; 'I' for Inactive)
REMARK    1  A    between atoms: C_1  and  O_2
REMARK    2  A    between atoms: O_2  and  C_3
REMARK    3  A    between atoms: C_6  and  C_7
REMARK    4  A    between atoms: N_13  and  C_14
REMARK    5  A    between atoms: C_14  and  C_15
REMARK    6  A    between atoms: N_25  and  C_26
REMARK    7  A    between atoms: C_26  and  C_27
REMARK    8  A    between atoms: C_27  and  N_28
REMARK    9  A    between atoms: C_29  and  C_30
REMARK                            x       y       z     vdW  Elec       q    Type
REMARK                         _______ _______ _______ _____ _____    ______ ____
ROOT
ATOM      1  C   UNL     1      -2.647  12.494  20.399  0.00  0.00    +0.000 A 
ATOM      2  N   UNL     1      -1.394  12.274  20.680  0.00  0.00    +0.000 NA
ATOM      3  C   UNL     1      -0.677  11.412  19.834  0.00  0.00    +0.000 A 
ATOM      4  C   UNL     1       0.630  11.069  20.108  0.00  0.00    +0.000 A 
ATOM      5  N   UNL     1       1.356  10.173  19.399  0.00  0.00    +0.000 NA
ATOM      6  C   UNL     1       0.758   9.625  18.337  0.00  0.00    +0.000 A 
ATOM      7  N   UNL     1       1.388   8.656  17.595  0.00  0.00    +0.000 N 
ATOM      8  N   UNL     1      -0.487   9.925  17.951  0.00  0.00    +0.000 NA
ATOM      9  C   UNL     1      -1.200  10.783  18.712  0.00  0.00    +0.000 A 
ATOM     10  N   UNL     1      -2.548  11.054  18.358  0.00  0.00    +0.000 N 
ATOM     11  C   UNL     1      -3.301  11.922  19.135  0.00  0.00    +0.000 A 
ATOM     12  O   UNL     1      -4.440  12.268  18.868  0.00  0.00    +0.000 OA
ATOM     13  H   UNL     1       1.290   8.844  16.606  0.00  0.00    +0.000 HD
ENDROOT
BRANCH   1  17
ATOM     14  C   UNL     1      -4.954  14.940  23.097  0.00  0.00    +0.000 A 
ATOM     15  C   UNL     1      -4.857  13.558  23.290  0.00  0.00    +0.000 A 
ATOM     16  C   UNL     1      -4.122  12.759  22.407  0.00  0.00    +0.000 A 
ATOM     17  C   UNL     1      -3.488  13.337  21.304  0.00  0.00    +0.000 A 
ATOM     18  C   UNL     1      -3.654  14.712  21.076  0.00  0.00    +0.000 A 
ATOM     19  C   UNL     1      -4.362  15.511  21.975  0.00  0.00    +0.000 A 
BRANCH  14  21
ATOM     20  C   UNL     1      -4.981  16.683  24.695  0.00  0.00    +0.000 C 
ATOM     21  O   UNL     1      -5.674  15.624  24.036  0.00  0.00    +0.000 OA
ENDBRANCH  14  21
ENDBRANCH   1  17
BRANCH   7  22
ATOM     22  C   UNL     1       2.641   8.112  18.056  0.00  0.00    +0.000 C 
BRANCH  22  23
ATOM     23  C   UNL     1       2.390   6.738  18.651  0.00  0.00    +0.000 A 
ATOM     24  C   UNL     1       2.110   6.604  20.026  0.00  0.00    +0.000 A 
ATOM     25  C   UNL     1       1.920   5.346  20.599  0.00  0.00    +0.000 A 
ATOM     26  C   UNL     1       2.018   4.209  19.806  0.00  0.00    +0.000 A 
ATOM     27  F   UNL     1       1.846   3.009  20.378  0.00  0.00    +0.000 F 
ATOM     28  C   UNL     1       2.298   4.319  18.445  0.00  0.00    +0.000 A 
ATOM     29 CL   UNL     1       2.428   2.909  17.464  0.00  0.00    +0.000 Cl
ATOM     30  C   UNL     1       2.484   5.579  17.865  0.00  0.00    +0.000 A 
ENDBRANCH  22  23
ENDBRANCH   7  22
BRANCH  10  31
ATOM     31  C   UNL     1      -3.160  10.282  17.260  0.00  0.00    +0.000 C 
BRANCH  31  32
ATOM     32  C   UNL     1      -3.025  10.897  15.851  0.00  0.00    +0.000 C 
BRANCH  32  33
ATOM     33  N   UNL     1      -3.979  10.404  14.876  0.00  0.00    +0.000 N 
ATOM     34  C   UNL     1      -3.579   9.947  13.646  0.00  0.00    +0.000 C 
ATOM     35  C   UNL     1      -4.714   9.660  12.704  0.00  0.00    +0.000 C 
ATOM     36  O   UNL     1      -2.406   9.771  13.331  0.00  0.00    +0.000 OA
ATOM     37  H   UNL     1      -4.936  10.720  14.979  0.00  0.00    +0.000 HD
ENDBRANCH  32  33
ENDBRANCH  31  32
ENDBRANCH  10  31
TORSDOF 7
ENDMDL
MODEL 5
REMARK VINA RESULT:      -8.3      2.200      2.551
REMARK  Name = 
REMARK  9 active torsions:
REMARK  status: ('A' for Active; 'I' for Inactive)
REMARK    1  A    between atoms: C_1  and  O_2
REMARK    2  A    between atoms: O_2  and  C_3
REMARK    3  A    between atoms: C_6  and  C_7
REMARK    4  A    between atoms: N_13  and  C_14
REMARK    5  A    between atoms: C_14  and  C_15
REMARK    6  A    between atoms: N_25  and  C_26
REMARK    7  A    between atoms: C_26  and  C_27
REMARK    8  A    between atoms: C_27  and  N_28
REMARK    9  A    between atoms: C_29  and  C_30
REMARK                            x       y       z     vdW  Elec       q    Type
REMARK                         _______ _______ _______ _____ _____    ______ ____
ROOT
ATOM      1  C   UNL     1      -2.124  12.477  22.116  0.00  0.00    +0.000 A 
ATOM      2  N   UNL     1      -1.538  11.543  22.812  0.00  0.00    +0.000 NA
ATOM      3  C   UNL     1      -0.646  10.690  22.140  0.00  0.00    +0.000 A 
ATOM      4  C   UNL     1      -0.046   9.632  22.789  0.00  0.00    +0.000 A 
ATOM      5  N   UNL     1       0.746   8.712  22.192  0.00  0.00    +0.000 NA
ATOM      6  C   UNL     1       0.985   8.883  20.888  0.00  0.00    +0.000 A 
ATOM      7  N   UNL     1       1.721   7.966  20.179  0.00  0.00    +0.000 N 
ATOM      8  N   UNL     1       0.497   9.903  20.174  0.00  0.00    +0.000 NA
ATOM      9  C   UNL     1      -0.332  10.773  20.790  0.00  0.00    +0.000 A 
ATOM     10  N   UNL     1      -0.918  11.817  20.027  0.00  0.00    +0.000 N 
ATOM     11  C   UNL     1      -1.783  12.713  20.639  0.00  0.00    +0.000 A 
ATOM     12  O   UNL     1      -2.276  13.680  20.082  0.00  0.00    +0.000 OA
ATOM     13  H   UNL     1       2.402   8.431  19.594  0.00  0.00    +0.000 HD
ENDROOT
BRANCH   1  17
ATOM     14  C   UNL     1      -5.062  15.123  23.831  0.00  0.00    +0.000 A 
ATOM     15  C   UNL     1      -3.695  15.368  23.997  0.00  0.00    +0.000 A 
ATOM     16  C   UNL     1      -2.739  14.503  23.455  0.00  0.00    +0.000 A 
ATOM     17  C   UNL     1      -3.144  13.365  22.752  0.00  0.00    +0.000 A 
ATOM     18  C   UNL     1      -4.517  13.087  22.657  0.00  0.00    +0.000 A 
ATOM     19  C   UNL     1      -5.469  13.967  23.172  0.00  0.00    +0.000 A 
BRANCH  14  21
ATOM     20  C   UNL     1      -6.811  16.673  23.471  0.00  0.00    +0.000 C 
ATOM     21  O   UNL     1      -5.905  16.049  24.379  0.00  0.00    +0.000 OA
ENDBRANCH  14  21
ENDBRANCH   1  17
BRANCH   7  22
ATOM     22  C   UNL     1       2.107   6.728  20.809  0.00  0.00    +0.000 C 
BRANCH  22  23
ATOM     23  C   UNL     1       2.248   5.658  19.741  0.00  0.00    +0.000 A 
ATOM     24  C   UNL     1       3.138   5.847  18.664  0.00  0.00    +0.000 A 
ATOM     25  C   UNL     1       3.249   4.894  17.650  0.00  0.00    +0.000 A 
ATOM     26  C   UNL     1       2.465   3.748  17.697  0.00  0.00    +0.000 A 
ATOM     27  F   UNL     1       2.576   2.852  16.707  0.00  0.00    +0.000 F 
ATOM     28  C   UNL     1       1.576   3.544  18.750  0.00  0.00    +0.000 A 
ATOM     29 CL   UNL     1       0.596   2.128  18.804  0.00  0.00    +0.000 Cl
ATOM     30  C   UNL     1       1.465   4.494  19.772  0.00  0.00    +0.000 A 
ENDBRANCH  22  23
ENDBRANCH   7  22
BRANCH  10  31
ATOM     31  C   UNL     1      -0.712  11.828  18.567  0.00  0.00    +0.000 C 
BRANCH  31  32
ATOM     32  C   UNL     1      -1.788  11.101  17.732  0.00  0.00    +0.000 C 
BRANCH  32  33
ATOM     33  N   UNL     1      -2.989  11.874  17.478  0.00  0.00    +0.000 N 
ATOM     34  C   UNL     1      -4.239  11.317  17.584  0.00  0.00    +0.000 C 
ATOM     35  C   UNL     1      -5.346  12.210  17.098  0.00  0.00    +0.000 C 
ATOM     36  O   UNL     1      -4.451  10.200  18.042  0.00  0.00    +0.000 OA
ATOM     37  H   UNL     1      -2.882  12.699  16.900  0.00  0.00    +0.000 HD
ENDBRANCH  32  33
ENDBRANCH  31  32
ENDBRANCH  10  31
TORSDOF 7
ENDMDL
MODEL 6
REMARK VINA RESULT:      -8.2      1.377      1.467
REMARK  Name = 
REMARK  9 active torsions:
REMARK  status: ('A' for Active; 'I' for Inactive)
REMARK    1  A    between atoms: C_1  and  O_2
REMARK    2  A    between atoms: O_2  and  C_3
REMARK    3  A    between atoms: C_6  and  C_7
REMARK    4  A    between atoms: N_13  and  C_14
REMARK    5  A    between atoms: C_14  and  C_15
REMARK    6  A    between atoms: N_25  and  C_26
REMARK    7  A    between atoms: C_26  and  C_27
REMARK    8  A    between atoms: C_27  and  N_28
REMARK    9  A    between atoms: C_29  and  C_30
REMARK                            x       y       z     vdW  Elec       q    Type
REMARK                         _______ _______ _______ _____ _____    ______ ____
ROOT
ATOM      1  C   UNL     1      -1.112  12.457  22.347  0.00  0.00    +0.000 A 
ATOM      2  N   UNL     1      -0.542  11.423  22.899  0.00  0.00    +0.000 NA
ATOM      3  C   UNL     1       0.140  10.527  22.058  0.00  0.00    +0.000 A 
ATOM      4  C   UNL     1       0.704   9.371  22.555  0.00  0.00    +0.000 A 
ATOM      5  N   UNL     1       1.290   8.415  21.799  0.00  0.00    +0.000 NA
ATOM      6  C   UNL     1       1.354   8.645  20.485  0.00  0.00    +0.000 A 
ATOM      7  N   UNL     1       1.869   7.704  19.627  0.00  0.00    +0.000 N 
ATOM      8  N   UNL     1       0.886   9.755  19.904  0.00  0.00    +0.000 NA
ATOM      9  C   UNL     1       0.261  10.665  20.681  0.00  0.00    +0.000 A 
ATOM     10  N   UNL     1      -0.308  11.813  20.069  0.00  0.00    +0.000 N 
ATOM     11  C   UNL     1      -0.967  12.752  20.849  0.00  0.00    +0.000 A 
ATOM     12  O   UNL     1      -1.422  13.800  20.422  0.00  0.00    +0.000 OA
ATOM     13  H   UNL     1       2.507   8.132  18.969  0.00  0.00    +0.000 HD
ENDROOT
BRANCH   1  17
ATOM     14  C   UNL     1      -3.450  15.278  24.618  0.00  0.00    +0.000 A 
ATOM     15  C   UNL     1      -2.056  15.375  24.576  0.00  0.00    +0.000 A 
ATOM     16  C   UNL     1      -1.293  14.451  23.852  0.00  0.00    +0.000 A 
ATOM     17  C   UNL     1      -1.921  13.404  23.175  0.00  0.00    +0.000 A 
ATOM     18  C   UNL     1      -3.314  13.271  23.285  0.00  0.00    +0.000 A 
ATOM     19  C   UNL     1      -4.075  14.210  23.982  0.00  0.00    +0.000 A 
BRANCH  14  21
ATOM     20  C   UNL     1      -5.219  16.845  24.688  0.00  0.00    +0.000 C 
ATOM     21  O   UNL     1      -4.094  16.250  25.332  0.00  0.00    +0.000 OA
ENDBRANCH  14  21
ENDBRANCH   1  17
BRANCH   7  22
ATOM     22  C   UNL     1       2.200   6.394  20.129  0.00  0.00    +0.000 C 
BRANCH  22  23
ATOM     23  C   UNL     1       3.136   5.715  19.145  0.00  0.00    +0.000 A 
ATOM     24  C   UNL     1       3.585   4.401  19.388  0.00  0.00    +0.000 A 
ATOM     25  C   UNL     1       4.480   3.775  18.519  0.00  0.00    +0.000 A 
ATOM     26  C   UNL     1       4.943   4.462  17.402  0.00  0.00    +0.000 A 
ATOM     27  F   UNL     1       5.813   3.849  16.586  0.00  0.00    +0.000 F 
ATOM     28  C   UNL     1       4.516   5.763  17.145  0.00  0.00    +0.000 A 
ATOM     29 CL   UNL     1       5.097   6.616  15.767  0.00  0.00    +0.000 Cl
ATOM     30  C   UNL     1       3.614   6.391  18.012  0.00  0.00    +0.000 A 
ENDBRANCH  22  23
ENDBRANCH   7  22
BRANCH  10  31
ATOM     31  C   UNL     1      -0.317  11.898  18.597  0.00  0.00    +0.000 C 
BRANCH  31  32
ATOM     32  C   UNL     1      -1.424  11.092  17.885  0.00  0.00    +0.000 C 
BRANCH  32  33
ATOM     33  N   UNL     1      -2.659  11.818  17.657  0.00  0.00    +0.000 N 
ATOM     34  C   UNL     1      -3.870  11.178  17.599  0.00  0.00    +0.000 C 
ATOM     35  C   UNL     1      -5.006  12.061  17.165  0.00  0.00    +0.000 C 
ATOM     36  O   UNL     1      -4.031   9.995  17.883  0.00  0.00    +0.000 OA
ATOM     37  H   UNL     1      -2.575  12.722  17.208  0.00  0.00    +0.000 HD
ENDBRANCH  32  33
ENDBRANCH  31  32
ENDBRANCH  10  31
TORSDOF 7
ENDMDL
MODEL 7
REMARK VINA RESULT:      -8.2      1.976      2.337
REMARK  Name = 
REMARK  9 active torsions:
REMARK  status: ('A' for Active; 'I' for Inactive)
REMARK    1  A    between atoms: C_1  and  O_2
REMARK    2  A    between atoms: O_2  and  C_3
REMARK    3  A    between atoms: C_6  and  C_7
REMARK    4  A    between atoms: N_13  and  C_14
REMARK    5  A    between atoms: C_14  and  C_15
REMARK    6  A    between atoms: N_25  and  C_26
REMARK    7  A    between atoms: C_26  and  C_27
REMARK    8  A    between atoms: C_27  and  N_28
REMARK    9  A    between atoms: C_29  and  C_30
REMARK                            x       y       z     vdW  Elec       q    Type
REMARK                         _______ _______ _______ _____ _____    ______ ____
ROOT
ATOM      1  C   UNL     1      -2.035  12.251  22.080  0.00  0.00    +0.000 A 
ATOM      2  N   UNL     1      -1.360  11.409  22.811  0.00  0.00    +0.000 NA
ATOM      3  C   UNL     1      -0.511  10.506  22.149  0.00  0.00    +0.000 A 
ATOM      4  C   UNL     1       0.177   9.535  22.845  0.00  0.00    +0.000 A 
ATOM      5  N   UNL     1       0.936   8.571  22.274  0.00  0.00    +0.000 NA
ATOM      6  C   UNL     1       1.047   8.606  20.943  0.00  0.00    +0.000 A 
ATOM      7  N   UNL     1       1.739   7.632  20.267  0.00  0.00    +0.000 N 
ATOM      8  N   UNL     1       0.465   9.534  20.175  0.00  0.00    +0.000 NA
ATOM      9  C   UNL     1      -0.327  10.449  20.774  0.00  0.00    +0.000 A 
ATOM     10  N   UNL     1      -1.013  11.395  19.966  0.00  0.00    +0.000 N 
ATOM     11  C   UNL     1      -1.842  12.334  20.560  0.00  0.00    +0.000 A 
ATOM     12  O   UNL     1      -2.412  13.227  19.955  0.00  0.00    +0.000 OA
ATOM     13  H   UNL     1       2.350   8.044  19.573  0.00  0.00    +0.000 HD
ENDROOT
BRANCH   1  17
ATOM     14  C   UNL     1      -4.871  15.014  23.784  0.00  0.00    +0.000 A 
ATOM     15  C   UNL     1      -3.499  15.279  23.830  0.00  0.00    +0.000 A 
ATOM     16  C   UNL     1      -2.575  14.377  23.292  0.00  0.00    +0.000 A 
ATOM     17  C   UNL     1      -3.017  13.184  22.715  0.00  0.00    +0.000 A 
ATOM     18  C   UNL     1      -4.390  12.892  22.742  0.00  0.00    +0.000 A 
ATOM     19  C   UNL     1      -5.312  13.807  23.252  0.00  0.00    +0.000 A 
BRANCH  14  21
ATOM     20  C   UNL     1      -6.878  16.249  23.586  0.00  0.00    +0.000 C 
ATOM     21  O   UNL     1      -5.682  15.978  24.315  0.00  0.00    +0.000 OA
ENDBRANCH  14  21
ENDBRANCH   1  17
BRANCH   7  22
ATOM     22  C   UNL     1       2.219   6.476  20.982  0.00  0.00    +0.000 C 
BRANCH  22  23
ATOM     23  C   UNL     1       2.111   5.261  20.079  0.00  0.00    +0.000 A 
ATOM     24  C   UNL     1       1.192   4.235  20.382  0.00  0.00    +0.000 A 
ATOM     25  C   UNL     1       1.109   3.090  19.588  0.00  0.00    +0.000 A 
ATOM     26  C   UNL     1       1.951   2.954  18.491  0.00  0.00    +0.000 A 
ATOM     27  F   UNL     1       1.865   1.840  17.749  0.00  0.00    +0.000 F 
ATOM     28  C   UNL     1       2.869   3.953  18.177  0.00  0.00    +0.000 A 
ATOM     29 CL   UNL     1       3.919   3.780  16.822  0.00  0.00    +0.000 Cl
ATOM     30  C   UNL     1       2.952   5.106  18.967  0.00  0.00    +0.000 A 
ENDBRANCH  22  23
ENDBRANCH   7  22
BRANCH  10  31
ATOM     31  C   UNL     1      -0.944  11.253  18.499  0.00  0.00    +0.000 C 
BRANCH  31  32
ATOM     32  C   UNL     1      -2.030  10.360  17.860  0.00  0.00    +0.000 C 
BRANCH  32  33
ATOM     33  N   UNL     1      -3.377  10.894  17.929  0.00  0.00    +0.000 N 
ATOM     34  C   UNL     1      -4.034  11.336  16.808  0.00  0.00    +0.000 C 
ATOM     35  C   UNL     1      -5.335  12.029  17.099  0.00  0.00    +0.000 C 
ATOM     36  O   UNL     1      -3.616  11.177  15.666  0.00  0.00    +0.000 OA
ATOM     37  H   UNL     1      -3.678  11.248  18.829  0.00  0.00    +0.000 HD
ENDBRANCH  32  33
ENDBRANCH  31  32
ENDBRANCH  10  31
TORSDOF 7
ENDMDL
MODEL 8
REMARK VINA RESULT:      -8.0      1.919      2.462
REMARK  Name = 
REMARK  9 active torsions:
REMARK  status: ('A' for Active; 'I' for Inactive)
REMARK    1  A    between atoms: C_1  and  O_2
REMARK    2  A    between atoms: O_2  and  C_3
REMARK    3  A    between atoms: C_6  and  C_7
REMARK    4  A    between atoms: N_13  and  C_14
REMARK    5  A    between atoms: C_14  and  C_15
REMARK    6  A    between atoms: N_25  and  C_26
REMARK    7  A    between atoms: C_26  and  C_27
REMARK    8  A    between atoms: C_27  and  N_28
REMARK    9  A    between atoms: C_29  and  C_30
REMARK                            x       y       z     vdW  Elec       q    Type
REMARK                         _______ _______ _______ _____ _____    ______ ____
ROOT
ATOM      1  C   UNL     1      -1.363  13.233  22.671  0.00  0.00    +0.000 A 
ATOM      2  N   UNL     1      -1.157  12.067  23.217  0.00  0.00    +0.000 NA
ATOM      3  C   UNL     1      -0.394  11.134  22.495  0.00  0.00    +0.000 A 
ATOM      4  C   UNL     1      -0.198   9.854  22.971  0.00  0.00    +0.000 A 
ATOM      5  N   UNL     1       0.440   8.872  22.294  0.00  0.00    +0.000 NA
ATOM      6  C   UNL     1       0.943   9.196  21.100  0.00  0.00    +0.000 A 
ATOM      7  N   UNL     1       1.548   8.251  20.308  0.00  0.00    +0.000 N 
ATOM      8  N   UNL     1       0.855  10.420  20.567  0.00  0.00    +0.000 NA
ATOM      9  C   UNL     1       0.167  11.362  21.246  0.00  0.00    +0.000 A 
ATOM     10  N   UNL     1      -0.000  12.644  20.660  0.00  0.00    +0.000 N 
ATOM     11  C   UNL     1      -0.716  13.621  21.336  0.00  0.00    +0.000 A 
ATOM     12  O   UNL     1      -0.849  14.769  20.943  0.00  0.00    +0.000 OA
ATOM     13  H   UNL     1       2.416   8.605  19.928  0.00  0.00    +0.000 HD
ENDROOT
BRANCH   1  17
ATOM     14  C   UNL     1      -3.920  16.036  24.717  0.00  0.00    +0.000 A 
ATOM     15  C   UNL     1      -4.395  15.296  23.630  0.00  0.00    +0.000 A 
ATOM     16  C   UNL     1      -3.563  14.397  22.954  0.00  0.00    +0.000 A 
ATOM     17  C   UNL     1      -2.233  14.242  23.350  0.00  0.00    +0.000 A 
ATOM     18  C   UNL     1      -1.743  15.045  24.393  0.00  0.00    +0.000 A 
ATOM     19  C   UNL     1      -2.583  15.919  25.085  0.00  0.00    +0.000 A 
BRANCH  14  21
ATOM     20  C   UNL     1      -5.543  17.734  24.445  0.00  0.00    +0.000 C 
ATOM     21  O   UNL     1      -4.827  16.863  25.318  0.00  0.00    +0.000 OA
ENDBRANCH  14  21
ENDBRANCH   1  17
BRANCH   7  22
ATOM     22  C   UNL     1       1.501   6.864  20.699  0.00  0.00    +0.000 C 
BRANCH  22  23
ATOM     23  C   UNL     1       2.169   6.029  19.621  0.00  0.00    +0.000 A 
ATOM     24  C   UNL     1       3.134   6.609  18.773  0.00  0.00    +0.000 A 
ATOM     25  C   UNL     1       3.727   5.869  17.748  0.00  0.00    +0.000 A 
ATOM     26  C   UNL     1       3.352   4.545  17.555  0.00  0.00    +0.000 A 
ATOM     27  F   UNL     1       3.923   3.855  16.557  0.00  0.00    +0.000 F 
ATOM     28  C   UNL     1       2.397   3.953  18.379  0.00  0.00    +0.000 A 
ATOM     29 CL   UNL     1       1.927   2.314  18.132  0.00  0.00    +0.000 Cl
ATOM     30  C   UNL     1       1.805   4.690  19.410  0.00  0.00    +0.000 A 
ENDBRANCH  22  23
ENDBRANCH   7  22
BRANCH  10  31
ATOM     31  C   UNL     1       0.461  12.854  19.274  0.00  0.00    +0.000 C 
BRANCH  31  32
ATOM     32  C   UNL     1      -0.647  12.939  18.204  0.00  0.00    +0.000 C 
BRANCH  32  33
ATOM     33  N   UNL     1      -1.108  11.660  17.698  0.00  0.00    +0.000 N 
ATOM     34  C   UNL     1      -2.386  11.216  17.922  0.00  0.00    +0.000 C 
ATOM     35  C   UNL     1      -2.621   9.795  17.494  0.00  0.00    +0.000 C 
ATOM     36  O   UNL     1      -3.271  11.906  18.417  0.00  0.00    +0.000 OA
ATOM     37  H   UNL     1      -0.394  10.973  17.489  0.00  0.00    +0.000 HD
ENDBRANCH  32  33
ENDBRANCH  31  32
ENDBRANCH  10  31
TORSDOF 7
ENDMDL
MODEL 9
REMARK VINA RESULT:      -7.9      2.198      2.621
REMARK  Name = 
REMARK  9 active torsions:
REMARK  status: ('A' for Active; 'I' for Inactive)
REMARK    1  A    between atoms: C_1  and  O_2
REMARK    2  A    between atoms: O_2  and  C_3
REMARK    3  A    between atoms: C_6  and  C_7
REMARK    4  A    between atoms: N_13  and  C_14
REMARK    5  A    between atoms: C_14  and  C_15
REMARK    6  A    between atoms: N_25  and  C_26
REMARK    7  A    between atoms: C_26  and  C_27
REMARK    8  A    between atoms: C_27  and  N_28
REMARK    9  A    between atoms: C_29  and  C_30
REMARK                            x       y       z     vdW  Elec       q    Type
REMARK                         _______ _______ _______ _____ _____    ______ ____
ROOT
ATOM      1  C   UNL     1      -1.406  12.671  22.687  0.00  0.00    +0.000 A 
ATOM      2  N   UNL     1      -1.505  11.421  23.044  0.00  0.00    +0.000 NA
ATOM      3  C   UNL     1      -0.575  10.514  22.509  0.00  0.00    +0.000 A 
ATOM      4  C   UNL     1      -0.661   9.164  22.778  0.00  0.00    +0.000 A 
ATOM      5  N   UNL     1       0.133   8.218  22.226  0.00  0.00    +0.000 NA
ATOM      6  C   UNL     1       1.089   8.647  21.397  0.00  0.00    +0.000 A 
ATOM      7  N   UNL     1       1.902   7.759  20.736  0.00  0.00    +0.000 N 
ATOM      8  N   UNL     1       1.294   9.937  21.108  0.00  0.00    +0.000 NA
ATOM      9  C   UNL     1       0.450  10.849  21.635  0.00  0.00    +0.000 A 
ATOM     10  N   UNL     1       0.607  12.215  21.277  0.00  0.00    +0.000 N 
ATOM     11  C   UNL     1      -0.259  13.165  21.797  0.00  0.00    +0.000 A 
ATOM     12  O   UNL     1      -0.156  14.365  21.604  0.00  0.00    +0.000 OA
ATOM     13  H   UNL     1       2.869   8.051  20.790  0.00  0.00    +0.000 HD
ENDROOT
BRANCH   1  17
ATOM     14  C   UNL     1      -4.385  15.448  24.100  0.00  0.00    +0.000 A 
ATOM     15  C   UNL     1      -4.522  14.824  22.856  0.00  0.00    +0.000 A 
ATOM     16  C   UNL     1      -3.549  13.934  22.388  0.00  0.00    +0.000 A 
ATOM     17  C   UNL     1      -2.413  13.673  23.157  0.00  0.00    +0.000 A 
ATOM     18  C   UNL     1      -2.247  14.362  24.368  0.00  0.00    +0.000 A 
ATOM     19  C   UNL     1      -3.233  15.226  24.847  0.00  0.00    +0.000 A 
BRANCH  14  21
ATOM     20  C   UNL     1      -6.234  16.747  23.404  0.00  0.00    +0.000 C 
ATOM     21  O   UNL     1      -5.409  16.276  24.467  0.00  0.00    +0.000 OA
ENDBRANCH  14  21
ENDBRANCH   1  17
BRANCH   7  22
ATOM     22  C   UNL     1       1.621   6.347  20.815  0.00  0.00    +0.000 C 
BRANCH  22  23
ATOM     23  C   UNL     1       2.329   5.642  19.672  0.00  0.00    +0.000 A 
ATOM     24  C   UNL     1       1.587   4.889  18.739  0.00  0.00    +0.000 A 
ATOM     25  C   UNL     1       2.224   4.198  17.707  0.00  0.00    +0.000 A 
ATOM     26  C   UNL     1       3.609   4.244  17.604  0.00  0.00    +0.000 A 
ATOM     27  F   UNL     1       4.203   3.563  16.614  0.00  0.00    +0.000 F 
ATOM     28  C   UNL     1       4.361   4.979  18.518  0.00  0.00    +0.000 A 
ATOM     29 CL   UNL     1       6.079   5.028  18.396  0.00  0.00    +0.000 Cl
ATOM     30  C   UNL     1       3.726   5.678  19.551  0.00  0.00    +0.000 A 
ENDBRANCH  22  23
ENDBRANCH   7  22
BRANCH  10  31
ATOM     31  C   UNL     1       1.593  12.564  20.238  0.00  0.00    +0.000 C 
BRANCH  31  32
ATOM     32  C   UNL     1       1.193  12.217  18.788  0.00  0.00    +0.000 C 
BRANCH  32  33
ATOM     33  N   UNL     1       1.863  11.059  18.230  0.00  0.00    +0.000 N 
ATOM     34  C   UNL     1       1.178   9.911  17.919  0.00  0.00    +0.000 C 
ATOM     35  C   UNL     1       2.063   8.758  17.537  0.00  0.00    +0.000 C 
ATOM     36  O   UNL     1      -0.045   9.822  17.935  0.00  0.00    +0.000 OA
ATOM     37  H   UNL     1       2.860  10.988  18.398  0.00  0.00    +0.000 HD
ENDBRANCH  32  33
ENDBRANCH  31  32
ENDBRANCH  10  31
TORSDOF 7
ENDMDL
