MODEL 1
REMARK VINA RESULT:      -7.8      0.000      0.000
REMARK  Name = 
REMARK  10 active torsions:
REMARK  status: ('A' for Active; 'I' for Inactive)
REMARK    1  A    between atoms: C_1  and  C_2
REMARK    2  A    between atoms: C_2  and  C_3
REMARK    3  A    between atoms: C_2  and  O_4
REMARK    4  A    between atoms: O_4  and  C_5
REMARK    5  A    between atoms: C_14  and  C_15
REMARK    6  A    between atoms: C_15  and  C_16
REMARK    7  A    between atoms: C_16  and  C_17
REMARK    8  A    between atoms: C_17  and  O_18
REMARK    9  A    between atoms: O_18  and  C_19
REMARK   10  A    between atoms: C_22  and  C_23
REMARK                            x       y       z     vdW  Elec       q    Type
REMARK                         _______ _______ _______ _____ _____    ______ ____
ROOT
ATOM      1  C   UNL     1       7.557   6.882  17.032  0.00  0.00    +0.000 C 
ENDROOT
BRANCH   1  11
ATOM      2  C   UNL     1       1.729   3.401  18.141  0.00  0.00    +0.000 C 
ATOM      3  O   UNL     1       0.917   3.977  17.426  0.00  0.00    +0.000 OA
ATOM      4  N   UNL     1       3.096   3.531  17.998  0.00  0.00    +0.000 N 
ATOM      5  C   UNL     1       3.617   4.471  17.022  0.00  0.00    +0.000 C 
ATOM      6  C   UNL     1       4.470   5.519  17.725  0.00  0.00    +0.000 C 
ATOM      7  C   UNL     1       5.602   4.837  18.512  0.00  0.00    +0.000 C 
ATOM      8  C   UNL     1       5.032   3.796  19.494  0.00  0.00    +0.000 C 
ATOM      9  C   UNL     1       4.099   2.816  18.781  0.00  0.00    +0.000 C 
ATOM     10  C   UNL     1       6.548   5.833  19.242  0.00  0.00    +0.000 C 
ATOM     11  C   UNL     1       7.539   5.740  18.056  0.00  0.00    +0.000 C 
ATOM     12  C   UNL     1       6.843   4.408  17.667  0.00  0.00    +0.000 C 
BRANCH   2  13
ATOM     13  O   UNL     1       1.371   2.569  19.160  0.00  0.00    +0.000 OA
BRANCH  13  15
ATOM     14  C   UNL     1       1.555   2.569  21.570  0.00  0.00    +0.000 C 
ATOM     15  C   UNL     1       0.916   3.233  20.357  0.00  0.00    +0.000 C 
ATOM     16  C   UNL     1       1.317   4.700  20.273  0.00  0.00    +0.000 C 
ENDBRANCH  13  15
ENDBRANCH   2  13
ENDBRANCH   1  11
BRANCH   1  17
ATOM     17  C   UNL     1       7.212   8.232  17.667  0.00  0.00    +0.000 C 
BRANCH  17  18
ATOM     18  C   UNL     1       8.429   8.865  18.325  0.00  0.00    +0.000 C 
BRANCH  18  19
ATOM     19  O   UNL     1       8.911   9.940  17.522  0.00  0.00    +0.000 OA
BRANCH  19  20
ATOM     20  C   UNL     1       9.162  11.101  18.204  0.00  0.00    +0.000 A 
ATOM     21  C   UNL     1       8.725  12.376  17.829  0.00  0.00    +0.000 A 
ATOM     22  C   UNL     1       9.029  13.486  18.619  0.00  0.00    +0.000 A 
ATOM     23  C   UNL     1       9.772  13.338  19.794  0.00  0.00    +0.000 A 
ATOM     24  C   UNL     1      10.214  12.062  20.152  0.00  0.00    +0.000 A 
ATOM     25  F   UNL     1      10.936  11.865  21.269  0.00  0.00    +0.000 F 
ATOM     26  C   UNL     1       9.914  10.950  19.367  0.00  0.00    +0.000 A 
BRANCH  23  27
ATOM     27  C   UNL     1      10.047  14.551  20.602  0.00  0.00    +0.000 C 
ATOM     28  N   UNL     1       9.027  15.087  21.330  0.00  0.00    +0.000 N 
ATOM     29  O   UNL     1      11.159  15.067  20.618  0.00  0.00    +0.000 OA
ATOM     30  H   UNL     1       8.091  14.696  21.340  0.00  0.00    +0.000 HD
ATOM     31  H   UNL     1       9.215  15.917  21.873  0.00  0.00    +0.000 HD
ENDBRANCH  23  27
ENDBRANCH  19  20
ENDBRANCH  18  19
ENDBRANCH  17  18
ENDBRANCH   1  17
TORSDOF 8
ENDMDL
MODEL 2
REMARK VINA RESULT:      -7.5      5.448      7.588
REMARK  Name = 
REMARK  10 active torsions:
REMARK  status: ('A' for Active; 'I' for Inactive)
REMARK    1  A    between atoms: C_1  and  C_2
REMARK    2  A    between atoms: C_2  and  C_3
REMARK    3  A    between atoms: C_2  and  O_4
REMARK    4  A    between atoms: O_4  and  C_5
REMARK    5  A    between atoms: C_14  and  C_15
REMARK    6  A    between atoms: C_15  and  C_16
REMARK    7  A    between atoms: C_16  and  C_17
REMARK    8  A    between atoms: C_17  and  O_18
REMARK    9  A    between atoms: O_18  and  C_19
REMARK   10  A    between atoms: C_22  and  C_23
REMARK                            x       y       z     vdW  Elec       q    Type
REMARK                         _______ _______ _______ _____ _____    ______ ____
ROOT
ATOM      1  C   UNL     1       1.036   3.568  19.829  0.00  0.00    +0.000 C 
ENDROOT
BRANCH   1  11
ATOM      2  C   UNL     1       6.420   5.865  16.217  0.00  0.00    +0.000 C 
ATOM      3  O   UNL     1       6.260   7.080  16.216  0.00  0.00    +0.000 OA
ATOM      4  N   UNL     1       5.779   5.014  17.095  0.00  0.00    +0.000 N 
ATOM      5  C   UNL     1       4.784   5.555  18.004  0.00  0.00    +0.000 C 
ATOM      6  C   UNL     1       3.439   4.891  17.744  0.00  0.00    +0.000 C 
ATOM      7  C   UNL     1       3.566   3.365  17.892  0.00  0.00    +0.000 C 
ATOM      8  C   UNL     1       4.672   2.820  16.969  0.00  0.00    +0.000 C 
ATOM      9  C   UNL     1       5.987   3.572  17.177  0.00  0.00    +0.000 C 
ATOM     10  C   UNL     1       2.230   2.599  17.675  0.00  0.00    +0.000 C 
ATOM     11  C   UNL     1       2.016   2.564  19.208  0.00  0.00    +0.000 C 
ATOM     12  C   UNL     1       3.539   2.828  19.358  0.00  0.00    +0.000 C 
BRANCH   2  13
ATOM     13  O   UNL     1       7.249   5.218  15.348  0.00  0.00    +0.000 OA
BRANCH  13  15
ATOM     14  C   UNL     1       7.988   5.473  13.061  0.00  0.00    +0.000 C 
ATOM     15  C   UNL     1       6.801   5.201  13.978  0.00  0.00    +0.000 C 
ATOM     16  C   UNL     1       6.201   3.831  13.687  0.00  0.00    +0.000 C 
ENDBRANCH  13  15
ENDBRANCH   2  13
ENDBRANCH   1  11
BRANCH   1  17
ATOM     17  C   UNL     1       1.676   4.372  20.963  0.00  0.00    +0.000 C 
BRANCH  17  18
ATOM     18  C   UNL     1       1.295   5.843  20.888  0.00  0.00    +0.000 C 
BRANCH  18  19
ATOM     19  O   UNL     1       2.243   6.550  20.091  0.00  0.00    +0.000 OA
BRANCH  19  20
ATOM     20  C   UNL     1       1.857   7.812  19.720  0.00  0.00    +0.000 A 
ATOM     21  C   UNL     1       1.973   8.354  18.437  0.00  0.00    +0.000 A 
ATOM     22  C   UNL     1       1.526   9.650  18.175  0.00  0.00    +0.000 A 
ATOM     23  C   UNL     1       0.956  10.421  19.193  0.00  0.00    +0.000 A 
ATOM     24  C   UNL     1       0.856   9.874  20.474  0.00  0.00    +0.000 A 
ATOM     25  F   UNL     1       0.322  10.575  21.489  0.00  0.00    +0.000 F 
ATOM     26  C   UNL     1       1.302   8.581  20.741  0.00  0.00    +0.000 A 
BRANCH  23  27
ATOM     27  C   UNL     1       0.481  11.784  18.851  0.00  0.00    +0.000 C 
ATOM     28  N   UNL     1       1.294  12.841  19.133  0.00  0.00    +0.000 N 
ATOM     29  O   UNL     1      -0.615  11.966  18.332  0.00  0.00    +0.000 OA
ATOM     30  H   UNL     1       2.205  12.736  19.567  0.00  0.00    +0.000 HD
ATOM     31  H   UNL     1       0.965  13.768  18.906  0.00  0.00    +0.000 HD
ENDBRANCH  23  27
ENDBRANCH  19  20
ENDBRANCH  18  19
ENDBRANCH  17  18
ENDBRANCH   1  17
TORSDOF 8
ENDMDL
MODEL 3
REMARK VINA RESULT:      -7.5      6.107      7.967
REMARK  Name = 
REMARK  10 active torsions:
REMARK  status: ('A' for Active; 'I' for Inactive)
REMARK    1  A    between atoms: C_1  and  C_2
REMARK    2  A    between atoms: C_2  and  C_3
REMARK    3  A    between atoms: C_2  and  O_4
REMARK    4  A    between atoms: O_4  and  C_5
REMARK    5  A    between atoms: C_14  and  C_15
REMARK    6  A    between atoms: C_15  and  C_16
REMARK    7  A    between atoms: C_16  and  C_17
REMARK    8  A    between atoms: C_17  and  O_18
REMARK    9  A    between atoms: O_18  and  C_19
REMARK   10  A    between atoms: C_22  and  C_23
REMARK                            x       y       z     vdW  Elec       q    Type
REMARK                         _______ _______ _______ _____ _____    ______ ____
ROOT
ATOM      1  C   UNL     1       1.048   4.145  20.249  0.00  0.00    +0.000 C 
ENDROOT
BRANCH   1  11
ATOM      2  C   UNL     1       5.839   5.820  15.606  0.00  0.00    +0.000 C 
ATOM      3  O   UNL     1       5.487   6.932  15.229  0.00  0.00    +0.000 OA
ATOM      4  N   UNL     1       5.379   5.230  16.767  0.00  0.00    +0.000 N 
ATOM      5  C   UNL     1       4.351   5.903  17.542  0.00  0.00    +0.000 C 
ATOM      6  C   UNL     1       3.118   5.013  17.636  0.00  0.00    +0.000 C 
ATOM      7  C   UNL     1       3.493   3.655  18.255  0.00  0.00    +0.000 C 
ATOM      8  C   UNL     1       4.630   2.990  17.458  0.00  0.00    +0.000 C 
ATOM      9  C   UNL     1       5.817   3.940  17.290  0.00  0.00    +0.000 C 
ATOM     10  C   UNL     1       2.287   2.687  18.421  0.00  0.00    +0.000 C 
ATOM     11  C   UNL     1       2.147   3.135  19.897  0.00  0.00    +0.000 C 
ATOM     12  C   UNL     1       3.614   3.638  19.812  0.00  0.00    +0.000 C 
BRANCH   2  13
ATOM     13  O   UNL     1       6.721   5.040  14.920  0.00  0.00    +0.000 OA
BRANCH  13  15
ATOM     14  C   UNL     1       7.823   5.185  12.773  0.00  0.00    +0.000 C 
ATOM     15  C   UNL     1       6.498   4.976  13.497  0.00  0.00    +0.000 C 
ATOM     16  C   UNL     1       5.915   3.608  13.164  0.00  0.00    +0.000 C 
ENDBRANCH  13  15
ENDBRANCH   2  13
ENDBRANCH   1  11
BRANCH   1  17
ATOM     17  C   UNL     1       1.591   5.334  21.047  0.00  0.00    +0.000 C 
BRANCH  17  18
ATOM     18  C   UNL     1       1.620   6.602  20.206  0.00  0.00    +0.000 C 
BRANCH  18  19
ATOM     19  O   UNL     1       1.369   7.738  21.032  0.00  0.00    +0.000 OA
BRANCH  19  20
ATOM     20  C   UNL     1       0.946   8.855  20.361  0.00  0.00    +0.000 A 
ATOM     21  C   UNL     1       1.404   9.273  19.108  0.00  0.00    +0.000 A 
ATOM     22  C   UNL     1       0.882  10.423  18.514  0.00  0.00    +0.000 A 
ATOM     23  C   UNL     1      -0.104  11.172  19.164  0.00  0.00    +0.000 A 
ATOM     24  C   UNL     1      -0.545  10.752  20.421  0.00  0.00    +0.000 A 
ATOM     25  F   UNL     1      -1.487  11.437  21.091  0.00  0.00    +0.000 F 
ATOM     26  C   UNL     1      -0.027   9.604  21.020  0.00  0.00    +0.000 A 
BRANCH  23  27
ATOM     27  C   UNL     1      -0.635  12.374  18.475  0.00  0.00    +0.000 C 
ATOM     28  N   UNL     1      -1.545  12.196  17.477  0.00  0.00    +0.000 N 
ATOM     29  O   UNL     1      -0.267  13.500  18.787  0.00  0.00    +0.000 OA
ATOM     30  H   UNL     1      -1.872  11.282  17.184  0.00  0.00    +0.000 HD
ATOM     31  H   UNL     1      -1.899  13.016  17.005  0.00  0.00    +0.000 HD
ENDBRANCH  23  27
ENDBRANCH  19  20
ENDBRANCH  18  19
ENDBRANCH  17  18
ENDBRANCH   1  17
TORSDOF 8
ENDMDL
MODEL 4
REMARK VINA RESULT:      -7.5      6.261      8.590
REMARK  Name = 
REMARK  10 active torsions:
REMARK  status: ('A' for Active; 'I' for Inactive)
REMARK    1  A    between atoms: C_1  and  C_2
REMARK    2  A    between atoms: C_2  and  C_3
REMARK    3  A    between atoms: C_2  and  O_4
REMARK    4  A    between atoms: O_4  and  C_5
REMARK    5  A    between atoms: C_14  and  C_15
REMARK    6  A    between atoms: C_15  and  C_16
REMARK    7  A    between atoms: C_16  and  C_17
REMARK    8  A    between atoms: C_17  and  O_18
REMARK    9  A    between atoms: O_18  and  C_19
REMARK   10  A    between atoms: C_22  and  C_23
REMARK                            x       y       z     vdW  Elec       q    Type
REMARK                         _______ _______ _______ _____ _____    ______ ____
ROOT
ATOM      1  C   UNL     1       2.718   7.337  19.626  0.00  0.00    +0.000 C 
ENDROOT
BRANCH   1  11
ATOM      2  C   UNL     1       6.580   4.637  14.616  0.00  0.00    +0.000 C 
ATOM      3  O   UNL     1       7.231   5.596  14.216  0.00  0.00    +0.000 OA
ATOM      4  N   UNL     1       5.919   4.620  15.828  0.00  0.00    +0.000 N 
ATOM      5  C   UNL     1       5.898   5.825  16.639  0.00  0.00    +0.000 C 
ATOM      6  C   UNL     1       4.458   6.273  16.850  0.00  0.00    +0.000 C 
ATOM      7  C   UNL     1       3.643   5.142  17.501  0.00  0.00    +0.000 C 
ATOM      8  C   UNL     1       3.734   3.855  16.660  0.00  0.00    +0.000 C 
ATOM      9  C   UNL     1       5.189   3.482  16.376  0.00  0.00    +0.000 C 
ATOM     10  C   UNL     1       2.161   5.520  17.785  0.00  0.00    +0.000 C 
ATOM     11  C   UNL     1       2.543   5.862  19.246  0.00  0.00    +0.000 C 
ATOM     12  C   UNL     1       3.814   4.993  19.046  0.00  0.00    +0.000 C 
BRANCH   2  13
ATOM     13  O   UNL     1       6.436   3.482  13.907  0.00  0.00    +0.000 OA
BRANCH  13  15
ATOM     14  C   UNL     1       6.996   2.617  11.721  0.00  0.00    +0.000 C 
ATOM     15  C   UNL     1       6.198   3.659  12.496  0.00  0.00    +0.000 C 
ATOM     16  C   UNL     1       4.706   3.495  12.237  0.00  0.00    +0.000 C 
ENDBRANCH  13  15
ENDBRANCH   2  13
ENDBRANCH   1  11
BRANCH   1  17
ATOM     17  C   UNL     1       2.158   8.278  18.556  0.00  0.00    +0.000 C 
BRANCH  17  18
ATOM     18  C   UNL     1       1.280   9.360  19.168  0.00  0.00    +0.000 C 
BRANCH  18  19
ATOM     19  O   UNL     1       0.935   9.005  20.506  0.00  0.00    +0.000 OA
BRANCH  19  20
ATOM     20  C   UNL     1       0.084   9.878  21.131  0.00  0.00    +0.000 A 
ATOM     21  C   UNL     1      -0.148   9.942  22.509  0.00  0.00    +0.000 A 
ATOM     22  C   UNL     1      -1.028  10.891  23.033  0.00  0.00    +0.000 A 
ATOM     23  C   UNL     1      -1.687  11.790  22.188  0.00  0.00    +0.000 A 
ATOM     24  C   UNL     1      -1.457  11.708  20.812  0.00  0.00    +0.000 A 
ATOM     25  F   UNL     1      -2.069  12.544  19.955  0.00  0.00    +0.000 F 
ATOM     26  C   UNL     1      -0.581  10.762  20.283  0.00  0.00    +0.000 A 
BRANCH  23  27
ATOM     27  C   UNL     1      -2.594  12.788  22.803  0.00  0.00    +0.000 C 
ATOM     28  N   UNL     1      -2.059  13.709  23.654  0.00  0.00    +0.000 N 
ATOM     29  O   UNL     1      -3.796  12.790  22.563  0.00  0.00    +0.000 OA
ATOM     30  H   UNL     1      -1.072  13.739  23.884  0.00  0.00    +0.000 HD
ATOM     31  H   UNL     1      -2.680  14.383  24.077  0.00  0.00    +0.000 HD
ENDBRANCH  23  27
ENDBRANCH  19  20
ENDBRANCH  18  19
ENDBRANCH  17  18
ENDBRANCH   1  17
TORSDOF 8
ENDMDL
MODEL 5
REMARK VINA RESULT:      -7.5      6.032      9.497
REMARK  Name = 
REMARK  10 active torsions:
REMARK  status: ('A' for Active; 'I' for Inactive)
REMARK    1  A    between atoms: C_1  and  C_2
REMARK    2  A    between atoms: C_2  and  C_3
REMARK    3  A    between atoms: C_2  and  O_4
REMARK    4  A    between atoms: O_4  and  C_5
REMARK    5  A    between atoms: C_14  and  C_15
REMARK    6  A    between atoms: C_15  and  C_16
REMARK    7  A    between atoms: C_16  and  C_17
REMARK    8  A    between atoms: C_17  and  O_18
REMARK    9  A    between atoms: O_18  and  C_19
REMARK   10  A    between atoms: C_22  and  C_23
REMARK                            x       y       z     vdW  Elec       q    Type
REMARK                         _______ _______ _______ _____ _____    ______ ____
ROOT
ATOM      1  C   UNL     1       1.638   6.931  20.532  0.00  0.00    +0.000 C 
ENDROOT
BRANCH   1  11
ATOM      2  C   UNL     1      -0.906  13.162  19.109  0.00  0.00    +0.000 C 
ATOM      3  O   UNL     1      -0.599  13.329  17.934  0.00  0.00    +0.000 OA
ATOM      4  N   UNL     1      -0.903  11.927  19.727  0.00  0.00    +0.000 N 
ATOM      5  C   UNL     1      -0.417  10.771  18.995  0.00  0.00    +0.000 C 
ATOM      6  C   UNL     1       0.776  10.168  19.725  0.00  0.00    +0.000 C 
ATOM      7  C   UNL     1       0.381   9.797  21.165  0.00  0.00    +0.000 C 
ATOM      8  C   UNL     1      -0.193  11.021  21.903  0.00  0.00    +0.000 C 
ATOM      9  C   UNL     1      -1.323  11.670  21.101  0.00  0.00    +0.000 C 
ATOM     10  C   UNL     1       1.531   9.143  21.982  0.00  0.00    +0.000 C 
ATOM     11  C   UNL     1       0.959   7.744  21.641  0.00  0.00    +0.000 C 
ATOM     12  C   UNL     1      -0.388   8.448  21.325  0.00  0.00    +0.000 C 
BRANCH   2  13
ATOM     13  O   UNL     1      -1.283  14.177  19.936  0.00  0.00    +0.000 OA
BRANCH  13  15
ATOM     14  C   UNL     1      -0.549  16.450  19.565  0.00  0.00    +0.000 C 
ATOM     15  C   UNL     1      -0.243  15.124  20.251  0.00  0.00    +0.000 C 
ATOM     16  C   UNL     1      -0.198  15.300  21.764  0.00  0.00    +0.000 C 
ENDBRANCH  13  15
ENDBRANCH   2  13
ENDBRANCH   1  11
BRANCH   1  17
ATOM     17  C   UNL     1       1.550   5.424  20.786  0.00  0.00    +0.000 C 
BRANCH  17  18
ATOM     18  C   UNL     1       1.569   4.637  19.483  0.00  0.00    +0.000 C 
BRANCH  18  19
ATOM     19  O   UNL     1       1.911   5.499  18.400  0.00  0.00    +0.000 OA
BRANCH  19  20
ATOM     20  C   UNL     1       3.150   5.278  17.858  0.00  0.00    +0.000 A 
ATOM     21  C   UNL     1       3.611   4.060  17.351  0.00  0.00    +0.000 A 
ATOM     22  C   UNL     1       4.891   3.962  16.804  0.00  0.00    +0.000 A 
ATOM     23  C   UNL     1       5.728   5.081  16.755  0.00  0.00    +0.000 A 
ATOM     24  C   UNL     1       5.263   6.291  17.276  0.00  0.00    +0.000 A 
ATOM     25  F   UNL     1       6.028   7.395  17.259  0.00  0.00    +0.000 F 
ATOM     26  C   UNL     1       3.985   6.394  17.825  0.00  0.00    +0.000 A 
BRANCH  23  27
ATOM     27  C   UNL     1       7.071   4.921  16.145  0.00  0.00    +0.000 C 
ATOM     28  N   UNL     1       8.038   4.289  16.868  0.00  0.00    +0.000 N 
ATOM     29  O   UNL     1       7.315   5.348  15.022  0.00  0.00    +0.000 OA
ATOM     30  H   UNL     1       7.880   3.927  17.802  0.00  0.00    +0.000 HD
ATOM     31  H   UNL     1       8.953   4.188  16.453  0.00  0.00    +0.000 HD
ENDBRANCH  23  27
ENDBRANCH  19  20
ENDBRANCH  18  19
ENDBRANCH  17  18
ENDBRANCH   1  17
TORSDOF 8
ENDMDL
MODEL 6
REMARK VINA RESULT:      -7.4      6.124      9.314
REMARK  Name = 
REMARK  10 active torsions:
REMARK  status: ('A' for Active; 'I' for Inactive)
REMARK    1  A    between atoms: C_1  and  C_2
REMARK    2  A    between atoms: C_2  and  C_3
REMARK    3  A    between atoms: C_2  and  O_4
REMARK    4  A    between atoms: O_4  and  C_5
REMARK    5  A    between atoms: C_14  and  C_15
REMARK    6  A    between atoms: C_15  and  C_16
REMARK    7  A    between atoms: C_16  and  C_17
REMARK    8  A    between atoms: C_17  and  O_18
REMARK    9  A    between atoms: O_18  and  C_19
REMARK   10  A    between atoms: C_22  and  C_23
REMARK                            x       y       z     vdW  Elec       q    Type
REMARK                         _______ _______ _______ _____ _____    ______ ____
ROOT
ATOM      1  C   UNL     1       2.072   7.182  20.491  0.00  0.00    +0.000 C 
ENDROOT
BRANCH   1  11
ATOM      2  C   UNL     1       6.926   5.259  16.013  0.00  0.00    +0.000 C 
ATOM      3  O   UNL     1       7.666   6.235  15.964  0.00  0.00    +0.000 OA
ATOM      4  N   UNL     1       6.007   5.051  17.023  0.00  0.00    +0.000 N 
ATOM      5  C   UNL     1       5.822   6.078  18.032  0.00  0.00    +0.000 C 
ATOM      6  C   UNL     1       4.379   6.564  18.008  0.00  0.00    +0.000 C 
ATOM      7  C   UNL     1       3.420   5.381  18.226  0.00  0.00    +0.000 C 
ATOM      8  C   UNL     1       3.678   4.274  17.186  0.00  0.00    +0.000 C 
ATOM      9  C   UNL     1       5.154   3.875  17.159  0.00  0.00    +0.000 C 
ATOM     10  C   UNL     1       1.918   5.786  18.248  0.00  0.00    +0.000 C 
ATOM     11  C   UNL     1       1.964   5.819  19.796  0.00  0.00    +0.000 C 
ATOM     12  C   UNL     1       3.234   4.930  19.709  0.00  0.00    +0.000 C 
BRANCH   2  13
ATOM     13  O   UNL     1       6.927   4.271  15.074  0.00  0.00    +0.000 OA
BRANCH  13  15
ATOM     14  C   UNL     1       7.782   5.059  12.955  0.00  0.00    +0.000 C 
ATOM     15  C   UNL     1       6.536   4.688  13.751  0.00  0.00    +0.000 C 
ATOM     16  C   UNL     1       5.797   3.534  13.084  0.00  0.00    +0.000 C 
ENDBRANCH  13  15
ENDBRANCH   2  13
ENDBRANCH   1  11
BRANCH   1  17
ATOM     17  C   UNL     1       0.836   8.052  20.247  0.00  0.00    +0.000 C 
BRANCH  17  18
ATOM     18  C   UNL     1       1.220   9.459  19.815  0.00  0.00    +0.000 C 
BRANCH  18  19
ATOM     19  O   UNL     1       0.775   9.696  18.481  0.00  0.00    +0.000 OA
BRANCH  19  20
ATOM     20  C   UNL     1      -0.503  10.180  18.378  0.00  0.00    +0.000 A 
ATOM     21  C   UNL     1      -1.059  11.184  19.176  0.00  0.00    +0.000 A 
ATOM     22  C   UNL     1      -2.371  11.609  18.963  0.00  0.00    +0.000 A 
ATOM     23  C   UNL     1      -3.146  11.036  17.949  0.00  0.00    +0.000 A 
ATOM     24  C   UNL     1      -2.584  10.024  17.166  0.00  0.00    +0.000 A 
ATOM     25  F   UNL     1      -3.286   9.436  16.182  0.00  0.00    +0.000 F 
ATOM     26  C   UNL     1      -1.274   9.596  17.375  0.00  0.00    +0.000 A 
BRANCH  23  27
ATOM     27  C   UNL     1      -4.527  11.541  17.757  0.00  0.00    +0.000 C 
ATOM     28  N   UNL     1      -5.411  11.410  18.787  0.00  0.00    +0.000 N 
ATOM     29  O   UNL     1      -4.875  12.059  16.703  0.00  0.00    +0.000 OA
ATOM     30  H   UNL     1      -5.167  10.982  19.672  0.00  0.00    +0.000 HD
ATOM     31  H   UNL     1      -6.353  11.748  18.651  0.00  0.00    +0.000 HD
ENDBRANCH  23  27
ENDBRANCH  19  20
ENDBRANCH  18  19
ENDBRANCH  17  18
ENDBRANCH   1  17
TORSDOF 8
ENDMDL
MODEL 7
REMARK VINA RESULT:      -7.4      7.827     10.973
REMARK  Name = 
REMARK  10 active torsions:
REMARK  status: ('A' for Active; 'I' for Inactive)
REMARK    1  A    between atoms: C_1  and  C_2
REMARK    2  A    between atoms: C_2  and  C_3
REMARK    3  A    between atoms: C_2  and  O_4
REMARK    4  A    between atoms: O_4  and  C_5
REMARK    5  A    between atoms: C_14  and  C_15
REMARK    6  A    between atoms: C_15  and  C_16
REMARK    7  A    between atoms: C_16  and  C_17
REMARK    8  A    between atoms: C_17  and  O_18
REMARK    9  A    between atoms: O_18  and  C_19
REMARK   10  A    between atoms: C_22  and  C_23
REMARK                            x       y       z     vdW  Elec       q    Type
REMARK                         _______ _______ _______ _____ _____    ______ ____
ROOT
ATOM      1  C   UNL     1       0.709  10.284  18.517  0.00  0.00    +0.000 C 
ENDROOT
BRANCH   1  11
ATOM      2  C   UNL     1      -3.615  14.066  22.300  0.00  0.00    +0.000 C 
ATOM      3  O   UNL     1      -4.135  14.808  21.474  0.00  0.00    +0.000 OA
ATOM      4  N   UNL     1      -2.933  12.914  21.964  0.00  0.00    +0.000 N 
ATOM      5  C   UNL     1      -2.724  12.600  20.562  0.00  0.00    +0.000 C 
ATOM      6  C   UNL     1      -1.231  12.526  20.271  0.00  0.00    +0.000 C 
ATOM      7  C   UNL     1      -0.566  11.484  21.187  0.00  0.00    +0.000 C 
ATOM      8  C   UNL     1      -0.856  11.798  22.667  0.00  0.00    +0.000 C 
ATOM      9  C   UNL     1      -2.356  11.967  22.913  0.00  0.00    +0.000 C 
ATOM     10  C   UNL     1       0.961  11.316  20.941  0.00  0.00    +0.000 C 
ATOM     11  C   UNL     1       0.666  10.092  20.038  0.00  0.00    +0.000 C 
ATOM     12  C   UNL     1      -0.718   9.998  20.734  0.00  0.00    +0.000 C 
BRANCH   2  13
ATOM     13  O   UNL     1      -3.650  14.299  23.643  0.00  0.00    +0.000 OA
BRANCH  13  15
ATOM     14  C   UNL     1      -4.018  16.346  24.875  0.00  0.00    +0.000 C 
ATOM     15  C   UNL     1      -3.021  15.526  24.065  0.00  0.00    +0.000 C 
ATOM     16  C   UNL     1      -1.803  15.173  24.911  0.00  0.00    +0.000 C 
ENDBRANCH  13  15
ENDBRANCH   2  13
ENDBRANCH   1  11
BRANCH   1  17
ATOM     17  C   UNL     1       1.969   9.677  17.894  0.00  0.00    +0.000 C 
BRANCH  17  18
ATOM     18  C   UNL     1       2.099   8.198  18.227  0.00  0.00    +0.000 C 
BRANCH  18  19
ATOM     19  O   UNL     1       3.259   7.659  17.596  0.00  0.00    +0.000 OA
BRANCH  19  20
ATOM     20  C   UNL     1       3.529   6.353  17.910  0.00  0.00    +0.000 A 
ATOM     21  C   UNL     1       4.801   5.774  17.956  0.00  0.00    +0.000 A 
ATOM     22  C   UNL     1       4.954   4.432  18.309  0.00  0.00    +0.000 A 
ATOM     23  C   UNL     1       3.837   3.650  18.621  0.00  0.00    +0.000 A 
ATOM     24  C   UNL     1       2.570   4.235  18.559  0.00  0.00    +0.000 A 
ATOM     25  F   UNL     1       1.464   3.527  18.844  0.00  0.00    +0.000 F 
ATOM     26  C   UNL     1       2.412   5.574  18.207  0.00  0.00    +0.000 A 
BRANCH  23  27
ATOM     27  C   UNL     1       4.063   2.236  19.007  0.00  0.00    +0.000 C 
ATOM     28  N   UNL     1       4.943   1.974  20.014  0.00  0.00    +0.000 N 
ATOM     29  O   UNL     1       3.480   1.320  18.438  0.00  0.00    +0.000 OA
ATOM     30  H   UNL     1       5.450   2.701  20.506  0.00  0.00    +0.000 HD
ATOM     31  H   UNL     1       5.100   1.010  20.270  0.00  0.00    +0.000 HD
ENDBRANCH  23  27
ENDBRANCH  19  20
ENDBRANCH  18  19
ENDBRANCH  17  18
ENDBRANCH   1  17
TORSDOF 8
ENDMDL
MODEL 8
REMARK VINA RESULT:      -7.4      1.643      2.203
REMARK  Name = 
REMARK  10 active torsions:
REMARK  status: ('A' for Active; 'I' for Inactive)
REMARK    1  A    between atoms: C_1  and  C_2
REMARK    2  A    between atoms: C_2  and  C_3
REMARK    3  A    between atoms: C_2  and  O_4
REMARK    4  A    between atoms: O_4  and  C_5
REMARK    5  A    between atoms: C_14  and  C_15
REMARK    6  A    between atoms: C_15  and  C_16
REMARK    7  A    between atoms: C_16  and  C_17
REMARK    8  A    between atoms: C_17  and  O_18
REMARK    9  A    between atoms: O_18  and  C_19
REMARK   10  A    between atoms: C_22  and  C_23
REMARK                            x       y       z     vdW  Elec       q    Type
REMARK                         _______ _______ _______ _____ _____    ______ ____
ROOT
ATOM      1  C   UNL     1       7.963   7.210  18.164  0.00  0.00    +0.000 C 
ENDROOT
BRANCH   1  11
ATOM      2  C   UNL     1       1.751   4.651  19.640  0.00  0.00    +0.000 C 
ATOM      3  O   UNL     1       1.519   5.105  20.755  0.00  0.00    +0.000 OA
ATOM      4  N   UNL     1       2.725   5.157  18.802  0.00  0.00    +0.000 N 
ATOM      5  C   UNL     1       3.595   6.213  19.286  0.00  0.00    +0.000 C 
ATOM      6  C   UNL     1       5.043   5.740  19.250  0.00  0.00    +0.000 C 
ATOM      7  C   UNL     1       5.421   5.308  17.822  0.00  0.00    +0.000 C 
ATOM      8  C   UNL     1       4.445   4.236  17.302  0.00  0.00    +0.000 C 
ATOM      9  C   UNL     1       2.993   4.695  17.444  0.00  0.00    +0.000 C 
ATOM     10  C   UNL     1       6.896   4.836  17.679  0.00  0.00    +0.000 C 
ATOM     11  C   UNL     1       7.285   6.249  17.178  0.00  0.00    +0.000 C 
ATOM     12  C   UNL     1       5.785   6.469  16.843  0.00  0.00    +0.000 C 
BRANCH   2  13
ATOM     13  O   UNL     1       1.075   3.596  19.105  0.00  0.00    +0.000 OA
BRANCH  13  15
ATOM     14  C   UNL     1       2.557   1.686  19.071  0.00  0.00    +0.000 C 
ATOM     15  C   UNL     1       1.339   2.324  19.730  0.00  0.00    +0.000 C 
ATOM     16  C   UNL     1       1.594   2.562  21.213  0.00  0.00    +0.000 C 
ENDBRANCH  13  15
ENDBRANCH   2  13
ENDBRANCH   1  11
BRANCH   1  17
ATOM     17  C   UNL     1       7.937   8.658  17.668  0.00  0.00    +0.000 C 
BRANCH  17  18
ATOM     18  C   UNL     1       8.689   9.585  18.612  0.00  0.00    +0.000 C 
BRANCH  18  19
ATOM     19  O   UNL     1       9.583  10.412  17.870  0.00  0.00    +0.000 OA
BRANCH  19  20
ATOM     20  C   UNL     1       9.748  11.676  18.373  0.00  0.00    +0.000 A 
ATOM     21  C   UNL     1      10.685  12.050  19.341  0.00  0.00    +0.000 A 
ATOM     22  C   UNL     1      10.772  13.378  19.762  0.00  0.00    +0.000 A 
ATOM     23  C   UNL     1       9.926  14.350  19.220  0.00  0.00    +0.000 A 
ATOM     24  C   UNL     1       8.985  13.963  18.262  0.00  0.00    +0.000 A 
ATOM     25  F   UNL     1       8.144  14.856  17.714  0.00  0.00    +0.000 F 
ATOM     26  C   UNL     1       8.893  12.638  17.839  0.00  0.00    +0.000 A 
BRANCH  23  27
ATOM     27  C   UNL     1      10.078  15.748  19.692  0.00  0.00    +0.000 C 
ATOM     28  N   UNL     1       9.829  16.017  21.005  0.00  0.00    +0.000 N 
ATOM     29  O   UNL     1      10.414  16.645  18.927  0.00  0.00    +0.000 OA
ATOM     30  H   UNL     1       9.543  15.306  21.669  0.00  0.00    +0.000 HD
ATOM     31  H   UNL     1       9.926  16.971  21.321  0.00  0.00    +0.000 HD
ENDBRANCH  23  27
ENDBRANCH  19  20
ENDBRANCH  18  19
ENDBRANCH  17  18
ENDBRANCH   1  17
TORSDOF 8
ENDMDL
MODEL 9
REMARK VINA RESULT:      -7.3      1.242      1.709
REMARK  Name = 
REMARK  10 active torsions:
REMARK  status: ('A' for Active; 'I' for Inactive)
REMARK    1  A    between atoms: C_1  and  C_2
REMARK    2  A    between atoms: C_2  and  C_3
REMARK    3  A    between atoms: C_2  and  O_4
REMARK    4  A    between atoms: O_4  and  C_5
REMARK    5  A    between atoms: C_14  and  C_15
REMARK    6  A    between atoms: C_15  and  C_16
REMARK    7  A    between atoms: C_16  and  C_17
REMARK    8  A    between atoms: C_17  and  O_18
REMARK    9  A    between atoms: O_18  and  C_19
REMARK   10  A    between atoms: C_22  and  C_23
REMARK                            x       y       z     vdW  Elec       q    Type
REMARK                         _______ _______ _______ _____ _____    ______ ____
ROOT
ATOM      1  C   UNL     1       7.930   7.090  18.178  0.00  0.00    +0.000 C 
ENDROOT
BRANCH   1  11
ATOM      2  C   UNL     1       1.674   4.657  19.682  0.00  0.00    +0.000 C 
ATOM      3  O   UNL     1       1.463   5.101  20.806  0.00  0.00    +0.000 OA
ATOM      4  N   UNL     1       2.652   5.151  18.841  0.00  0.00    +0.000 N 
ATOM      5  C   UNL     1       3.551   6.180  19.331  0.00  0.00    +0.000 C 
ATOM      6  C   UNL     1       4.986   5.674  19.274  0.00  0.00    +0.000 C 
ATOM      7  C   UNL     1       5.341   5.252  17.837  0.00  0.00    +0.000 C 
ATOM      8  C   UNL     1       4.335   4.210  17.313  0.00  0.00    +0.000 C 
ATOM      9  C   UNL     1       2.896   4.700  17.475  0.00  0.00    +0.000 C 
ATOM     10  C   UNL     1       6.803   4.749  17.674  0.00  0.00    +0.000 C 
ATOM     11  C   UNL     1       7.220   6.158  17.187  0.00  0.00    +0.000 C 
ATOM     12  C   UNL     1       5.722   6.418  16.870  0.00  0.00    +0.000 C 
BRANCH   2  13
ATOM     13  O   UNL     1       0.969   3.624  19.141  0.00  0.00    +0.000 OA
BRANCH  13  15
ATOM     14  C   UNL     1       2.353   1.649  18.992  0.00  0.00    +0.000 C 
ATOM     15  C   UNL     1       1.217   2.336  19.740  0.00  0.00    +0.000 C 
ATOM     16  C   UNL     1       1.589   2.552  21.201  0.00  0.00    +0.000 C 
ENDBRANCH  13  15
ENDBRANCH   2  13
ENDBRANCH   1  11
BRANCH   1  17
ATOM     17  C   UNL     1       7.974   8.536  17.678  0.00  0.00    +0.000 C 
BRANCH  17  18
ATOM     18  C   UNL     1       8.689   9.446  18.667  0.00  0.00    +0.000 C 
BRANCH  18  19
ATOM     19  O   UNL     1       9.373  10.483  17.966  0.00  0.00    +0.000 OA
BRANCH  19  20
ATOM     20  C   UNL     1       9.478  11.666  18.649  0.00  0.00    +0.000 A 
ATOM     21  C   UNL     1       9.417  12.942  18.079  0.00  0.00    +0.000 A 
ATOM     22  C   UNL     1       9.518  14.079  18.882  0.00  0.00    +0.000 A 
ATOM     23  C   UNL     1       9.681  13.956  20.266  0.00  0.00    +0.000 A 
ATOM     24  C   UNL     1       9.754  12.677  20.823  0.00  0.00    +0.000 A 
ATOM     25  F   UNL     1       9.915  12.504  22.146  0.00  0.00    +0.000 F 
ATOM     26  C   UNL     1       9.654  11.538  20.025  0.00  0.00    +0.000 A 
BRANCH  23  27
ATOM     27  C   UNL     1       9.764  15.200  21.071  0.00  0.00    +0.000 C 
ATOM     28  N   UNL     1       8.681  16.028  21.092  0.00  0.00    +0.000 N 
ATOM     29  O   UNL     1      10.776  15.485  21.700  0.00  0.00    +0.000 OA
ATOM     30  H   UNL     1       7.827  15.832  20.582  0.00  0.00    +0.000 HD
ATOM     31  H   UNL     1       8.742  16.877  21.635  0.00  0.00    +0.000 HD
ENDBRANCH  23  27
ENDBRANCH  19  20
ENDBRANCH  18  19
ENDBRANCH  17  18
ENDBRANCH   1  17
TORSDOF 8
ENDMDL
