MODEL 1
REMARK VINA RESULT:      -9.5      0.000      0.000
REMARK  Name = 
REMARK  5 active torsions:
REMARK  status: ('A' for Active; 'I' for Inactive)
REMARK    1  A    between atoms: C_2  and  C_3
REMARK    2  A    between atoms: C_3  and  C_4
REMARK    3  A    between atoms: C_7  and  C_8
REMARK    4  A    between atoms: C_11  and  N_12
REMARK    5  A    between atoms: C_13  and  C_14
REMARK                            x       y       z     vdW  Elec       q    Type
REMARK                         _______ _______ _______ _____ _____    ______ ____
ROOT
ATOM      1  C   UNL     1       0.886  10.697  18.839  0.00  0.00    +0.000 A 
ATOM      2  C   UNL     1       1.661  11.795  18.501  0.00  0.00    +0.000 A 
ATOM      3  N   UNL     1       1.182  13.061  18.454  0.00  0.00    +0.000 NA
ATOM      4  C   UNL     1      -0.130  13.215  18.728  0.00  0.00    +0.000 A 
ATOM      5  C   UNL     1      -0.955  12.119  19.051  0.00  0.00    +0.000 A 
ATOM      6  N   UNL     1      -0.430  10.859  19.114  0.00  0.00    +0.000 NA
ENDROOT
BRANCH   5   7
ATOM      7  C   UNL     1      -2.434  12.159  19.201  0.00  0.00    +0.000 A 
ATOM      8  C   UNL     1      -3.342  11.732  18.201  0.00  0.00    +0.000 A 
ATOM      9  C   UNL     1      -4.714  11.598  18.449  0.00  0.00    +0.000 A 
ATOM     10  C   UNL     1      -5.167  11.958  19.701  0.00  0.00    +0.000 A 
ATOM     11  C   UNL     1      -4.338  12.501  20.684  0.00  0.00    +0.000 A 
ATOM     12  C   UNL     1      -2.978  12.586  20.436  0.00  0.00    +0.000 A 
ATOM     13  C   UNL     1      -5.141  12.840  21.891  0.00  0.00    +0.000 C 
ATOM     14  C   UNL     1      -4.556  13.002  23.258  0.00  0.00    +0.000 C 
ATOM     15  C   UNL     1      -5.054  14.208  22.509  0.00  0.00    +0.000 C 
ATOM     16  N   UNL     1      -6.426  12.284  21.596  0.00  0.00    +0.000 N 
ATOM     17  C   UNL     1      -6.513  11.814  20.296  0.00  0.00    +0.000 C 
ATOM     18  O   UNL     1      -7.486  11.332  19.747  0.00  0.00    +0.000 OA
ATOM     19  H   UNL     1      -7.209  12.242  22.230  0.00  0.00    +0.000 HD
ENDBRANCH   5   7
BRANCH   1  23
ATOM     20  C   UNL     1       2.452   6.679  19.241  0.00  0.00    +0.000 A 
ATOM     21  C   UNL     1       1.841   7.344  20.314  0.00  0.00    +0.000 A 
ATOM     22  C   UNL     1       1.327   8.636  20.166  0.00  0.00    +0.000 A 
ATOM     23  C   UNL     1       1.408   9.327  18.949  0.00  0.00    +0.000 A 
ATOM     24  C   UNL     1       2.011   8.661  17.872  0.00  0.00    +0.000 A 
ATOM     25  C   UNL     1       2.534   7.369  18.017  0.00  0.00    +0.000 A 
BRANCH  20  26
ATOM     26  C   UNL     1       2.958   5.229  19.345  0.00  0.00    +0.000 C 
ATOM     27  C   UNL     1       2.483   4.334  18.172  0.00  0.00    +0.000 C 
ATOM     28  C   UNL     1       2.873   2.878  18.371  0.00  0.00    +0.000 C 
ATOM     29  O   UNL     1       2.336   2.399  19.599  0.00  0.00    +0.000 OA
ATOM     30  C   UNL     1       2.847   3.097  20.731  0.00  0.00    +0.000 C 
ATOM     31  C   UNL     1       2.476   4.579  20.666  0.00  0.00    +0.000 C 
BRANCH  26  33
ATOM     32  N   UNL     1       5.607   5.260  19.339  0.00  0.00    +0.000 NA
ATOM     33  C   UNL     1       4.448   5.253  19.327  0.00  0.00    +0.000 C 
ENDBRANCH  26  33
ENDBRANCH  20  26
ENDBRANCH   1  23
BRANCH   4  34
ATOM     34  N   UNL     1      -0.555  14.541  18.668  0.00  0.00    +0.000 N 
ATOM     35  H   UNL     1      -0.791  14.730  17.697  0.00  0.00    +0.000 HD
ATOM     36  H   UNL     1      -1.336  14.715  19.290  0.00  0.00    +0.000 HD
ENDBRANCH   4  34
TORSDOF 5
ENDMDL
MODEL 2
REMARK VINA RESULT:      -9.4      1.029      1.398
REMARK  Name = 
REMARK  5 active torsions:
REMARK  status: ('A' for Active; 'I' for Inactive)
REMARK    1  A    between atoms: C_2  and  C_3
REMARK    2  A    between atoms: C_3  and  C_4
REMARK    3  A    between atoms: C_7  and  C_8
REMARK    4  A    between atoms: C_11  and  N_12
REMARK    5  A    between atoms: C_13  and  C_14
REMARK                            x       y       z     vdW  Elec       q    Type
REMARK                         _______ _______ _______ _____ _____    ______ ____
ROOT
ATOM      1  C   UNL     1       0.711  10.978  18.973  0.00  0.00    +0.000 A 
ATOM      2  C   UNL     1       1.445  12.113  18.672  0.00  0.00    +0.000 A 
ATOM      3  N   UNL     1       0.930  13.365  18.704  0.00  0.00    +0.000 NA
ATOM      4  C   UNL     1      -0.377  13.468  19.023  0.00  0.00    +0.000 A 
ATOM      5  C   UNL     1      -1.162  12.333  19.310  0.00  0.00    +0.000 A 
ATOM      6  N   UNL     1      -0.601  11.087  19.293  0.00  0.00    +0.000 NA
ENDROOT
BRANCH   5   7
ATOM      7  C   UNL     1      -2.636  12.323  19.504  0.00  0.00    +0.000 A 
ATOM      8  C   UNL     1      -3.559  11.878  18.525  0.00  0.00    +0.000 A 
ATOM      9  C   UNL     1      -4.918  11.696  18.811  0.00  0.00    +0.000 A 
ATOM     10  C   UNL     1      -5.346  12.027  20.080  0.00  0.00    +0.000 A 
ATOM     11  C   UNL     1      -4.506  12.585  21.045  0.00  0.00    +0.000 A 
ATOM     12  C   UNL     1      -3.157  12.717  20.759  0.00  0.00    +0.000 A 
ATOM     13  C   UNL     1      -5.284  12.883  22.279  0.00  0.00    +0.000 C 
ATOM     14  C   UNL     1      -4.665  13.048  23.630  0.00  0.00    +0.000 C 
ATOM     15  C   UNL     1      -5.223  14.246  22.911  0.00  0.00    +0.000 C 
ATOM     16  N   UNL     1      -6.558  12.289  22.014  0.00  0.00    +0.000 N 
ATOM     17  C   UNL     1      -6.668  11.831  20.711  0.00  0.00    +0.000 C 
ATOM     18  O   UNL     1      -7.640  11.324  20.184  0.00  0.00    +0.000 OA
ATOM     19  H   UNL     1      -7.320  12.213  22.670  0.00  0.00    +0.000 HD
ENDBRANCH   5   7
BRANCH   1  23
ATOM     20  C   UNL     1       2.397   6.992  19.121  0.00  0.00    +0.000 A 
ATOM     21  C   UNL     1       1.812   7.588  20.247  0.00  0.00    +0.000 A 
ATOM     22  C   UNL     1       1.259   8.870  20.182  0.00  0.00    +0.000 A 
ATOM     23  C   UNL     1       1.273   9.620  18.997  0.00  0.00    +0.000 A 
ATOM     24  C   UNL     1       1.850   9.022  17.867  0.00  0.00    +0.000 A 
ATOM     25  C   UNL     1       2.412   7.741  17.929  0.00  0.00    +0.000 A 
BRANCH  20  26
ATOM     26  C   UNL     1       2.945   5.553  19.136  0.00  0.00    +0.000 C 
ATOM     27  C   UNL     1       4.493   5.492  19.140  0.00  0.00    +0.000 C 
ATOM     28  C   UNL     1       5.009   4.068  19.009  0.00  0.00    +0.000 C 
ATOM     29  O   UNL     1       4.500   3.479  17.818  0.00  0.00    +0.000 OA
ATOM     30  C   UNL     1       3.079   3.380  17.818  0.00  0.00    +0.000 C 
ATOM     31  C   UNL     1       2.440   4.766  17.901  0.00  0.00    +0.000 C 
BRANCH  26  33
ATOM     32  N   UNL     1       2.108   4.352  21.344  0.00  0.00    +0.000 NA
ATOM     33  C   UNL     1       2.459   4.882  20.376  0.00  0.00    +0.000 C 
ENDBRANCH  26  33
ENDBRANCH  20  26
ENDBRANCH   1  23
BRANCH   4  34
ATOM     34  N   UNL     1      -0.839  14.783  19.043  0.00  0.00    +0.000 N 
ATOM     35  H   UNL     1      -0.438  15.222  19.867  0.00  0.00    +0.000 HD
ATOM     36  H   UNL     1      -0.601  15.279  18.192  0.00  0.00    +0.000 HD
ENDBRANCH   4  34
TORSDOF 5
ENDMDL
MODEL 3
REMARK VINA RESULT:      -9.2      0.990      1.980
REMARK  Name = 
REMARK  5 active torsions:
REMARK  status: ('A' for Active; 'I' for Inactive)
REMARK    1  A    between atoms: C_2  and  C_3
REMARK    2  A    between atoms: C_3  and  C_4
REMARK    3  A    between atoms: C_7  and  C_8
REMARK    4  A    between atoms: C_11  and  N_12
REMARK    5  A    between atoms: C_13  and  C_14
REMARK                            x       y       z     vdW  Elec       q    Type
REMARK                         _______ _______ _______ _____ _____    ______ ____
ROOT
ATOM      1  C   UNL     1       0.736  10.796  19.119  0.00  0.00    +0.000 A 
ATOM      2  C   UNL     1       1.404  11.855  18.527  0.00  0.00    +0.000 A 
ATOM      3  N   UNL     1       0.932  13.124  18.518  0.00  0.00    +0.000 NA
ATOM      4  C   UNL     1      -0.269  13.321  19.100  0.00  0.00    +0.000 A 
ATOM      5  C   UNL     1      -0.990  12.263  19.690  0.00  0.00    +0.000 A 
ATOM      6  N   UNL     1      -0.469  11.000  19.703  0.00  0.00    +0.000 NA
ENDROOT
BRANCH   5   7
ATOM      7  C   UNL     1      -2.384  12.341  20.201  0.00  0.00    +0.000 A 
ATOM      8  C   UNL     1      -2.717  12.620  21.550  0.00  0.00    +0.000 A 
ATOM      9  C   UNL     1      -4.033  12.881  21.953  0.00  0.00    +0.000 A 
ATOM     10  C   UNL     1      -5.017  12.796  20.990  0.00  0.00    +0.000 A 
ATOM     11  C   UNL     1      -4.763  12.404  19.674  0.00  0.00    +0.000 A 
ATOM     12  C   UNL     1      -3.451  12.193  19.283  0.00  0.00    +0.000 A 
ATOM     13  C   UNL     1      -6.038  12.353  18.908  0.00  0.00    +0.000 C 
ATOM     14  C   UNL     1      -6.114  12.422  17.417  0.00  0.00    +0.000 C 
ATOM     15  C   UNL     1      -6.409  11.126  18.121  0.00  0.00    +0.000 C 
ATOM     16  N   UNL     1      -6.989  12.916  19.817  0.00  0.00    +0.000 N 
ATOM     17  C   UNL     1      -6.454  13.131  21.077  0.00  0.00    +0.000 C 
ATOM     18  O   UNL     1      -7.028  13.555  22.062  0.00  0.00    +0.000 OA
ATOM     19  H   UNL     1      -7.953  13.126  19.606  0.00  0.00    +0.000 HD
ENDBRANCH   5   7
BRANCH   1  23
ATOM     20  C   UNL     1       2.324   6.776  19.395  0.00  0.00    +0.000 A 
ATOM     21  C   UNL     1       1.724   7.409  20.492  0.00  0.00    +0.000 A 
ATOM     22  C   UNL     1       1.202   8.702  20.386  0.00  0.00    +0.000 A 
ATOM     23  C   UNL     1       1.265   9.426  19.187  0.00  0.00    +0.000 A 
ATOM     24  C   UNL     1       1.858   8.791  18.085  0.00  0.00    +0.000 A 
ATOM     25  C   UNL     1       2.388   7.499  18.189  0.00  0.00    +0.000 A 
BRANCH  20  26
ATOM     26  C   UNL     1       2.837   5.325  19.454  0.00  0.00    +0.000 C 
ATOM     27  C   UNL     1       2.392   4.474  18.239  0.00  0.00    +0.000 C 
ATOM     28  C   UNL     1       2.788   3.013  18.390  0.00  0.00    +0.000 C 
ATOM     29  O   UNL     1       2.230   2.485  19.588  0.00  0.00    +0.000 OA
ATOM     30  C   UNL     1       2.714   3.142  20.755  0.00  0.00    +0.000 C 
ATOM     31  C   UNL     1       2.334   4.623  20.739  0.00  0.00    +0.000 C 
BRANCH  26  33
ATOM     32  N   UNL     1       5.485   5.416  19.473  0.00  0.00    +0.000 NA
ATOM     33  C   UNL     1       4.328   5.360  19.466  0.00  0.00    +0.000 C 
ENDBRANCH  26  33
ENDBRANCH  20  26
ENDBRANCH   1  23
BRANCH   4  34
ATOM     34  N   UNL     1      -0.692  14.648  19.060  0.00  0.00    +0.000 N 
ATOM     35  H   UNL     1      -1.552  14.666  18.518  0.00  0.00    +0.000 HD
ATOM     36  H   UNL     1      -0.819  15.031  19.989  0.00  0.00    +0.000 HD
ENDBRANCH   4  34
TORSDOF 5
ENDMDL
MODEL 4
REMARK VINA RESULT:      -9.2      1.163      1.516
REMARK  Name = 
REMARK  5 active torsions:
REMARK  status: ('A' for Active; 'I' for Inactive)
REMARK    1  A    between atoms: C_2  and  C_3
REMARK    2  A    between atoms: C_3  and  C_4
REMARK    3  A    between atoms: C_7  and  C_8
REMARK    4  A    between atoms: C_11  and  N_12
REMARK    5  A    between atoms: C_13  and  C_14
REMARK                            x       y       z     vdW  Elec       q    Type
REMARK                         _______ _______ _______ _____ _____    ______ ____
ROOT
ATOM      1  C   UNL     1       0.764  10.953  18.985  0.00  0.00    +0.000 A 
ATOM      2  C   UNL     1       1.518  12.094  18.769  0.00  0.00    +0.000 A 
ATOM      3  N   UNL     1       1.019  13.349  18.873  0.00  0.00    +0.000 NA
ATOM      4  C   UNL     1      -0.292  13.450  19.174  0.00  0.00    +0.000 A 
ATOM      5  C   UNL     1      -1.097  12.310  19.376  0.00  0.00    +0.000 A 
ATOM      6  N   UNL     1      -0.552  11.060  19.289  0.00  0.00    +0.000 NA
ENDROOT
BRANCH   5   7
ATOM      7  C   UNL     1      -2.574  12.308  19.543  0.00  0.00    +0.000 A 
ATOM      8  C   UNL     1      -3.483  11.877  18.544  0.00  0.00    +0.000 A 
ATOM      9  C   UNL     1      -4.847  11.703  18.805  0.00  0.00    +0.000 A 
ATOM     10  C   UNL     1      -5.296  12.026  20.068  0.00  0.00    +0.000 A 
ATOM     11  C   UNL     1      -4.470  12.570  21.053  0.00  0.00    +0.000 A 
ATOM     12  C   UNL     1      -3.115  12.695  20.792  0.00  0.00    +0.000 A 
ATOM     13  C   UNL     1      -5.267  12.863  22.275  0.00  0.00    +0.000 C 
ATOM     14  C   UNL     1      -4.672  13.013  23.638  0.00  0.00    +0.000 C 
ATOM     15  C   UNL     1      -5.209  14.221  22.920  0.00  0.00    +0.000 C 
ATOM     16  N   UNL     1      -6.541  12.280  21.982  0.00  0.00    +0.000 N 
ATOM     17  C   UNL     1      -6.630  11.834  20.674  0.00  0.00    +0.000 C 
ATOM     18  O   UNL     1      -7.597  11.338  20.126  0.00  0.00    +0.000 OA
ATOM     19  H   UNL     1      -7.315  12.205  22.624  0.00  0.00    +0.000 HD
ENDBRANCH   5   7
BRANCH   1  23
ATOM     20  C   UNL     1       2.398   6.943  18.907  0.00  0.00    +0.000 A 
ATOM     21  C   UNL     1       1.843   7.491  20.072  0.00  0.00    +0.000 A 
ATOM     22  C   UNL     1       1.305   8.781  20.080  0.00  0.00    +0.000 A 
ATOM     23  C   UNL     1       1.308   9.587  18.933  0.00  0.00    +0.000 A 
ATOM     24  C   UNL     1       1.855   9.038  17.764  0.00  0.00    +0.000 A 
ATOM     25  C   UNL     1       2.401   7.748  17.753  0.00  0.00    +0.000 A 
BRANCH  20  26
ATOM     26  C   UNL     1       2.927   5.498  18.842  0.00  0.00    +0.000 C 
ATOM     27  C   UNL     1       3.012   4.819  20.232  0.00  0.00    +0.000 C 
ATOM     28  C   UNL     1       3.671   3.450  20.158  0.00  0.00    +0.000 C 
ATOM     29  O   UNL     1       4.970   3.569  19.592  0.00  0.00    +0.000 OA
ATOM     30  C   UNL     1       4.943   4.060  18.255  0.00  0.00    +0.000 C 
ATOM     31  C   UNL     1       4.339   5.464  18.206  0.00  0.00    +0.000 C 
BRANCH  26  33
ATOM     32  N   UNL     1       1.271   4.094  17.323  0.00  0.00    +0.000 NA
ATOM     33  C   UNL     1       1.991   4.698  18.000  0.00  0.00    +0.000 C 
ENDBRANCH  26  33
ENDBRANCH  20  26
ENDBRANCH   1  23
BRANCH   4  34
ATOM     34  N   UNL     1      -0.738  14.767  19.270  0.00  0.00    +0.000 N 
ATOM     35  H   UNL     1      -0.035  15.347  18.822  0.00  0.00    +0.000 HD
ATOM     36  H   UNL     1      -1.654  14.885  18.852  0.00  0.00    +0.000 HD
ENDBRANCH   4  34
TORSDOF 5
ENDMDL
MODEL 5
REMARK VINA RESULT:      -9.2      1.379      2.407
REMARK  Name = 
REMARK  5 active torsions:
REMARK  status: ('A' for Active; 'I' for Inactive)
REMARK    1  A    between atoms: C_2  and  C_3
REMARK    2  A    between atoms: C_3  and  C_4
REMARK    3  A    between atoms: C_7  and  C_8
REMARK    4  A    between atoms: C_11  and  N_12
REMARK    5  A    between atoms: C_13  and  C_14
REMARK                            x       y       z     vdW  Elec       q    Type
REMARK                         _______ _______ _______ _____ _____    ______ ____
ROOT
ATOM      1  C   UNL     1       0.682  11.002  19.102  0.00  0.00    +0.000 A 
ATOM      2  C   UNL     1       1.311  12.112  18.563  0.00  0.00    +0.000 A 
ATOM      3  N   UNL     1       0.798  13.363  18.624  0.00  0.00    +0.000 NA
ATOM      4  C   UNL     1      -0.405  13.490  19.222  0.00  0.00    +0.000 A 
ATOM      5  C   UNL     1      -1.087  12.380  19.760  0.00  0.00    +0.000 A 
ATOM      6  N   UNL     1      -0.525  11.135  19.703  0.00  0.00    +0.000 NA
ENDROOT
BRANCH   5   7
ATOM      7  C   UNL     1      -2.478  12.385  20.282  0.00  0.00    +0.000 A 
ATOM      8  C   UNL     1      -2.813  12.618  21.640  0.00  0.00    +0.000 A 
ATOM      9  C   UNL     1      -4.135  12.811  22.058  0.00  0.00    +0.000 A 
ATOM     10  C   UNL     1      -5.122  12.706  21.100  0.00  0.00    +0.000 A 
ATOM     11  C   UNL     1      -4.862  12.357  19.774  0.00  0.00    +0.000 A 
ATOM     12  C   UNL     1      -3.545  12.212  19.369  0.00  0.00    +0.000 A 
ATOM     13  C   UNL     1      -6.140  12.268  19.016  0.00  0.00    +0.000 C 
ATOM     14  C   UNL     1      -6.230  12.370  17.527  0.00  0.00    +0.000 C 
ATOM     15  C   UNL     1      -6.464  11.046  18.202  0.00  0.00    +0.000 C 
ATOM     16  N   UNL     1      -7.107  12.768  19.945  0.00  0.00    +0.000 N 
ATOM     17  C   UNL     1      -6.571  12.977  21.205  0.00  0.00    +0.000 C 
ATOM     18  O   UNL     1      -7.155  13.352  22.205  0.00  0.00    +0.000 OA
ATOM     19  H   UNL     1      -8.081  12.941  19.745  0.00  0.00    +0.000 HD
ENDBRANCH   5   7
BRANCH   1  23
ATOM     20  C   UNL     1       2.401   7.027  19.154  0.00  0.00    +0.000 A 
ATOM     21  C   UNL     1       1.800   7.586  20.291  0.00  0.00    +0.000 A 
ATOM     22  C   UNL     1       1.236   8.865  20.256  0.00  0.00    +0.000 A 
ATOM     23  C   UNL     1       1.255   9.648  19.093  0.00  0.00    +0.000 A 
ATOM     24  C   UNL     1       1.848   9.088  17.952  0.00  0.00    +0.000 A 
ATOM     25  C   UNL     1       2.421   7.810  17.984  0.00  0.00    +0.000 A 
BRANCH  20  26
ATOM     26  C   UNL     1       2.962   5.593  19.133  0.00  0.00    +0.000 C 
ATOM     27  C   UNL     1       4.510   5.546  19.119  0.00  0.00    +0.000 C 
ATOM     28  C   UNL     1       5.037   4.129  18.953  0.00  0.00    +0.000 C 
ATOM     29  O   UNL     1       4.519   3.560  17.756  0.00  0.00    +0.000 OA
ATOM     30  C   UNL     1       3.099   3.448  17.770  0.00  0.00    +0.000 C 
ATOM     31  C   UNL     1       2.450   4.827  17.888  0.00  0.00    +0.000 C 
BRANCH  26  33
ATOM     32  N   UNL     1       2.106   4.362  21.317  0.00  0.00    +0.000 NA
ATOM     33  C   UNL     1       2.495   4.894  20.365  0.00  0.00    +0.000 C 
ENDBRANCH  26  33
ENDBRANCH  20  26
ENDBRANCH   1  23
BRANCH   4  34
ATOM     34  N   UNL     1      -0.870  14.803  19.255  0.00  0.00    +0.000 N 
ATOM     35  H   UNL     1      -0.159  15.378  18.811  0.00  0.00    +0.000 HD
ATOM     36  H   UNL     1      -1.772  14.894  18.800  0.00  0.00    +0.000 HD
ENDBRANCH   4  34
TORSDOF 5
ENDMDL
MODEL 6
REMARK VINA RESULT:      -9.1      1.485      2.473
REMARK  Name = 
REMARK  5 active torsions:
REMARK  status: ('A' for Active; 'I' for Inactive)
REMARK    1  A    between atoms: C_2  and  C_3
REMARK    2  A    between atoms: C_3  and  C_4
REMARK    3  A    between atoms: C_7  and  C_8
REMARK    4  A    between atoms: C_11  and  N_12
REMARK    5  A    between atoms: C_13  and  C_14
REMARK                            x       y       z     vdW  Elec       q    Type
REMARK                         _______ _______ _______ _____ _____    ______ ____
ROOT
ATOM      1  C   UNL     1       0.761  10.983  19.046  0.00  0.00    +0.000 A 
ATOM      2  C   UNL     1       1.406  12.113  18.571  0.00  0.00    +0.000 A 
ATOM      3  N   UNL     1       0.909  13.366  18.700  0.00  0.00    +0.000 NA
ATOM      4  C   UNL     1      -0.294  13.475  19.301  0.00  0.00    +0.000 A 
ATOM      5  C   UNL     1      -0.992  12.346  19.774  0.00  0.00    +0.000 A 
ATOM      6  N   UNL     1      -0.446  11.099  19.650  0.00  0.00    +0.000 NA
ENDROOT
BRANCH   5   7
ATOM      7  C   UNL     1      -2.385  12.340  20.293  0.00  0.00    +0.000 A 
ATOM      8  C   UNL     1      -2.722  12.525  21.657  0.00  0.00    +0.000 A 
ATOM      9  C   UNL     1      -4.045  12.711  22.078  0.00  0.00    +0.000 A 
ATOM     10  C   UNL     1      -5.030  12.647  21.114  0.00  0.00    +0.000 A 
ATOM     11  C   UNL     1      -4.768  12.345  19.777  0.00  0.00    +0.000 A 
ATOM     12  C   UNL     1      -3.450  12.207  19.370  0.00  0.00    +0.000 A 
ATOM     13  C   UNL     1      -6.044  12.291  19.012  0.00  0.00    +0.000 C 
ATOM     14  C   UNL     1      -6.129  12.447  17.528  0.00  0.00    +0.000 C 
ATOM     15  C   UNL     1      -6.372  11.101  18.153  0.00  0.00    +0.000 C 
ATOM     16  N   UNL     1      -7.010  12.762  19.956  0.00  0.00    +0.000 N 
ATOM     17  C   UNL     1      -6.478  12.922  21.224  0.00  0.00    +0.000 C 
ATOM     18  O   UNL     1      -7.063  13.264  22.235  0.00  0.00    +0.000 OA
ATOM     19  H   UNL     1      -7.982  12.948  19.760  0.00  0.00    +0.000 HD
ENDBRANCH   5   7
BRANCH   1  23
ATOM     20  C   UNL     1       2.433   6.991  18.880  0.00  0.00    +0.000 A 
ATOM     21  C   UNL     1       1.901   7.520  20.065  0.00  0.00    +0.000 A 
ATOM     22  C   UNL     1       1.351   8.805  20.101  0.00  0.00    +0.000 A 
ATOM     23  C   UNL     1       1.317   9.624  18.964  0.00  0.00    +0.000 A 
ATOM     24  C   UNL     1       1.841   9.095  17.776  0.00  0.00    +0.000 A 
ATOM     25  C   UNL     1       2.399   7.811  17.736  0.00  0.00    +0.000 A 
BRANCH  20  26
ATOM     26  C   UNL     1       2.974   5.553  18.785  0.00  0.00    +0.000 C 
ATOM     27  C   UNL     1       3.104   4.860  20.164  0.00  0.00    +0.000 C 
ATOM     28  C   UNL     1       3.773   3.499  20.058  0.00  0.00    +0.000 C 
ATOM     29  O   UNL     1       5.056   3.638  19.459  0.00  0.00    +0.000 OA
ATOM     30  C   UNL     1       4.989   4.143  18.129  0.00  0.00    +0.000 C 
ATOM     31  C   UNL     1       4.369   5.540  18.112  0.00  0.00    +0.000 C 
BRANCH  26  33
ATOM     32  N   UNL     1       1.295   4.107  17.333  0.00  0.00    +0.000 NA
ATOM     33  C   UNL     1       2.025   4.752  17.959  0.00  0.00    +0.000 C 
ENDBRANCH  26  33
ENDBRANCH  20  26
ENDBRANCH   1  23
BRANCH   4  34
ATOM     34  N   UNL     1      -0.743  14.790  19.405  0.00  0.00    +0.000 N 
ATOM     35  H   UNL     1      -0.968  14.947  20.384  0.00  0.00    +0.000 HD
ATOM     36  H   UNL     1      -0.055  15.451  19.062  0.00  0.00    +0.000 HD
ENDBRANCH   4  34
TORSDOF 5
ENDMDL
MODEL 7
REMARK VINA RESULT:      -8.9      1.687      2.542
REMARK  Name = 
REMARK  5 active torsions:
REMARK  status: ('A' for Active; 'I' for Inactive)
REMARK    1  A    between atoms: C_2  and  C_3
REMARK    2  A    between atoms: C_3  and  C_4
REMARK    3  A    between atoms: C_7  and  C_8
REMARK    4  A    between atoms: C_11  and  N_12
REMARK    5  A    between atoms: C_13  and  C_14
REMARK                            x       y       z     vdW  Elec       q    Type
REMARK                         _______ _______ _______ _____ _____    ______ ____
ROOT
ATOM      1  C   UNL     1       0.920  10.955  19.228  0.00  0.00    +0.000 A 
ATOM      2  C   UNL     1       1.446  12.070  18.598  0.00  0.00    +0.000 A 
ATOM      3  N   UNL     1       0.977  13.326  18.789  0.00  0.00    +0.000 NA
ATOM      4  C   UNL     1      -0.077  13.452  19.622  0.00  0.00    +0.000 A 
ATOM      5  C   UNL     1      -0.656  12.337  20.261  0.00  0.00    +0.000 A 
ATOM      6  N   UNL     1      -0.138  11.087  20.064  0.00  0.00    +0.000 NA
ENDROOT
BRANCH   5   7
ATOM      7  C   UNL     1      -1.912  12.345  21.055  0.00  0.00    +0.000 A 
ATOM      8  C   UNL     1      -1.957  12.233  22.467  0.00  0.00    +0.000 A 
ATOM      9  C   UNL     1      -3.135  12.443  23.193  0.00  0.00    +0.000 A 
ATOM     10  C   UNL     1      -4.283  12.707  22.474  0.00  0.00    +0.000 A 
ATOM     11  C   UNL     1      -4.323  12.707  21.079  0.00  0.00    +0.000 A 
ATOM     12  C   UNL     1      -3.139  12.541  20.378  0.00  0.00    +0.000 A 
ATOM     13  C   UNL     1      -5.714  12.963  20.614  0.00  0.00    +0.000 C 
ATOM     14  C   UNL     1      -6.052  13.475  19.251  0.00  0.00    +0.000 C 
ATOM     15  C   UNL     1      -6.366  12.049  19.614  0.00  0.00    +0.000 C 
ATOM     16  N   UNL     1      -6.407  13.289  21.822  0.00  0.00    +0.000 N 
ATOM     17  C   UNL     1      -5.628  13.089  22.950  0.00  0.00    +0.000 C 
ATOM     18  O   UNL     1      -5.957  13.237  24.113  0.00  0.00    +0.000 OA
ATOM     19  H   UNL     1      -7.361  13.611  21.885  0.00  0.00    +0.000 HD
ENDBRANCH   5   7
BRANCH   1  23
ATOM     20  C   UNL     1       2.531   6.952  18.850  0.00  0.00    +0.000 A 
ATOM     21  C   UNL     1       1.931   7.397  20.037  0.00  0.00    +0.000 A 
ATOM     22  C   UNL     1       1.402   8.687  20.140  0.00  0.00    +0.000 A 
ATOM     23  C   UNL     1       1.457   9.595  19.073  0.00  0.00    +0.000 A 
ATOM     24  C   UNL     1       2.049   9.149  17.882  0.00  0.00    +0.000 A 
ATOM     25  C   UNL     1       2.587   7.860  17.776  0.00  0.00    +0.000 A 
BRANCH  20  26
ATOM     26  C   UNL     1       3.053   5.514  18.674  0.00  0.00    +0.000 C 
ATOM     27  C   UNL     1       3.304   4.791  20.020  0.00  0.00    +0.000 C 
ATOM     28  C   UNL     1       3.954   3.429  19.824  0.00  0.00    +0.000 C 
ATOM     29  O   UNL     1       5.177   3.577  19.113  0.00  0.00    +0.000 OA
ATOM     30  C   UNL     1       4.991   4.112  17.806  0.00  0.00    +0.000 C 
ATOM     31  C   UNL     1       4.381   5.512  17.876  0.00  0.00    +0.000 C 
BRANCH  26  33
ATOM     32  N   UNL     1       1.243   4.107  17.347  0.00  0.00    +0.000 NA
ATOM     33  C   UNL     1       2.028   4.736  17.921  0.00  0.00    +0.000 C 
ENDBRANCH  26  33
ENDBRANCH  20  26
ENDBRANCH   1  23
BRANCH   4  34
ATOM     34  N   UNL     1      -0.505  14.769  19.778  0.00  0.00    +0.000 N 
ATOM     35  H   UNL     1       0.300  15.362  19.593  0.00  0.00    +0.000 HD
ATOM     36  H   UNL     1      -1.285  14.986  19.169  0.00  0.00    +0.000 HD
ENDBRANCH   4  34
TORSDOF 5
ENDMDL
MODEL 8
REMARK VINA RESULT:      -8.9      1.233      2.033
REMARK  Name = 
REMARK  5 active torsions:
REMARK  status: ('A' for Active; 'I' for Inactive)
REMARK    1  A    between atoms: C_2  and  C_3
REMARK    2  A    between atoms: C_3  and  C_4
REMARK    3  A    between atoms: C_7  and  C_8
REMARK    4  A    between atoms: C_11  and  N_12
REMARK    5  A    between atoms: C_13  and  C_14
REMARK                            x       y       z     vdW  Elec       q    Type
REMARK                         _______ _______ _______ _____ _____    ______ ____
ROOT
ATOM      1  C   UNL     1       0.779  10.788  19.390  0.00  0.00    +0.000 A 
ATOM      2  C   UNL     1       1.327  11.852  18.694  0.00  0.00    +0.000 A 
ATOM      3  N   UNL     1       0.867  13.122  18.787  0.00  0.00    +0.000 NA
ATOM      4  C   UNL     1      -0.202  13.315  19.588  0.00  0.00    +0.000 A 
ATOM      5  C   UNL     1      -0.803  12.252  20.292  0.00  0.00    +0.000 A 
ATOM      6  N   UNL     1      -0.293  10.988  20.194  0.00  0.00    +0.000 NA
ENDROOT
BRANCH   5   7
ATOM      7  C   UNL     1      -2.074  12.326  21.059  0.00  0.00    +0.000 A 
ATOM      8  C   UNL     1      -2.150  12.269  22.473  0.00  0.00    +0.000 A 
ATOM      9  C   UNL     1      -3.336  12.540  23.166  0.00  0.00    +0.000 A 
ATOM     10  C   UNL     1      -4.460  12.810  22.413  0.00  0.00    +0.000 A 
ATOM     11  C   UNL     1      -4.473  12.758  21.019  0.00  0.00    +0.000 A 
ATOM     12  C   UNL     1      -3.281  12.532  20.349  0.00  0.00    +0.000 A 
ATOM     13  C   UNL     1      -5.846  13.036  20.516  0.00  0.00    +0.000 C 
ATOM     14  C   UNL     1      -6.142  13.506  19.128  0.00  0.00    +0.000 C 
ATOM     15  C   UNL     1      -6.506  12.104  19.537  0.00  0.00    +0.000 C 
ATOM     16  N   UNL     1      -6.554  13.428  21.697  0.00  0.00    +0.000 N 
ATOM     17  C   UNL     1      -5.803  13.249  22.847  0.00  0.00    +0.000 C 
ATOM     18  O   UNL     1      -6.151  13.450  23.996  0.00  0.00    +0.000 OA
ATOM     19  H   UNL     1      -7.499  13.779  21.727  0.00  0.00    +0.000 HD
ENDBRANCH   5   7
BRANCH   1  23
ATOM     20  C   UNL     1       2.361   6.757  19.324  0.00  0.00    +0.000 A 
ATOM     21  C   UNL     1       1.769   7.299  20.474  0.00  0.00    +0.000 A 
ATOM     22  C   UNL     1       1.249   8.596  20.477  0.00  0.00    +0.000 A 
ATOM     23  C   UNL     1       1.306   9.416  19.341  0.00  0.00    +0.000 A 
ATOM     24  C   UNL     1       1.890   8.873  18.187  0.00  0.00    +0.000 A 
ATOM     25  C   UNL     1       2.418   7.576  18.181  0.00  0.00    +0.000 A 
BRANCH  20  26
ATOM     26  C   UNL     1       2.872   5.306  19.261  0.00  0.00    +0.000 C 
ATOM     27  C   UNL     1       2.431   4.562  17.975  0.00  0.00    +0.000 C 
ATOM     28  C   UNL     1       2.824   3.093  18.002  0.00  0.00    +0.000 C 
ATOM     29  O   UNL     1       2.260   2.465  19.148  0.00  0.00    +0.000 OA
ATOM     30  C   UNL     1       2.739   3.019  20.370  0.00  0.00    +0.000 C 
ATOM     31  C   UNL     1       2.362   4.496  20.479  0.00  0.00    +0.000 C 
BRANCH  26  33
ATOM     32  N   UNL     1       5.521   5.341  19.278  0.00  0.00    +0.000 NA
ATOM     33  C   UNL     1       4.362   5.336  19.283  0.00  0.00    +0.000 C 
ENDBRANCH  26  33
ENDBRANCH  20  26
ENDBRANCH   1  23
BRANCH   4  34
ATOM     34  N   UNL     1      -0.620  14.643  19.642  0.00  0.00    +0.000 N 
ATOM     35  H   UNL     1      -1.549  14.642  20.054  0.00  0.00    +0.000 HD
ATOM     36  H   UNL     1       0.029  15.220  20.166  0.00  0.00    +0.000 HD
ENDBRANCH   4  34
TORSDOF 5
ENDMDL
MODEL 9
REMARK VINA RESULT:      -8.8      1.194      1.462
REMARK  Name = 
REMARK  5 active torsions:
REMARK  status: ('A' for Active; 'I' for Inactive)
REMARK    1  A    between atoms: C_2  and  C_3
REMARK    2  A    between atoms: C_3  and  C_4
REMARK    3  A    between atoms: C_7  and  C_8
REMARK    4  A    between atoms: C_11  and  N_12
REMARK    5  A    between atoms: C_13  and  C_14
REMARK                            x       y       z     vdW  Elec       q    Type
REMARK                         _______ _______ _______ _____ _____    ______ ____
ROOT
ATOM      1  C   UNL     1       1.178  10.205  18.797  0.00  0.00    +0.000 A 
ATOM      2  C   UNL     1       2.068  11.254  18.632  0.00  0.00    +0.000 A 
ATOM      3  N   UNL     1       1.687  12.551  18.553  0.00  0.00    +0.000 NA
ATOM      4  C   UNL     1       0.361  12.791  18.612  0.00  0.00    +0.000 A 
ATOM      5  C   UNL     1      -0.577  11.748  18.753  0.00  0.00    +0.000 A 
ATOM      6  N   UNL     1      -0.153  10.452  18.856  0.00  0.00    +0.000 NA
ENDROOT
BRANCH   5   7
ATOM      7  C   UNL     1      -2.054  11.888  18.658  0.00  0.00    +0.000 A 
ATOM      8  C   UNL     1      -2.813  11.508  17.523  0.00  0.00    +0.000 A 
ATOM      9  C   UNL     1      -4.212  11.469  17.543  0.00  0.00    +0.000 A 
ATOM     10  C   UNL     1      -4.839  11.877  18.703  0.00  0.00    +0.000 A 
ATOM     11  C   UNL     1      -4.147  12.378  19.806  0.00  0.00    +0.000 A 
ATOM     12  C   UNL     1      -2.762  12.368  19.785  0.00  0.00    +0.000 A 
ATOM     13  C   UNL     1      -5.112  12.786  20.864  0.00  0.00    +0.000 C 
ATOM     14  C   UNL     1      -4.749  12.929  22.307  0.00  0.00    +0.000 C 
ATOM     15  C   UNL     1      -5.034  14.154  21.483  0.00  0.00    +0.000 C 
ATOM     16  N   UNL     1      -6.366  12.313  20.363  0.00  0.00    +0.000 N 
ATOM     17  C   UNL     1      -6.271  11.831  19.068  0.00  0.00    +0.000 C 
ATOM     18  O   UNL     1      -7.171  11.407  18.368  0.00  0.00    +0.000 OA
ATOM     19  H   UNL     1      -7.243  12.332  20.860  0.00  0.00    +0.000 HD
ENDBRANCH   5   7
BRANCH   1  23
ATOM     20  C   UNL     1       2.402   6.081  19.300  0.00  0.00    +0.000 A 
ATOM     21  C   UNL     1       1.862   6.826  20.359  0.00  0.00    +0.000 A 
ATOM     22  C   UNL     1       1.458   8.152  20.179  0.00  0.00    +0.000 A 
ATOM     23  C   UNL     1       1.583   8.799  18.942  0.00  0.00    +0.000 A 
ATOM     24  C   UNL     1       2.114   8.054  17.879  0.00  0.00    +0.000 A 
ATOM     25  C   UNL     1       2.527   6.728  18.056  0.00  0.00    +0.000 A 
BRANCH  20  26
ATOM     26  C   UNL     1       2.784   4.596  19.442  0.00  0.00    +0.000 C 
ATOM     27  C   UNL     1       4.295   4.335  19.221  0.00  0.00    +0.000 C 
ATOM     28  C   UNL     1       4.623   2.850  19.222  0.00  0.00    +0.000 C 
ATOM     29  O   UNL     1       3.861   2.187  18.220  0.00  0.00    +0.000 OA
ATOM     30  C   UNL     1       2.458   2.276  18.449  0.00  0.00    +0.000 C 
ATOM     31  C   UNL     1       1.997   3.733  18.425  0.00  0.00    +0.000 C 
BRANCH  26  33
ATOM     32  N   UNL     1       2.205   3.817  21.906  0.00  0.00    +0.000 NA
ATOM     33  C   UNL     1       2.442   4.158  20.825  0.00  0.00    +0.000 C 
ENDBRANCH  26  33
ENDBRANCH  20  26
ENDBRANCH   1  23
BRANCH   4  34
ATOM     34  N   UNL     1       0.040  14.145  18.531  0.00  0.00    +0.000 N 
ATOM     35  H   UNL     1       0.152  14.529  19.464  0.00  0.00    +0.000 HD
ATOM     36  H   UNL     1       0.613  14.627  17.848  0.00  0.00    +0.000 HD
ENDBRANCH   4  34
TORSDOF 5
ENDMDL
