MODEL 1
REMARK VINA RESULT:      -8.0      0.000      0.000
REMARK  Name = 
REMARK  9 active torsions:
REMARK  status: ('A' for Active; 'I' for Inactive)
REMARK    1  A    between atoms: C_1  and  N_2
REMARK    2  A    between atoms: N_2  and  C_3
REMARK    3  A    between atoms: C_3  and  C_4
REMARK    4  A    between atoms: C_11  and  C_13
REMARK    5  A    between atoms: C_13  and  N_14
REMARK    6  A    between atoms: C_15  and  C_17
REMARK    7  A    between atoms: C_20  and  S_21
REMARK    8  A    between atoms: S_21  and  C_22
REMARK    9  A    between atoms: C_25  and  N_26
REMARK                            x       y       z     vdW  Elec       q    Type
REMARK                         _______ _______ _______ _____ _____    ______ ____
ROOT
ATOM      1  N   UNL     1       0.625   9.453  20.320  0.00  0.00    +0.000 N 
ATOM      2  C   UNL     1       1.428   8.542  20.970  0.00  0.00    +0.000 C 
ATOM      3  O   UNL     1       1.766   8.642  22.143  0.00  0.00    +0.000 OA
ATOM      4  H   UNL     1       0.471   9.392  19.325  0.00  0.00    +0.000 HD
ENDROOT
BRANCH   2   5
ATOM      5  C   UNL     1       1.855   7.358  20.182  0.00  0.00    +0.000 A 
ATOM      6  C   UNL     1       2.472   7.483  18.931  0.00  0.00    +0.000 A 
ATOM      7  C   UNL     1       2.866   6.343  18.222  0.00  0.00    +0.000 A 
ATOM      8  C   UNL     1       2.633   5.066  18.751  0.00  0.00    +0.000 A 
ATOM      9  C   UNL     1       2.015   4.948  19.999  0.00  0.00    +0.000 A 
ATOM     10  C   UNL     1       1.634   6.087  20.726  0.00  0.00    +0.000 A 
BRANCH   8  11
ATOM     11  S   UNL     1       3.338   3.676  17.896  0.00  0.00    +0.000 S 
ATOM     12  C   UNL     1       4.470   4.379  16.726  0.00  0.00    +0.000 C 
ATOM     13  O   UNL     1       4.125   2.952  18.877  0.00  0.00    +0.000 OA
ATOM     14  O   UNL     1       2.270   3.000  17.192  0.00  0.00    +0.000 OA
ENDBRANCH   8  11
BRANCH   9  15
ATOM     15  N   UNL     1       1.619   3.663  20.539  0.00  0.00    +0.000 N 
ATOM     16  O   UNL     1       0.644   3.125  19.999  0.00  0.00    +0.000 OA
ATOM     17  O   UNL     1       2.212   3.262  21.548  0.00  0.00    +0.000 OA
ENDBRANCH   9  15
ENDBRANCH   2   5
BRANCH   1  18
ATOM     18  C   UNL     1       0.274  10.707  20.962  0.00  0.00    +0.000 C 
BRANCH  18  21
ATOM     19  C   UNL     1      -0.505  13.320  18.253  0.00  0.00    +0.000 C 
ATOM     20  N   UNL     1      -0.638  12.179  19.144  0.00  0.00    +0.000 N 
ATOM     21  C   UNL     1       0.435  11.885  19.985  0.00  0.00    +0.000 C 
ATOM     22  O   UNL     1       1.507  12.502  19.916  0.00  0.00    +0.000 OA
BRANCH  20  23
ATOM     23  C   UNL     1      -1.955  11.540  19.237  0.00  0.00    +0.000 C 
BRANCH  23  24
ATOM     24  C   UNL     1      -2.614  11.164  17.933  0.00  0.00    +0.000 A 
ATOM     25  C   UNL     1      -3.840  11.675  17.485  0.00  0.00    +0.000 A 
ATOM     26  C   UNL     1      -4.368  11.280  16.251  0.00  0.00    +0.000 A 
ATOM     27  C   UNL     1      -3.684  10.368  15.448  0.00  0.00    +0.000 A 
ATOM     28  C   UNL     1      -2.473   9.839  15.885  0.00  0.00    +0.000 A 
ATOM     29  C   UNL     1      -1.954  10.238  17.113  0.00  0.00    +0.000 A 
ATOM     30  F   UNL     1      -0.789   9.712  17.520  0.00  0.00    +0.000 F 
ENDBRANCH  23  24
ENDBRANCH  20  23
ENDBRANCH  18  21
ENDBRANCH   1  18
TORSDOF 7
ENDMDL
MODEL 2
REMARK VINA RESULT:      -7.7      1.017      1.348
REMARK  Name = 
REMARK  9 active torsions:
REMARK  status: ('A' for Active; 'I' for Inactive)
REMARK    1  A    between atoms: C_1  and  N_2
REMARK    2  A    between atoms: N_2  and  C_3
REMARK    3  A    between atoms: C_3  and  C_4
REMARK    4  A    between atoms: C_11  and  C_13
REMARK    5  A    between atoms: C_13  and  N_14
REMARK    6  A    between atoms: C_15  and  C_17
REMARK    7  A    between atoms: C_20  and  S_21
REMARK    8  A    between atoms: S_21  and  C_22
REMARK    9  A    between atoms: C_25  and  N_26
REMARK                            x       y       z     vdW  Elec       q    Type
REMARK                         _______ _______ _______ _____ _____    ______ ____
ROOT
ATOM      1  N   UNL     1       0.268   9.147  20.264  0.00  0.00    +0.000 N 
ATOM      2  C   UNL     1       1.197   8.422  20.978  0.00  0.00    +0.000 C 
ATOM      3  O   UNL     1       1.492   8.649  22.145  0.00  0.00    +0.000 OA
ATOM      4  H   UNL     1       0.144   8.999  19.274  0.00  0.00    +0.000 HD
ENDROOT
BRANCH   2   5
ATOM      5  C   UNL     1       1.826   7.278  20.271  0.00  0.00    +0.000 A 
ATOM      6  C   UNL     1       2.576   7.450  19.101  0.00  0.00    +0.000 A 
ATOM      7  C   UNL     1       3.159   6.347  18.468  0.00  0.00    +0.000 A 
ATOM      8  C   UNL     1       2.986   5.058  18.992  0.00  0.00    +0.000 A 
ATOM      9  C   UNL     1       2.235   4.893  20.159  0.00  0.00    +0.000 A 
ATOM     10  C   UNL     1       1.662   5.996  20.810  0.00  0.00    +0.000 A 
BRANCH   8  11
ATOM     11  S   UNL     1       3.917   3.735  18.256  0.00  0.00    +0.000 S 
ATOM     12  C   UNL     1       4.757   4.471  16.879  0.00  0.00    +0.000 C 
ATOM     13  O   UNL     1       4.928   3.360  19.228  0.00  0.00    +0.000 OA
ATOM     14  O   UNL     1       2.979   2.743  17.779  0.00  0.00    +0.000 OA
ENDBRANCH   8  11
BRANCH   9  15
ATOM     15  N   UNL     1       1.899   3.581  20.674  0.00  0.00    +0.000 N 
ATOM     16  O   UNL     1       0.867   3.068  20.221  0.00  0.00    +0.000 OA
ATOM     17  O   UNL     1       2.602   3.130  21.587  0.00  0.00    +0.000 OA
ENDBRANCH   9  15
ENDBRANCH   2   5
BRANCH   1  18
ATOM     18  C   UNL     1      -0.296  10.363  20.820  0.00  0.00    +0.000 C 
BRANCH  18  21
ATOM     19  C   UNL     1      -0.168  13.526  18.641  0.00  0.00    +0.000 C 
ATOM     20  N   UNL     1      -0.662  12.330  19.304  0.00  0.00    +0.000 N 
ATOM     21  C   UNL     1       0.239  11.602  20.080  0.00  0.00    +0.000 C 
ATOM     22  O   UNL     1       1.441  11.894  20.133  0.00  0.00    +0.000 OA
BRANCH  20  23
ATOM     23  C   UNL     1      -2.107  12.081  19.270  0.00  0.00    +0.000 C 
BRANCH  23  24
ATOM     24  C   UNL     1      -2.647  11.422  18.025  0.00  0.00    +0.000 A 
ATOM     25  C   UNL     1      -1.903  10.591  17.178  0.00  0.00    +0.000 A 
ATOM     26  C   UNL     1      -2.494  10.008  16.051  0.00  0.00    +0.000 A 
ATOM     27  C   UNL     1      -3.833  10.251  15.750  0.00  0.00    +0.000 A 
ATOM     28  C   UNL     1      -4.583  11.087  16.572  0.00  0.00    +0.000 A 
ATOM     29  C   UNL     1      -3.988  11.660  17.692  0.00  0.00    +0.000 A 
ATOM     30  F   UNL     1      -4.726  12.469  18.469  0.00  0.00    +0.000 F 
ENDBRANCH  23  24
ENDBRANCH  20  23
ENDBRANCH  18  21
ENDBRANCH   1  18
TORSDOF 7
ENDMDL
MODEL 3
REMARK VINA RESULT:      -7.7      3.833      8.217
REMARK  Name = 
REMARK  9 active torsions:
REMARK  status: ('A' for Active; 'I' for Inactive)
REMARK    1  A    between atoms: C_1  and  N_2
REMARK    2  A    between atoms: N_2  and  C_3
REMARK    3  A    between atoms: C_3  and  C_4
REMARK    4  A    between atoms: C_11  and  C_13
REMARK    5  A    between atoms: C_13  and  N_14
REMARK    6  A    between atoms: C_15  and  C_17
REMARK    7  A    between atoms: C_20  and  S_21
REMARK    8  A    between atoms: S_21  and  C_22
REMARK    9  A    between atoms: C_25  and  N_26
REMARK                            x       y       z     vdW  Elec       q    Type
REMARK                         _______ _______ _______ _____ _____    ______ ____
ROOT
ATOM      1  N   UNL     1       3.546   7.585  17.483  0.00  0.00    +0.000 N 
ATOM      2  C   UNL     1       2.614   7.336  18.466  0.00  0.00    +0.000 C 
ATOM      3  O   UNL     1       2.358   6.218  18.898  0.00  0.00    +0.000 OA
ATOM      4  H   UNL     1       3.638   8.504  17.076  0.00  0.00    +0.000 HD
ENDROOT
BRANCH   2   5
ATOM      5  C   UNL     1       1.929   8.520  19.043  0.00  0.00    +0.000 A 
ATOM      6  C   UNL     1       1.780   9.713  18.324  0.00  0.00    +0.000 A 
ATOM      7  C   UNL     1       1.123  10.805  18.901  0.00  0.00    +0.000 A 
ATOM      8  C   UNL     1       0.619  10.720  20.207  0.00  0.00    +0.000 A 
ATOM      9  C   UNL     1       0.773   9.527  20.918  0.00  0.00    +0.000 A 
ATOM     10  C   UNL     1       1.416   8.420  20.341  0.00  0.00    +0.000 A 
BRANCH   8  11
ATOM     11  S   UNL     1      -0.377  12.067  20.799  0.00  0.00    +0.000 S 
ATOM     12  C   UNL     1      -0.328  13.280  19.506  0.00  0.00    +0.000 C 
ATOM     13  O   UNL     1      -1.738  11.566  20.869  0.00  0.00    +0.000 OA
ATOM     14  O   UNL     1       0.254  12.598  21.987  0.00  0.00    +0.000 OA
ENDBRANCH   8  11
BRANCH   9  15
ATOM     15  N   UNL     1       0.405   9.416  22.315  0.00  0.00    +0.000 N 
ATOM     16  O   UNL     1       1.288   9.704  23.134  0.00  0.00    +0.000 OA
ATOM     17  O   UNL     1      -0.711   8.949  22.575  0.00  0.00    +0.000 OA
ENDBRANCH   9  15
ENDBRANCH   2   5
BRANCH   1  18
ATOM     18  C   UNL     1       4.163   6.486  16.763  0.00  0.00    +0.000 C 
BRANCH  18  21
ATOM     19  C   UNL     1       7.310   4.639  17.973  0.00  0.00    +0.000 C 
ATOM     20  N   UNL     1       5.951   4.896  17.522  0.00  0.00    +0.000 N 
ATOM     21  C   UNL     1       5.586   6.220  17.287  0.00  0.00    +0.000 C 
ATOM     22  O   UNL     1       6.346   7.163  17.544  0.00  0.00    +0.000 OA
BRANCH  20  23
ATOM     23  C   UNL     1       5.126   3.738  17.160  0.00  0.00    +0.000 C 
BRANCH  23  24
ATOM     24  C   UNL     1       4.097   3.302  18.173  0.00  0.00    +0.000 A 
ATOM     25  C   UNL     1       4.359   3.097  19.534  0.00  0.00    +0.000 A 
ATOM     26  C   UNL     1       3.335   2.707  20.406  0.00  0.00    +0.000 A 
ATOM     27  C   UNL     1       2.039   2.511  19.932  0.00  0.00    +0.000 A 
ATOM     28  C   UNL     1       1.765   2.695  18.580  0.00  0.00    +0.000 A 
ATOM     29  C   UNL     1       2.788   3.085  17.720  0.00  0.00    +0.000 A 
ATOM     30  F   UNL     1       2.506   3.251  16.419  0.00  0.00    +0.000 F 
ENDBRANCH  23  24
ENDBRANCH  20  23
ENDBRANCH  18  21
ENDBRANCH   1  18
TORSDOF 7
ENDMDL
MODEL 4
REMARK VINA RESULT:      -7.7      2.558      4.044
REMARK  Name = 
REMARK  9 active torsions:
REMARK  status: ('A' for Active; 'I' for Inactive)
REMARK    1  A    between atoms: C_1  and  N_2
REMARK    2  A    between atoms: N_2  and  C_3
REMARK    3  A    between atoms: C_3  and  C_4
REMARK    4  A    between atoms: C_11  and  C_13
REMARK    5  A    between atoms: C_13  and  N_14
REMARK    6  A    between atoms: C_15  and  C_17
REMARK    7  A    between atoms: C_20  and  S_21
REMARK    8  A    between atoms: S_21  and  C_22
REMARK    9  A    between atoms: C_25  and  N_26
REMARK                            x       y       z     vdW  Elec       q    Type
REMARK                         _______ _______ _______ _____ _____    ______ ____
ROOT
ATOM      1  N   UNL     1       1.319   9.299  19.208  0.00  0.00    +0.000 N 
ATOM      2  C   UNL     1       2.079   8.551  18.335  0.00  0.00    +0.000 C 
ATOM      3  O   UNL     1       2.498   8.969  17.263  0.00  0.00    +0.000 OA
ATOM      4  H   UNL     1       0.898   8.877  20.021  0.00  0.00    +0.000 HD
ENDROOT
BRANCH   2   5
ATOM      5  C   UNL     1       2.428   7.177  18.775  0.00  0.00    +0.000 A 
ATOM      6  C   UNL     1       1.947   6.637  19.974  0.00  0.00    +0.000 A 
ATOM      7  C   UNL     1       2.292   5.335  20.350  0.00  0.00    +0.000 A 
ATOM      8  C   UNL     1       3.134   4.563  19.536  0.00  0.00    +0.000 A 
ATOM      9  C   UNL     1       3.611   5.108  18.341  0.00  0.00    +0.000 A 
ATOM     10  C   UNL     1       3.255   6.407  17.947  0.00  0.00    +0.000 A 
BRANCH   8  11
ATOM     11  S   UNL     1       3.366   2.855  19.971  0.00  0.00    +0.000 S 
ATOM     12  C   UNL     1       2.521   2.653  21.517  0.00  0.00    +0.000 C 
ATOM     13  O   UNL     1       2.642   2.081  18.979  0.00  0.00    +0.000 OA
ATOM     14  O   UNL     1       4.783   2.634  20.159  0.00  0.00    +0.000 OA
ENDBRANCH   8  11
BRANCH   9  15
ATOM     15  N   UNL     1       4.593   4.423  17.525  0.00  0.00    +0.000 N 
ATOM     16  O   UNL     1       4.143   3.708  16.620  0.00  0.00    +0.000 OA
ATOM     17  O   UNL     1       5.780   4.522  17.859  0.00  0.00    +0.000 OA
ENDBRANCH   9  15
ENDBRANCH   2   5
BRANCH   1  18
ATOM     18  C   UNL     1       0.813  10.599  18.808  0.00  0.00    +0.000 C 
BRANCH  18  21
ATOM     19  C   UNL     1      -2.917  11.274  18.168  0.00  0.00    +0.000 C 
ATOM     20  N   UNL     1      -1.580  11.354  18.735  0.00  0.00    +0.000 N 
ATOM     21  C   UNL     1      -0.613  10.480  18.241  0.00  0.00    +0.000 C 
ATOM     22  O   UNL     1      -0.890   9.594  17.421  0.00  0.00    +0.000 OA
BRANCH  20  23
ATOM     23  C   UNL     1      -1.293  12.472  19.641  0.00  0.00    +0.000 C 
BRANCH  23  24
ATOM     24  C   UNL     1      -1.987  12.447  20.981  0.00  0.00    +0.000 A 
ATOM     25  C   UNL     1      -3.191  13.103  21.265  0.00  0.00    +0.000 A 
ATOM     26  C   UNL     1      -3.771  13.010  22.536  0.00  0.00    +0.000 A 
ATOM     27  C   UNL     1      -3.155  12.267  23.541  0.00  0.00    +0.000 A 
ATOM     28  C   UNL     1      -1.950  11.622  23.281  0.00  0.00    +0.000 A 
ATOM     29  C   UNL     1      -1.381  11.717  22.014  0.00  0.00    +0.000 A 
ATOM     30  F   UNL     1      -0.216  11.094  21.784  0.00  0.00    +0.000 F 
ENDBRANCH  23  24
ENDBRANCH  20  23
ENDBRANCH  18  21
ENDBRANCH   1  18
TORSDOF 7
ENDMDL
MODEL 5
REMARK VINA RESULT:      -7.6      2.531      4.046
REMARK  Name = 
REMARK  9 active torsions:
REMARK  status: ('A' for Active; 'I' for Inactive)
REMARK    1  A    between atoms: C_1  and  N_2
REMARK    2  A    between atoms: N_2  and  C_3
REMARK    3  A    between atoms: C_3  and  C_4
REMARK    4  A    between atoms: C_11  and  C_13
REMARK    5  A    between atoms: C_13  and  N_14
REMARK    6  A    between atoms: C_15  and  C_17
REMARK    7  A    between atoms: C_20  and  S_21
REMARK    8  A    between atoms: S_21  and  C_22
REMARK    9  A    between atoms: C_25  and  N_26
REMARK                            x       y       z     vdW  Elec       q    Type
REMARK                         _______ _______ _______ _____ _____    ______ ____
ROOT
ATOM      1  N   UNL     1       0.933   9.282  19.130  0.00  0.00    +0.000 N 
ATOM      2  C   UNL     1       1.826   8.510  18.419  0.00  0.00    +0.000 C 
ATOM      3  O   UNL     1       2.437   8.904  17.434  0.00  0.00    +0.000 OA
ATOM      4  H   UNL     1       0.365   8.880  19.861  0.00  0.00    +0.000 HD
ENDROOT
BRANCH   2   5
ATOM      5  C   UNL     1       2.068   7.139  18.935  0.00  0.00    +0.000 A 
ATOM      6  C   UNL     1       1.990   6.835  20.300  0.00  0.00    +0.000 A 
ATOM      7  C   UNL     1       2.219   5.529  20.745  0.00  0.00    +0.000 A 
ATOM      8  C   UNL     1       2.541   4.516  19.831  0.00  0.00    +0.000 A 
ATOM      9  C   UNL     1       2.619   4.827  18.471  0.00  0.00    +0.000 A 
ATOM     10  C   UNL     1       2.374   6.130  18.013  0.00  0.00    +0.000 A 
BRANCH   8  11
ATOM     11  S   UNL     1       2.619   2.847  20.439  0.00  0.00    +0.000 S 
ATOM     12  C   UNL     1       4.290   2.328  20.148  0.00  0.00    +0.000 C 
ATOM     13  O   UNL     1       2.438   2.930  21.876  0.00  0.00    +0.000 OA
ATOM     14  O   UNL     1       1.716   2.043  19.646  0.00  0.00    +0.000 OA
ENDBRANCH   8  11
BRANCH   9  15
ATOM     15  N   UNL     1       3.084   3.865  17.491  0.00  0.00    +0.000 N 
ATOM     16  O   UNL     1       4.299   3.876  17.254  0.00  0.00    +0.000 OA
ATOM     17  O   UNL     1       2.228   3.193  16.902  0.00  0.00    +0.000 OA
ENDBRANCH   9  15
ENDBRANCH   2   5
BRANCH   1  18
ATOM     18  C   UNL     1       0.526  10.582  18.626  0.00  0.00    +0.000 C 
BRANCH  18  21
ATOM     19  C   UNL     1      -3.161  11.392  17.907  0.00  0.00    +0.000 C 
ATOM     20  N   UNL     1      -1.836  11.422  18.505  0.00  0.00    +0.000 N 
ATOM     21  C   UNL     1      -0.890  10.517  18.026  0.00  0.00    +0.000 C 
ATOM     22  O   UNL     1      -1.179   9.647  17.193  0.00  0.00    +0.000 OA
BRANCH  20  23
ATOM     23  C   UNL     1      -1.531  12.522  19.425  0.00  0.00    +0.000 C 
BRANCH  23  24
ATOM     24  C   UNL     1      -1.956  12.336  20.861  0.00  0.00    +0.000 A 
ATOM     25  C   UNL     1      -1.215  11.641  21.826  0.00  0.00    +0.000 A 
ATOM     26  C   UNL     1      -1.682  11.534  23.141  0.00  0.00    +0.000 A 
ATOM     27  C   UNL     1      -2.896  12.112  23.511  0.00  0.00    +0.000 A 
ATOM     28  C   UNL     1      -3.652  12.792  22.560  0.00  0.00    +0.000 A 
ATOM     29  C   UNL     1      -3.179  12.897  21.255  0.00  0.00    +0.000 A 
ATOM     30  F   UNL     1      -3.926  13.551  20.352  0.00  0.00    +0.000 F 
ENDBRANCH  23  24
ENDBRANCH  20  23
ENDBRANCH  18  21
ENDBRANCH   1  18
TORSDOF 7
ENDMDL
MODEL 6
REMARK VINA RESULT:      -7.6      3.605      8.498
REMARK  Name = 
REMARK  9 active torsions:
REMARK  status: ('A' for Active; 'I' for Inactive)
REMARK    1  A    between atoms: C_1  and  N_2
REMARK    2  A    between atoms: N_2  and  C_3
REMARK    3  A    between atoms: C_3  and  C_4
REMARK    4  A    between atoms: C_11  and  C_13
REMARK    5  A    between atoms: C_13  and  N_14
REMARK    6  A    between atoms: C_15  and  C_17
REMARK    7  A    between atoms: C_20  and  S_21
REMARK    8  A    between atoms: S_21  and  C_22
REMARK    9  A    between atoms: C_25  and  N_26
REMARK                            x       y       z     vdW  Elec       q    Type
REMARK                         _______ _______ _______ _____ _____    ______ ____
ROOT
ATOM      1  N   UNL     1       1.782   5.956  18.216  0.00  0.00    +0.000 N 
ATOM      2  C   UNL     1       2.559   7.092  18.162  0.00  0.00    +0.000 C 
ATOM      3  O   UNL     1       3.660   7.143  17.628  0.00  0.00    +0.000 OA
ATOM      4  H   UNL     1       0.938   5.930  18.767  0.00  0.00    +0.000 HD
ENDROOT
BRANCH   2   5
ATOM      5  C   UNL     1       1.975   8.319  18.759  0.00  0.00    +0.000 A 
ATOM      6  C   UNL     1       1.874   9.518  18.041  0.00  0.00    +0.000 A 
ATOM      7  C   UNL     1       1.311  10.651  18.638  0.00  0.00    +0.000 A 
ATOM      8  C   UNL     1       0.856  10.601  19.963  0.00  0.00    +0.000 A 
ATOM      9  C   UNL     1       0.961   9.402  20.673  0.00  0.00    +0.000 A 
ATOM     10  C   UNL     1       1.508   8.256  20.077  0.00  0.00    +0.000 A 
BRANCH   8  11
ATOM     11  S   UNL     1      -0.028  12.011  20.587  0.00  0.00    +0.000 S 
ATOM     12  C   UNL     1      -0.056  13.170  19.245  0.00  0.00    +0.000 C 
ATOM     13  O   UNL     1      -1.394  11.570  20.805  0.00  0.00    +0.000 OA
ATOM     14  O   UNL     1       0.732  12.561  21.688  0.00  0.00    +0.000 OA
ENDBRANCH   8  11
BRANCH   9  15
ATOM     15  N   UNL     1       0.642   9.318  22.084  0.00  0.00    +0.000 N 
ATOM     16  O   UNL     1      -0.518   8.985  22.360  0.00  0.00    +0.000 OA
ATOM     17  O   UNL     1       1.510   9.682  22.888  0.00  0.00    +0.000 OA
ENDBRANCH   9  15
ENDBRANCH   2   5
BRANCH   1  18
ATOM     18  C   UNL     1       2.322   4.679  17.785  0.00  0.00    +0.000 C 
BRANCH  18  21
ATOM     19  C   UNL     1       4.336   2.304  20.037  0.00  0.00    +0.000 C 
ATOM     20  N   UNL     1       3.911   3.073  18.879  0.00  0.00    +0.000 N 
ATOM     21  C   UNL     1       2.745   3.827  18.995  0.00  0.00    +0.000 C 
ATOM     22  O   UNL     1       2.032   3.778  20.007  0.00  0.00    +0.000 OA
BRANCH  20  23
ATOM     23  C   UNL     1       4.835   3.155  17.742  0.00  0.00    +0.000 C 
BRANCH  23  24
ATOM     24  C   UNL     1       5.747   4.356  17.703  0.00  0.00    +0.000 A 
ATOM     25  C   UNL     1       6.291   4.980  18.833  0.00  0.00    +0.000 A 
ATOM     26  C   UNL     1       7.143   6.082  18.699  0.00  0.00    +0.000 A 
ATOM     27  C   UNL     1       7.461   6.580  17.436  0.00  0.00    +0.000 A 
ATOM     28  C   UNL     1       6.916   5.982  16.303  0.00  0.00    +0.000 A 
ATOM     29  C   UNL     1       6.072   4.885  16.445  0.00  0.00    +0.000 A 
ATOM     30  F   UNL     1       5.552   4.327  15.342  0.00  0.00    +0.000 F 
ENDBRANCH  23  24
ENDBRANCH  20  23
ENDBRANCH  18  21
ENDBRANCH   1  18
TORSDOF 7
ENDMDL
MODEL 7
REMARK VINA RESULT:      -7.6      3.688      8.916
REMARK  Name = 
REMARK  9 active torsions:
REMARK  status: ('A' for Active; 'I' for Inactive)
REMARK    1  A    between atoms: C_1  and  N_2
REMARK    2  A    between atoms: N_2  and  C_3
REMARK    3  A    between atoms: C_3  and  C_4
REMARK    4  A    between atoms: C_11  and  C_13
REMARK    5  A    between atoms: C_13  and  N_14
REMARK    6  A    between atoms: C_15  and  C_17
REMARK    7  A    between atoms: C_20  and  S_21
REMARK    8  A    between atoms: S_21  and  C_22
REMARK    9  A    between atoms: C_25  and  N_26
REMARK                            x       y       z     vdW  Elec       q    Type
REMARK                         _______ _______ _______ _____ _____    ______ ____
ROOT
ATOM      1  N   UNL     1       1.519   8.203  19.119  0.00  0.00    +0.000 N 
ATOM      2  C   UNL     1       1.317   9.385  18.439  0.00  0.00    +0.000 C 
ATOM      3  O   UNL     1       1.921   9.700  17.421  0.00  0.00    +0.000 OA
ATOM      4  H   UNL     1       1.087   8.040  20.016  0.00  0.00    +0.000 HD
ENDROOT
BRANCH   2   5
ATOM      5  C   UNL     1       0.267  10.285  18.979  0.00  0.00    +0.000 A 
ATOM      6  C   UNL     1      -0.877  10.615  18.242  0.00  0.00    +0.000 A 
ATOM      7  C   UNL     1      -1.847  11.462  18.789  0.00  0.00    +0.000 A 
ATOM      8  C   UNL     1      -1.676  11.998  20.073  0.00  0.00    +0.000 A 
ATOM      9  C   UNL     1      -0.531  11.665  20.802  0.00  0.00    +0.000 A 
ATOM     10  C   UNL     1       0.439  10.802  20.269  0.00  0.00    +0.000 A 
BRANCH   8  11
ATOM     11  S   UNL     1      -3.036  12.898  20.782  0.00  0.00    +0.000 S 
ATOM     12  C   UNL     1      -4.412  12.571  19.712  0.00  0.00    +0.000 C 
ATOM     13  O   UNL     1      -3.321  12.266  22.057  0.00  0.00    +0.000 OA
ATOM     14  O   UNL     1      -2.709  14.306  20.735  0.00  0.00    +0.000 OA
ENDBRANCH   8  11
BRANCH   9  15
ATOM     15  N   UNL     1      -0.223  12.292  22.072  0.00  0.00    +0.000 N 
ATOM     16  O   UNL     1       0.354  13.385  22.012  0.00  0.00    +0.000 OA
ATOM     17  O   UNL     1      -0.464  11.646  23.099  0.00  0.00    +0.000 OA
ENDBRANCH   9  15
ENDBRANCH   2   5
BRANCH   1  18
ATOM     18  C   UNL     1       2.616   7.326  18.751  0.00  0.00    +0.000 C 
BRANCH  18  21
ATOM     19  C   UNL     1       3.200   3.668  19.777  0.00  0.00    +0.000 C 
ATOM     20  N   UNL     1       3.231   4.906  19.015  0.00  0.00    +0.000 N 
ATOM     21  C   UNL     1       2.543   6.002  19.534  0.00  0.00    +0.000 C 
ATOM     22  O   UNL     1       1.845   5.914  20.553  0.00  0.00    +0.000 OA
BRANCH  20  23
ATOM     23  C   UNL     1       4.136   4.973  17.863  0.00  0.00    +0.000 C 
BRANCH  23  24
ATOM     24  C   UNL     1       5.488   5.598  18.105  0.00  0.00    +0.000 A 
ATOM     25  C   UNL     1       6.358   5.236  19.142  0.00  0.00    +0.000 A 
ATOM     26  C   UNL     1       7.602   5.861  19.279  0.00  0.00    +0.000 A 
ATOM     27  C   UNL     1       7.995   6.858  18.388  0.00  0.00    +0.000 A 
ATOM     28  C   UNL     1       7.136   7.241  17.361  0.00  0.00    +0.000 A 
ATOM     29  C   UNL     1       5.901   6.613  17.230  0.00  0.00    +0.000 A 
ATOM     30  F   UNL     1       5.085   7.000  16.239  0.00  0.00    +0.000 F 
ENDBRANCH  23  24
ENDBRANCH  20  23
ENDBRANCH  18  21
ENDBRANCH   1  18
TORSDOF 7
ENDMDL
MODEL 8
REMARK VINA RESULT:      -7.6      1.853      2.338
REMARK  Name = 
REMARK  9 active torsions:
REMARK  status: ('A' for Active; 'I' for Inactive)
REMARK    1  A    between atoms: C_1  and  N_2
REMARK    2  A    between atoms: N_2  and  C_3
REMARK    3  A    between atoms: C_3  and  C_4
REMARK    4  A    between atoms: C_11  and  C_13
REMARK    5  A    between atoms: C_13  and  N_14
REMARK    6  A    between atoms: C_15  and  C_17
REMARK    7  A    between atoms: C_20  and  S_21
REMARK    8  A    between atoms: S_21  and  C_22
REMARK    9  A    between atoms: C_25  and  N_26
REMARK                            x       y       z     vdW  Elec       q    Type
REMARK                         _______ _______ _______ _____ _____    ______ ____
ROOT
ATOM      1  N   UNL     1       1.743   8.804  18.830  0.00  0.00    +0.000 N 
ATOM      2  C   UNL     1       2.147   7.609  19.384  0.00  0.00    +0.000 C 
ATOM      3  O   UNL     1       1.716   7.166  20.441  0.00  0.00    +0.000 OA
ATOM      4  H   UNL     1       2.210   9.185  18.021  0.00  0.00    +0.000 HD
ENDROOT
BRANCH   2   5
ATOM      5  C   UNL     1       3.132   6.820  18.603  0.00  0.00    +0.000 A 
ATOM      6  C   UNL     1       3.756   7.334  17.460  0.00  0.00    +0.000 A 
ATOM      7  C   UNL     1       4.685   6.560  16.755  0.00  0.00    +0.000 A 
ATOM      8  C   UNL     1       4.989   5.260  17.180  0.00  0.00    +0.000 A 
ATOM      9  C   UNL     1       4.362   4.752  18.321  0.00  0.00    +0.000 A 
ATOM     10  C   UNL     1       3.443   5.527  19.044  0.00  0.00    +0.000 A 
BRANCH   8  11
ATOM     11  S   UNL     1       6.321   4.413  16.361  0.00  0.00    +0.000 S 
ATOM     12  C   UNL     1       6.832   5.505  15.061  0.00  0.00    +0.000 C 
ATOM     13  O   UNL     1       7.409   4.344  17.319  0.00  0.00    +0.000 OA
ATOM     14  O   UNL     1       5.788   3.195  15.791  0.00  0.00    +0.000 OA
ENDBRANCH   8  11
BRANCH   9  15
ATOM     15  N   UNL     1       4.523   3.372  18.733  0.00  0.00    +0.000 N 
ATOM     16  O   UNL     1       3.778   2.551  18.182  0.00  0.00    +0.000 OA
ATOM     17  O   UNL     1       5.306   3.143  19.663  0.00  0.00    +0.000 OA
ENDBRANCH   9  15
ENDBRANCH   2   5
BRANCH   1  18
ATOM     18  C   UNL     1       0.892   9.709  19.581  0.00  0.00    +0.000 C 
BRANCH  18  21
ATOM     19  C   UNL     1      -0.177  13.202  18.388  0.00  0.00    +0.000 C 
ATOM     20  N   UNL     1      -0.241  11.842  18.898  0.00  0.00    +0.000 N 
ATOM     21  C   UNL     1       0.954  11.131  18.996  0.00  0.00    +0.000 C 
ATOM     22  O   UNL     1       2.024  11.590  18.575  0.00  0.00    +0.000 OA
BRANCH  20  23
ATOM     23  C   UNL     1      -1.519  11.384  19.453  0.00  0.00    +0.000 C 
BRANCH  23  24
ATOM     24  C   UNL     1      -2.689  11.340  18.502  0.00  0.00    +0.000 A 
ATOM     25  C   UNL     1      -3.906  12.003  18.707  0.00  0.00    +0.000 A 
ATOM     26  C   UNL     1      -4.933  11.918  17.759  0.00  0.00    +0.000 A 
ATOM     27  C   UNL     1      -4.761  11.169  16.597  0.00  0.00    +0.000 A 
ATOM     28  C   UNL     1      -3.564  10.491  16.384  0.00  0.00    +0.000 A 
ATOM     29  C   UNL     1      -2.548  10.582  17.331  0.00  0.00    +0.000 A 
ATOM     30  F   UNL     1      -1.403   9.917  17.111  0.00  0.00    +0.000 F 
ENDBRANCH  23  24
ENDBRANCH  20  23
ENDBRANCH  18  21
ENDBRANCH   1  18
TORSDOF 7
ENDMDL
MODEL 9
REMARK VINA RESULT:      -7.5      3.861      8.429
REMARK  Name = 
REMARK  9 active torsions:
REMARK  status: ('A' for Active; 'I' for Inactive)
REMARK    1  A    between atoms: C_1  and  N_2
REMARK    2  A    between atoms: N_2  and  C_3
REMARK    3  A    between atoms: C_3  and  C_4
REMARK    4  A    between atoms: C_11  and  C_13
REMARK    5  A    between atoms: C_13  and  N_14
REMARK    6  A    between atoms: C_15  and  C_17
REMARK    7  A    between atoms: C_20  and  S_21
REMARK    8  A    between atoms: S_21  and  C_22
REMARK    9  A    between atoms: C_25  and  N_26
REMARK                            x       y       z     vdW  Elec       q    Type
REMARK                         _______ _______ _______ _____ _____    ______ ____
ROOT
ATOM      1  N   UNL     1       3.728   7.643  17.608  0.00  0.00    +0.000 N 
ATOM      2  C   UNL     1       2.580   7.167  18.203  0.00  0.00    +0.000 C 
ATOM      3  O   UNL     1       2.187   6.011  18.103  0.00  0.00    +0.000 OA
ATOM      4  H   UNL     1       3.949   8.627  17.620  0.00  0.00    +0.000 HD
ENDROOT
BRANCH   2   5
ATOM      5  C   UNL     1       1.824   8.130  19.043  0.00  0.00    +0.000 A 
ATOM      6  C   UNL     1       1.582   7.898  20.402  0.00  0.00    +0.000 A 
ATOM      7  C   UNL     1       0.871   8.833  21.161  0.00  0.00    +0.000 A 
ATOM      8  C   UNL     1       0.383  10.004  20.565  0.00  0.00    +0.000 A 
ATOM      9  C   UNL     1       0.627  10.229  19.208  0.00  0.00    +0.000 A 
ATOM     10  C   UNL     1       1.354   9.304  18.442  0.00  0.00    +0.000 A 
BRANCH   8  11
ATOM     11  S   UNL     1      -0.332  11.237  21.627  0.00  0.00    +0.000 S 
ATOM     12  C   UNL     1      -0.608  10.412  23.172  0.00  0.00    +0.000 C 
ATOM     13  O   UNL     1       0.702  12.232  21.849  0.00  0.00    +0.000 OA
ATOM     14  O   UNL     1      -1.599  11.635  21.056  0.00  0.00    +0.000 OA
ENDBRANCH   8  11
BRANCH   9  15
ATOM     15  N   UNL     1       0.034  11.344  18.498  0.00  0.00    +0.000 N 
ATOM     16  O   UNL     1       0.670  12.406  18.525  0.00  0.00    +0.000 OA
ATOM     17  O   UNL     1      -1.094  11.178  18.016  0.00  0.00    +0.000 OA
ENDBRANCH   9  15
ENDBRANCH   2   5
BRANCH   1  18
ATOM     18  C   UNL     1       4.457   6.820  16.660  0.00  0.00    +0.000 C 
BRANCH  18  21
ATOM     19  C   UNL     1       7.410   4.692  17.892  0.00  0.00    +0.000 C 
ATOM     20  N   UNL     1       6.093   5.068  17.403  0.00  0.00    +0.000 N 
ATOM     21  C   UNL     1       5.834   6.426  17.223  0.00  0.00    +0.000 C 
ATOM     22  O   UNL     1       6.648   7.297  17.556  0.00  0.00    +0.000 OA
BRANCH  20  23
ATOM     23  C   UNL     1       5.203   3.993  16.952  0.00  0.00    +0.000 C 
BRANCH  23  24
ATOM     24  C   UNL     1       4.260   3.424  17.982  0.00  0.00    +0.000 A 
ATOM     25  C   UNL     1       4.568   3.259  19.339  0.00  0.00    +0.000 A 
ATOM     26  C   UNL     1       3.621   2.736  20.227  0.00  0.00    +0.000 A 
ATOM     27  C   UNL     1       2.355   2.366  19.774  0.00  0.00    +0.000 A 
ATOM     28  C   UNL     1       2.038   2.509  18.426  0.00  0.00    +0.000 A 
ATOM     29  C   UNL     1       2.985   3.031  17.550  0.00  0.00    +0.000 A 
ATOM     30  F   UNL     1       2.662   3.155  16.254  0.00  0.00    +0.000 F 
ENDBRANCH  23  24
ENDBRANCH  20  23
ENDBRANCH  18  21
ENDBRANCH   1  18
TORSDOF 7
ENDMDL
