MODEL 1
REMARK VINA RESULT:      -7.0      0.000      0.000
REMARK  Name = 
REMARK  12 active torsions:
REMARK  status: ('A' for Active; 'I' for Inactive)
REMARK    1  A    between atoms: C_1  and  C_2
REMARK    2  A    between atoms: C_2  and  C_3
REMARK    3  A    between atoms: C_3  and  N_4
REMARK    4  A    between atoms: N_4  and  C_5
REMARK    5  A    between atoms: N_4  and  C_8
REMARK    6  A    between atoms: C_5  and  C_6
REMARK    7  A    between atoms: C_6  and  C_7
REMARK    8  A    between atoms: C_8  and  C_9
REMARK    9  A    between atoms: C_10  and  C_11
REMARK   10  A    between atoms: C_11  and  O_13
REMARK   11  A    between atoms: O_13  and  C_14
REMARK   12  A    between atoms: C_14  and  C_15
REMARK                            x       y       z     vdW  Elec       q    Type
REMARK                         _______ _______ _______ _____ _____    ______ ____
ROOT
ATOM      1  C   UNL     1       3.772   4.665  18.557  0.00  0.00    +0.000 A 
ATOM      2  C   UNL     1       2.976   3.961  17.662  0.00  0.00    +0.000 A 
ATOM      3  N   UNL     1       3.756   3.523  16.628  0.00  0.00    +0.000 NA
ATOM      4  N   UNL     1       5.001   3.897  16.854  0.00  0.00    +0.000 NA
ATOM      5  N   UNL     1       5.069   4.496  18.080  0.00  0.00    +0.000 N 
ATOM      6  C   UNL     1       6.314   4.823  18.672  0.00  0.00    +0.000 A 
ATOM      7  N   UNL     1       6.398   5.221  19.941  0.00  0.00    +0.000 NA
ATOM      8  O   UNL     1       7.757   5.436  20.146  0.00  0.00    +0.000 OA
ATOM      9  N   UNL     1       8.494   5.126  19.008  0.00  0.00    +0.000 NA
ATOM     10  C   UNL     1       7.599   4.738  18.100  0.00  0.00    +0.000 A 
ATOM     11  N   UNL     1       7.910   4.346  16.853  0.00  0.00    +0.000 N 
ATOM     12  H   UNL     1       8.858   4.453  16.509  0.00  0.00    +0.000 HD
ATOM     13  H   UNL     1       7.201   4.185  16.141  0.00  0.00    +0.000 HD
ENDROOT
BRANCH   2  14
ATOM     14  C   UNL     1       1.554   3.663  17.750  0.00  0.00    +0.000 C 
ATOM     15  O   UNL     1       0.687   4.282  17.144  0.00  0.00    +0.000 OA
BRANCH  14  16
ATOM     16  O   UNL     1       1.298   2.684  18.668  0.00  0.00    +0.000 OA
BRANCH  16  17
ATOM     17  C   UNL     1       0.616   3.098  19.859  0.00  0.00    +0.000 C 
ATOM     18  C   UNL     1       1.446   2.669  21.055  0.00  0.00    +0.000 C 
ENDBRANCH  16  17
ENDBRANCH  14  16
ENDBRANCH   2  14
BRANCH   1  19
ATOM     19  C   UNL     1       3.415   5.461  19.766  0.00  0.00    +0.000 C 
BRANCH  19  20
ATOM     20  N   UNL     1       2.280   6.380  19.519  0.00  0.00    +0.000 NA
BRANCH  20  21
ATOM     21  C   UNL     1       1.535   6.646  20.773  0.00  0.00    +0.000 C 
BRANCH  21  23
ATOM     22  C   UNL     1       0.016   8.618  21.375  0.00  0.00    +0.000 C 
ATOM     23  C   UNL     1       1.444   8.113  21.218  0.00  0.00    +0.000 C 
ENDBRANCH  21  23
ENDBRANCH  20  21
BRANCH  20  24
ATOM     24  C   UNL     1       2.753   7.647  18.911  0.00  0.00    +0.000 C 
BRANCH  24  25
ATOM     25  C   UNL     1       1.954   8.135  17.690  0.00  0.00    +0.000 C 
ATOM     26  C   UNL     1       1.480   9.571  17.881  0.00  0.00    +0.000 C 
ENDBRANCH  24  25
ENDBRANCH  20  24
ENDBRANCH  19  20
ENDBRANCH   1  19
TORSDOF 9
ENDMDL
MODEL 2
REMARK VINA RESULT:      -6.7      2.476      5.761
REMARK  Name = 
REMARK  12 active torsions:
REMARK  status: ('A' for Active; 'I' for Inactive)
REMARK    1  A    between atoms: C_1  and  C_2
REMARK    2  A    between atoms: C_2  and  C_3
REMARK    3  A    between atoms: C_3  and  N_4
REMARK    4  A    between atoms: N_4  and  C_5
REMARK    5  A    between atoms: N_4  and  C_8
REMARK    6  A    between atoms: C_5  and  C_6
REMARK    7  A    between atoms: C_6  and  C_7
REMARK    8  A    between atoms: C_8  and  C_9
REMARK    9  A    between atoms: C_10  and  C_11
REMARK   10  A    between atoms: C_11  and  O_13
REMARK   11  A    between atoms: O_13  and  C_14
REMARK   12  A    between atoms: C_14  and  C_15
REMARK                            x       y       z     vdW  Elec       q    Type
REMARK                         _______ _______ _______ _____ _____    ______ ____
ROOT
ATOM      1  C   UNL     1       3.528   5.753  18.576  0.00  0.00    +0.000 A 
ATOM      2  C   UNL     1       3.390   4.647  19.404  0.00  0.00    +0.000 A 
ATOM      3  N   UNL     1       2.647   5.002  20.495  0.00  0.00    +0.000 NA
ATOM      4  N   UNL     1       2.294   6.267  20.368  0.00  0.00    +0.000 NA
ATOM      5  N   UNL     1       2.715   6.726  19.153  0.00  0.00    +0.000 N 
ATOM      6  C   UNL     1       2.308   7.991  18.661  0.00  0.00    +0.000 A 
ATOM      7  N   UNL     1       2.550   8.359  17.403  0.00  0.00    +0.000 NA
ATOM      8  O   UNL     1       2.002   9.633  17.306  0.00  0.00    +0.000 OA
ATOM      9  N   UNL     1       1.395  10.014  18.497  0.00  0.00    +0.000 NA
ATOM     10  C   UNL     1       1.577   8.991  19.331  0.00  0.00    +0.000 A 
ATOM     11  N   UNL     1       1.130   8.961  20.598  0.00  0.00    +0.000 N 
ATOM     12  H   UNL     1       0.732   9.795  21.016  0.00  0.00    +0.000 HD
ATOM     13  H   UNL     1       1.399   8.229  21.252  0.00  0.00    +0.000 HD
ENDROOT
BRANCH   2  14
ATOM     14  C   UNL     1       3.889   3.293  19.204  0.00  0.00    +0.000 C 
ATOM     15  O   UNL     1       4.958   2.887  19.645  0.00  0.00    +0.000 OA
BRANCH  14  16
ATOM     16  O   UNL     1       3.074   2.570  18.380  0.00  0.00    +0.000 OA
BRANCH  16  17
ATOM     17  C   UNL     1       2.078   1.765  19.026  0.00  0.00    +0.000 C 
ATOM     18  C   UNL     1       0.720   2.392  18.765  0.00  0.00    +0.000 C 
ENDBRANCH  16  17
ENDBRANCH  14  16
ENDBRANCH   2  14
BRANCH   1  19
ATOM     19  C   UNL     1       4.343   5.957  17.344  0.00  0.00    +0.000 C 
BRANCH  19  20
ATOM     20  N   UNL     1       5.765   5.594  17.544  0.00  0.00    +0.000 NA
BRANCH  20  21
ATOM     21  C   UNL     1       6.135   4.430  16.704  0.00  0.00    +0.000 C 
BRANCH  21  23
ATOM     22  C   UNL     1       6.149   4.229  14.151  0.00  0.00    +0.000 C 
ATOM     23  C   UNL     1       6.870   4.739  15.391  0.00  0.00    +0.000 C 
ENDBRANCH  21  23
ENDBRANCH  20  21
BRANCH  20  24
ATOM     24  C   UNL     1       6.648   6.750  17.257  0.00  0.00    +0.000 C 
BRANCH  24  25
ATOM     25  C   UNL     1       7.802   6.965  18.251  0.00  0.00    +0.000 C 
ATOM     26  C   UNL     1       7.822   5.872  19.315  0.00  0.00    +0.000 C 
ENDBRANCH  24  25
ENDBRANCH  20  24
ENDBRANCH  19  20
ENDBRANCH   1  19
TORSDOF 9
ENDMDL
MODEL 3
REMARK VINA RESULT:      -6.5      2.826      5.712
REMARK  Name = 
REMARK  12 active torsions:
REMARK  status: ('A' for Active; 'I' for Inactive)
REMARK    1  A    between atoms: C_1  and  C_2
REMARK    2  A    between atoms: C_2  and  C_3
REMARK    3  A    between atoms: C_3  and  N_4
REMARK    4  A    between atoms: N_4  and  C_5
REMARK    5  A    between atoms: N_4  and  C_8
REMARK    6  A    between atoms: C_5  and  C_6
REMARK    7  A    between atoms: C_6  and  C_7
REMARK    8  A    between atoms: C_8  and  C_9
REMARK    9  A    between atoms: C_10  and  C_11
REMARK   10  A    between atoms: C_11  and  O_13
REMARK   11  A    between atoms: O_13  and  C_14
REMARK   12  A    between atoms: C_14  and  C_15
REMARK                            x       y       z     vdW  Elec       q    Type
REMARK                         _______ _______ _______ _____ _____    ______ ____
ROOT
ATOM      1  C   UNL     1       4.601   5.359  17.670  0.00  0.00    +0.000 A 
ATOM      2  C   UNL     1       5.495   5.479  16.614  0.00  0.00    +0.000 A 
ATOM      3  N   UNL     1       5.223   6.635  15.936  0.00  0.00    +0.000 NA
ATOM      4  N   UNL     1       4.224   7.250  16.538  0.00  0.00    +0.000 NA
ATOM      5  N   UNL     1       3.894   6.559  17.669  0.00  0.00    +0.000 N 
ATOM      6  C   UNL     1       2.986   7.089  18.619  0.00  0.00    +0.000 A 
ATOM      7  N   UNL     1       2.812   6.517  19.810  0.00  0.00    +0.000 NA
ATOM      8  O   UNL     1       1.868   7.319  20.443  0.00  0.00    +0.000 OA
ATOM      9  N   UNL     1       1.506   8.398  19.643  0.00  0.00    +0.000 NA
ATOM     10  C   UNL     1       2.206   8.258  18.519  0.00  0.00    +0.000 A 
ATOM     11  N   UNL     1       2.145   9.109  17.480  0.00  0.00    +0.000 N 
ATOM     12  H   UNL     1       1.446   9.843  17.467  0.00  0.00    +0.000 HD
ATOM     13  H   UNL     1       2.585   8.906  16.586  0.00  0.00    +0.000 HD
ENDROOT
BRANCH   2  14
ATOM     14  C   UNL     1       6.587   4.591  16.241  0.00  0.00    +0.000 C 
ATOM     15  O   UNL     1       7.694   4.612  16.766  0.00  0.00    +0.000 OA
BRANCH  14  16
ATOM     16  O   UNL     1       6.259   3.809  15.169  0.00  0.00    +0.000 OA
BRANCH  16  17
ATOM     17  C   UNL     1       6.695   4.282  13.888  0.00  0.00    +0.000 C 
ATOM     18  C   UNL     1       5.910   3.544  12.819  0.00  0.00    +0.000 C 
ENDBRANCH  16  17
ENDBRANCH  14  16
ENDBRANCH   2  14
BRANCH   1  19
ATOM     19  C   UNL     1       4.364   4.241  18.628  0.00  0.00    +0.000 C 
BRANCH  19  20
ATOM     20  N   UNL     1       3.885   3.013  17.953  0.00  0.00    +0.000 NA
BRANCH  20  21
ATOM     21  C   UNL     1       3.807   1.883  18.908  0.00  0.00    +0.000 C 
BRANCH  21  23
ATOM     22  C   UNL     1       3.033   2.397  21.295  0.00  0.00    +0.000 C 
ATOM     23  C   UNL     1       4.214   2.182  20.359  0.00  0.00    +0.000 C 
ENDBRANCH  21  23
ENDBRANCH  20  21
BRANCH  20  24
ATOM     24  C   UNL     1       2.571   3.247  17.307  0.00  0.00    +0.000 C 
BRANCH  24  25
ATOM     25  C   UNL     1       1.445   3.714  18.245  0.00  0.00    +0.000 C 
ATOM     26  C   UNL     1       0.564   2.545  18.672  0.00  0.00    +0.000 C 
ENDBRANCH  24  25
ENDBRANCH  20  24
ENDBRANCH  19  20
ENDBRANCH   1  19
TORSDOF 9
ENDMDL
MODEL 4
REMARK VINA RESULT:      -6.4      2.790      5.941
REMARK  Name = 
REMARK  12 active torsions:
REMARK  status: ('A' for Active; 'I' for Inactive)
REMARK    1  A    between atoms: C_1  and  C_2
REMARK    2  A    between atoms: C_2  and  C_3
REMARK    3  A    between atoms: C_3  and  N_4
REMARK    4  A    between atoms: N_4  and  C_5
REMARK    5  A    between atoms: N_4  and  C_8
REMARK    6  A    between atoms: C_5  and  C_6
REMARK    7  A    between atoms: C_6  and  C_7
REMARK    8  A    between atoms: C_8  and  C_9
REMARK    9  A    between atoms: C_10  and  C_11
REMARK   10  A    between atoms: C_11  and  O_13
REMARK   11  A    between atoms: O_13  and  C_14
REMARK   12  A    between atoms: C_14  and  C_15
REMARK                            x       y       z     vdW  Elec       q    Type
REMARK                         _______ _______ _______ _____ _____    ______ ____
ROOT
ATOM      1  C   UNL     1       3.419   6.148  18.418  0.00  0.00    +0.000 A 
ATOM      2  C   UNL     1       4.422   6.036  17.464  0.00  0.00    +0.000 A 
ATOM      3  N   UNL     1       4.423   7.164  16.691  0.00  0.00    +0.000 NA
ATOM      4  N   UNL     1       3.490   7.981  17.140  0.00  0.00    +0.000 NA
ATOM      5  N   UNL     1       2.933   7.445  18.266  0.00  0.00    +0.000 N 
ATOM      6  C   UNL     1       2.040   8.190  19.074  0.00  0.00    +0.000 A 
ATOM      7  N   UNL     1       1.651   7.750  20.270  0.00  0.00    +0.000 NA
ATOM      8  O   UNL     1       0.801   8.744  20.744  0.00  0.00    +0.000 OA
ATOM      9  N   UNL     1       0.712   9.802  19.845  0.00  0.00    +0.000 NA
ATOM     10  C   UNL     1       1.487   9.460  18.817  0.00  0.00    +0.000 A 
ATOM     11  N   UNL     1       1.678  10.226  17.729  0.00  0.00    +0.000 N 
ATOM     12  H   UNL     1       1.122  11.062  17.593  0.00  0.00    +0.000 HD
ATOM     13  H   UNL     1       2.164   9.884  16.903  0.00  0.00    +0.000 HD
ENDROOT
BRANCH   2  14
ATOM     14  C   UNL     1       5.376   4.954  17.271  0.00  0.00    +0.000 C 
ATOM     15  O   UNL     1       6.377   4.794  17.960  0.00  0.00    +0.000 OA
BRANCH  14  16
ATOM     16  O   UNL     1       5.076   4.207  16.166  0.00  0.00    +0.000 OA
BRANCH  16  17
ATOM     17  C   UNL     1       6.194   3.708  15.420  0.00  0.00    +0.000 C 
ATOM     18  C   UNL     1       6.535   4.723  14.343  0.00  0.00    +0.000 C 
ENDBRANCH  16  17
ENDBRANCH  14  16
ENDBRANCH   2  14
BRANCH   1  19
ATOM     19  C   UNL     1       2.899   5.164  19.410  0.00  0.00    +0.000 C 
BRANCH  19  20
ATOM     20  N   UNL     1       1.619   4.554  18.979  0.00  0.00    +0.000 NA
BRANCH  20  21
ATOM     21  C   UNL     1       1.826   3.666  17.810  0.00  0.00    +0.000 C 
BRANCH  21  23
ATOM     22  C   UNL     1       3.487   1.750  18.163  0.00  0.00    +0.000 C 
ATOM     23  C   UNL     1       2.026   2.173  18.111  0.00  0.00    +0.000 C 
ENDBRANCH  21  23
ENDBRANCH  20  21
BRANCH  20  24
ATOM     24  C   UNL     1       0.987   3.813  20.096  0.00  0.00    +0.000 C 
BRANCH  24  25
ATOM     25  C   UNL     1       1.794   3.774  21.405  0.00  0.00    +0.000 C 
ATOM     26  C   UNL     1       2.147   2.342  21.792  0.00  0.00    +0.000 C 
ENDBRANCH  24  25
ENDBRANCH  20  24
ENDBRANCH  19  20
ENDBRANCH   1  19
TORSDOF 9
ENDMDL
MODEL 5
REMARK VINA RESULT:      -6.4      2.417      5.337
REMARK  Name = 
REMARK  12 active torsions:
REMARK  status: ('A' for Active; 'I' for Inactive)
REMARK    1  A    between atoms: C_1  and  C_2
REMARK    2  A    between atoms: C_2  and  C_3
REMARK    3  A    between atoms: C_3  and  N_4
REMARK    4  A    between atoms: N_4  and  C_5
REMARK    5  A    between atoms: N_4  and  C_8
REMARK    6  A    between atoms: C_5  and  C_6
REMARK    7  A    between atoms: C_6  and  C_7
REMARK    8  A    between atoms: C_8  and  C_9
REMARK    9  A    between atoms: C_10  and  C_11
REMARK   10  A    between atoms: C_11  and  O_13
REMARK   11  A    between atoms: O_13  and  C_14
REMARK   12  A    between atoms: C_14  and  C_15
REMARK                            x       y       z     vdW  Elec       q    Type
REMARK                         _______ _______ _______ _____ _____    ______ ____
ROOT
ATOM      1  C   UNL     1       5.305   5.550  17.855  0.00  0.00    +0.000 A 
ATOM      2  C   UNL     1       6.640   5.906  17.992  0.00  0.00    +0.000 A 
ATOM      3  N   UNL     1       7.264   4.981  18.782  0.00  0.00    +0.000 NA
ATOM      4  N   UNL     1       6.387   4.055  19.116  0.00  0.00    +0.000 NA
ATOM      5  N   UNL     1       5.208   4.306  18.474  0.00  0.00    +0.000 N 
ATOM      6  C   UNL     1       4.145   3.370  18.489  0.00  0.00    +0.000 A 
ATOM      7  N   UNL     1       3.077   3.517  17.707  0.00  0.00    +0.000 NA
ATOM      8  O   UNL     1       2.280   2.415  18.001  0.00  0.00    +0.000 OA
ATOM      9  N   UNL     1       2.893   1.584  18.932  0.00  0.00    +0.000 NA
ATOM     10  C   UNL     1       4.051   2.172  19.225  0.00  0.00    +0.000 A 
ATOM     11  N   UNL     1       4.951   1.678  20.092  0.00  0.00    +0.000 N 
ATOM     12  H   UNL     1       4.715   0.875  20.665  0.00  0.00    +0.000 HD
ATOM     13  H   UNL     1       5.761   2.211  20.398  0.00  0.00    +0.000 HD
ENDROOT
BRANCH   2  14
ATOM     14  C   UNL     1       7.346   7.035  17.402  0.00  0.00    +0.000 C 
ATOM     15  O   UNL     1       7.894   7.001  16.307  0.00  0.00    +0.000 OA
BRANCH  14  16
ATOM     16  O   UNL     1       7.411   8.096  18.261  0.00  0.00    +0.000 OA
BRANCH  16  17
ATOM     17  C   UNL     1       8.085   9.263  17.772  0.00  0.00    +0.000 C 
ATOM     18  C   UNL     1       9.009   9.769  18.865  0.00  0.00    +0.000 C 
ENDBRANCH  16  17
ENDBRANCH  14  16
ENDBRANCH   2  14
BRANCH   1  19
ATOM     19  C   UNL     1       4.161   6.270  17.225  0.00  0.00    +0.000 C 
BRANCH  19  20
ATOM     20  N   UNL     1       3.427   7.117  18.194  0.00  0.00    +0.000 NA
BRANCH  20  21
ATOM     21  C   UNL     1       3.064   8.419  17.587  0.00  0.00    +0.000 C 
BRANCH  21  23
ATOM     22  C   UNL     1       1.411  10.177  18.446  0.00  0.00    +0.000 C 
ATOM     23  C   UNL     1       1.596   8.852  17.720  0.00  0.00    +0.000 C 
ENDBRANCH  21  23
ENDBRANCH  20  21
BRANCH  20  24
ATOM     24  C   UNL     1       2.220   6.416  18.695  0.00  0.00    +0.000 C 
BRANCH  24  25
ATOM     25  C   UNL     1       2.138   6.247  20.221  0.00  0.00    +0.000 C 
ATOM     26  C   UNL     1       1.523   4.902  20.594  0.00  0.00    +0.000 C 
ENDBRANCH  24  25
ENDBRANCH  20  24
ENDBRANCH  19  20
ENDBRANCH   1  19
TORSDOF 9
ENDMDL
MODEL 6
REMARK VINA RESULT:      -6.3      3.137      6.284
REMARK  Name = 
REMARK  12 active torsions:
REMARK  status: ('A' for Active; 'I' for Inactive)
REMARK    1  A    between atoms: C_1  and  C_2
REMARK    2  A    between atoms: C_2  and  C_3
REMARK    3  A    between atoms: C_3  and  N_4
REMARK    4  A    between atoms: N_4  and  C_5
REMARK    5  A    between atoms: N_4  and  C_8
REMARK    6  A    between atoms: C_5  and  C_6
REMARK    7  A    between atoms: C_6  and  C_7
REMARK    8  A    between atoms: C_8  and  C_9
REMARK    9  A    between atoms: C_10  and  C_11
REMARK   10  A    between atoms: C_11  and  O_13
REMARK   11  A    between atoms: O_13  and  C_14
REMARK   12  A    between atoms: C_14  and  C_15
REMARK                            x       y       z     vdW  Elec       q    Type
REMARK                         _______ _______ _______ _____ _____    ______ ____
ROOT
ATOM      1  C   UNL     1       3.027   6.761  18.509  0.00  0.00    +0.000 A 
ATOM      2  C   UNL     1       3.847   6.990  17.412  0.00  0.00    +0.000 A 
ATOM      3  N   UNL     1       3.550   8.218  16.888  0.00  0.00    +0.000 NA
ATOM      4  N   UNL     1       2.607   8.772  17.625  0.00  0.00    +0.000 NA
ATOM      5  N   UNL     1       2.344   7.961  18.692  0.00  0.00    +0.000 N 
ATOM      6  C   UNL     1       1.515   8.391  19.758  0.00  0.00    +0.000 A 
ATOM      7  N   UNL     1       1.414   7.690  20.887  0.00  0.00    +0.000 NA
ATOM      8  O   UNL     1       0.532   8.426  21.671  0.00  0.00    +0.000 OA
ATOM      9  N   UNL     1       0.134   9.592  21.025  0.00  0.00    +0.000 NA
ATOM     10  C   UNL     1       0.752   9.571  19.845  0.00  0.00    +0.000 A 
ATOM     11  N   UNL     1       0.633  10.534  18.915  0.00  0.00    +0.000 N 
ATOM     12  H   UNL     1      -0.050  11.273  19.033  0.00  0.00    +0.000 HD
ATOM     13  H   UNL     1       1.006  10.429  17.974  0.00  0.00    +0.000 HD
ENDROOT
BRANCH   2  14
ATOM     14  C   UNL     1       4.894   6.138  16.865  0.00  0.00    +0.000 C 
ATOM     15  O   UNL     1       4.839   4.914  16.847  0.00  0.00    +0.000 OA
BRANCH  14  16
ATOM     16  O   UNL     1       5.984   6.864  16.474  0.00  0.00    +0.000 OA
BRANCH  16  17
ATOM     17  C   UNL     1       7.187   6.645  17.222  0.00  0.00    +0.000 C 
ATOM     18  C   UNL     1       7.765   7.999  17.596  0.00  0.00    +0.000 C 
ENDBRANCH  16  17
ENDBRANCH  14  16
ENDBRANCH   2  14
BRANCH   1  19
ATOM     19  C   UNL     1       2.838   5.545  19.351  0.00  0.00    +0.000 C 
BRANCH  19  20
ATOM     20  N   UNL     1       1.590   4.819  19.018  0.00  0.00    +0.000 NA
BRANCH  20  21
ATOM     21  C   UNL     1       1.797   3.923  17.856  0.00  0.00    +0.000 C 
BRANCH  21  23
ATOM     22  C   UNL     1       3.341   1.888  18.045  0.00  0.00    +0.000 C 
ATOM     23  C   UNL     1       1.920   2.422  18.162  0.00  0.00    +0.000 C 
ENDBRANCH  21  23
ENDBRANCH  20  21
BRANCH  20  24
ATOM     24  C   UNL     1       1.098   4.055  20.190  0.00  0.00    +0.000 C 
BRANCH  24  25
ATOM     25  C   UNL     1       2.065   3.977  21.383  0.00  0.00    +0.000 C 
ATOM     26  C   UNL     1       2.335   2.529  21.779  0.00  0.00    +0.000 C 
ENDBRANCH  24  25
ENDBRANCH  20  24
ENDBRANCH  19  20
ENDBRANCH   1  19
TORSDOF 9
ENDMDL
MODEL 7
REMARK VINA RESULT:      -6.2      1.300      1.391
REMARK  Name = 
REMARK  12 active torsions:
REMARK  status: ('A' for Active; 'I' for Inactive)
REMARK    1  A    between atoms: C_1  and  C_2
REMARK    2  A    between atoms: C_2  and  C_3
REMARK    3  A    between atoms: C_3  and  N_4
REMARK    4  A    between atoms: N_4  and  C_5
REMARK    5  A    between atoms: N_4  and  C_8
REMARK    6  A    between atoms: C_5  and  C_6
REMARK    7  A    between atoms: C_6  and  C_7
REMARK    8  A    between atoms: C_8  and  C_9
REMARK    9  A    between atoms: C_10  and  C_11
REMARK   10  A    between atoms: C_11  and  O_13
REMARK   11  A    between atoms: O_13  and  C_14
REMARK   12  A    between atoms: C_14  and  C_15
REMARK                            x       y       z     vdW  Elec       q    Type
REMARK                         _______ _______ _______ _____ _____    ______ ____
ROOT
ATOM      1  C   UNL     1       3.726   4.683  18.285  0.00  0.00    +0.000 A 
ATOM      2  C   UNL     1       3.001   3.568  17.887  0.00  0.00    +0.000 A 
ATOM      3  N   UNL     1       3.469   3.147  16.674  0.00  0.00    +0.000 NA
ATOM      4  N   UNL     1       4.469   3.929  16.316  0.00  0.00    +0.000 NA
ATOM      5  N   UNL     1       4.730   4.808  17.328  0.00  0.00    +0.000 N 
ATOM      6  C   UNL     1       5.876   5.641  17.305  0.00  0.00    +0.000 A 
ATOM      7  N   UNL     1       6.242   6.350  18.372  0.00  0.00    +0.000 NA
ATOM      8  O   UNL     1       7.393   7.017  17.963  0.00  0.00    +0.000 OA
ATOM      9  N   UNL     1       7.740   6.674  16.661  0.00  0.00    +0.000 NA
ATOM     10  C   UNL     1       6.804   5.814  16.260  0.00  0.00    +0.000 A 
ATOM     11  N   UNL     1       6.781   5.237  15.046  0.00  0.00    +0.000 N 
ATOM     12  H   UNL     1       7.427   5.541  14.327  0.00  0.00    +0.000 HD
ATOM     13  H   UNL     1       5.986   4.692  14.719  0.00  0.00    +0.000 HD
ENDROOT
BRANCH   2  14
ATOM     14  C   UNL     1       1.931   2.878  18.595  0.00  0.00    +0.000 C 
ATOM     15  O   UNL     1       0.757   2.896  18.244  0.00  0.00    +0.000 OA
BRANCH  14  16
ATOM     16  O   UNL     1       2.379   2.301  19.750  0.00  0.00    +0.000 OA
BRANCH  16  17
ATOM     17  C   UNL     1       1.527   2.440  20.895  0.00  0.00    +0.000 C 
ATOM     18  C   UNL     1       2.214   3.361  21.887  0.00  0.00    +0.000 C 
ENDBRANCH  16  17
ENDBRANCH  14  16
ENDBRANCH   2  14
BRANCH   1  19
ATOM     19  C   UNL     1       3.542   5.608  19.441  0.00  0.00    +0.000 C 
BRANCH  19  20
ATOM     20  N   UNL     1       2.349   6.472  19.286  0.00  0.00    +0.000 NA
BRANCH  20  21
ATOM     21  C   UNL     1       1.622   6.601  20.571  0.00  0.00    +0.000 C 
BRANCH  21  23
ATOM     22  C   UNL     1       0.124   8.495  21.425  0.00  0.00    +0.000 C 
ATOM     23  C   UNL     1       1.546   8.011  21.176  0.00  0.00    +0.000 C 
ENDBRANCH  21  23
ENDBRANCH  20  21
BRANCH  20  24
ATOM     24  C   UNL     1       2.730   7.805  18.762  0.00  0.00    +0.000 C 
BRANCH  24  25
ATOM     25  C   UNL     1       1.797   8.386  17.686  0.00  0.00    +0.000 C 
ATOM     26  C   UNL     1       1.481   9.852  17.965  0.00  0.00    +0.000 C 
ENDBRANCH  24  25
ENDBRANCH  20  24
ENDBRANCH  19  20
ENDBRANCH   1  19
TORSDOF 9
ENDMDL
MODEL 8
REMARK VINA RESULT:      -6.2      2.812      5.798
REMARK  Name = 
REMARK  12 active torsions:
REMARK  status: ('A' for Active; 'I' for Inactive)
REMARK    1  A    between atoms: C_1  and  C_2
REMARK    2  A    between atoms: C_2  and  C_3
REMARK    3  A    between atoms: C_3  and  N_4
REMARK    4  A    between atoms: N_4  and  C_5
REMARK    5  A    between atoms: N_4  and  C_8
REMARK    6  A    between atoms: C_5  and  C_6
REMARK    7  A    between atoms: C_6  and  C_7
REMARK    8  A    between atoms: C_8  and  C_9
REMARK    9  A    between atoms: C_10  and  C_11
REMARK   10  A    between atoms: C_11  and  O_13
REMARK   11  A    between atoms: O_13  and  C_14
REMARK   12  A    between atoms: C_14  and  C_15
REMARK                            x       y       z     vdW  Elec       q    Type
REMARK                         _______ _______ _______ _____ _____    ______ ____
ROOT
ATOM      1  C   UNL     1       3.787   6.304  18.524  0.00  0.00    +0.000 A 
ATOM      2  C   UNL     1       4.688   6.265  17.469  0.00  0.00    +0.000 A 
ATOM      3  N   UNL     1       4.381   7.266  16.588  0.00  0.00    +0.000 NA
ATOM      4  N   UNL     1       3.352   7.940  17.063  0.00  0.00    +0.000 NA
ATOM      5  N   UNL     1       3.035   7.455  18.300  0.00  0.00    +0.000 N 
ATOM      6  C   UNL     1       2.095   8.113  19.132  0.00  0.00    +0.000 A 
ATOM      7  N   UNL     1       1.929   7.762  20.406  0.00  0.00    +0.000 NA
ATOM      8  O   UNL     1       0.947   8.628  20.877  0.00  0.00    +0.000 OA
ATOM      9  N   UNL     1       0.554   9.527  19.891  0.00  0.00    +0.000 NA
ATOM     10  C   UNL     1       1.273   9.212  18.816  0.00  0.00    +0.000 A 
ATOM     11  N   UNL     1       1.191   9.855  17.638  0.00  0.00    +0.000 N 
ATOM     12  H   UNL     1       0.466  10.547  17.487  0.00  0.00    +0.000 HD
ATOM     13  H   UNL     1       1.650   9.511  16.798  0.00  0.00    +0.000 HD
ENDROOT
BRANCH   2  14
ATOM     14  C   UNL     1       5.818   5.368  17.270  0.00  0.00    +0.000 C 
ATOM     15  O   UNL     1       5.758   4.152  17.410  0.00  0.00    +0.000 OA
BRANCH  14  16
ATOM     16  O   UNL     1       6.971   6.056  17.015  0.00  0.00    +0.000 OA
BRANCH  16  17
ATOM     17  C   UNL     1       7.564   6.730  18.132  0.00  0.00    +0.000 C 
ATOM     18  C   UNL     1       7.933   8.136  17.696  0.00  0.00    +0.000 C 
ENDBRANCH  16  17
ENDBRANCH  14  16
ENDBRANCH   2  14
BRANCH   1  19
ATOM     19  C   UNL     1       3.581   5.372  19.669  0.00  0.00    +0.000 C 
BRANCH  19  20
ATOM     20  N   UNL     1       2.609   4.300  19.355  0.00  0.00    +0.000 NA
BRANCH  20  21
ATOM     21  C   UNL     1       1.425   4.386  20.242  0.00  0.00    +0.000 C 
BRANCH  21  23
ATOM     22  C   UNL     1       1.950   2.470  21.857  0.00  0.00    +0.000 C 
ATOM     23  C   UNL     1       0.950   3.073  20.881  0.00  0.00    +0.000 C 
ENDBRANCH  21  23
ENDBRANCH  20  21
BRANCH  20  24
ATOM     24  C   UNL     1       2.203   4.360  17.930  0.00  0.00    +0.000 C 
BRANCH  24  25
ATOM     25  C   UNL     1       2.476   3.088  17.110  0.00  0.00    +0.000 C 
ATOM     26  C   UNL     1       3.030   1.973  17.991  0.00  0.00    +0.000 C 
ENDBRANCH  24  25
ENDBRANCH  20  24
ENDBRANCH  19  20
ENDBRANCH   1  19
TORSDOF 9
ENDMDL
MODEL 9
REMARK VINA RESULT:      -6.2      2.542      6.024
REMARK  Name = 
REMARK  12 active torsions:
REMARK  status: ('A' for Active; 'I' for Inactive)
REMARK    1  A    between atoms: C_1  and  C_2
REMARK    2  A    between atoms: C_2  and  C_3
REMARK    3  A    between atoms: C_3  and  N_4
REMARK    4  A    between atoms: N_4  and  C_5
REMARK    5  A    between atoms: N_4  and  C_8
REMARK    6  A    between atoms: C_5  and  C_6
REMARK    7  A    between atoms: C_6  and  C_7
REMARK    8  A    between atoms: C_8  and  C_9
REMARK    9  A    between atoms: C_10  and  C_11
REMARK   10  A    between atoms: C_11  and  O_13
REMARK   11  A    between atoms: O_13  and  C_14
REMARK   12  A    between atoms: C_14  and  C_15
REMARK                            x       y       z     vdW  Elec       q    Type
REMARK                         _______ _______ _______ _____ _____    ______ ____
ROOT
ATOM      1  C   UNL     1       5.107   4.309  17.875  0.00  0.00    +0.000 A 
ATOM      2  C   UNL     1       6.301   4.680  18.479  0.00  0.00    +0.000 A 
ATOM      3  N   UNL     1       6.083   4.851  19.818  0.00  0.00    +0.000 NA
ATOM      4  N   UNL     1       4.819   4.575  20.076  0.00  0.00    +0.000 NA
ATOM      5  N   UNL     1       4.220   4.128  18.933  0.00  0.00    +0.000 N 
ATOM      6  C   UNL     1       2.916   3.574  18.952  0.00  0.00    +0.000 A 
ATOM      7  N   UNL     1       2.406   2.958  17.886  0.00  0.00    +0.000 NA
ATOM      8  O   UNL     1       1.139   2.555  18.294  0.00  0.00    +0.000 OA
ATOM      9  N   UNL     1       0.905   2.895  19.622  0.00  0.00    +0.000 NA
ATOM     10  C   UNL     1       2.010   3.517  20.029  0.00  0.00    +0.000 A 
ATOM     11  N   UNL     1       2.189   4.003  21.269  0.00  0.00    +0.000 N 
ATOM     12  H   UNL     1       1.415   4.024  21.923  0.00  0.00    +0.000 HD
ATOM     13  H   UNL     1       2.984   4.590  21.513  0.00  0.00    +0.000 HD
ENDROOT
BRANCH   2  14
ATOM     14  C   UNL     1       7.614   4.848  17.873  0.00  0.00    +0.000 C 
ATOM     15  O   UNL     1       8.486   3.987  17.882  0.00  0.00    +0.000 OA
BRANCH  14  16
ATOM     16  O   UNL     1       7.789   6.114  17.389  0.00  0.00    +0.000 OA
BRANCH  16  17
ATOM     17  C   UNL     1       8.045   7.132  18.365  0.00  0.00    +0.000 C 
ATOM     18  C   UNL     1       7.860   8.484  17.699  0.00  0.00    +0.000 C 
ENDBRANCH  16  17
ENDBRANCH  14  16
ENDBRANCH   2  14
BRANCH   1  19
ATOM     19  C   UNL     1       4.752   4.134  16.437  0.00  0.00    +0.000 C 
BRANCH  19  20
ATOM     20  N   UNL     1       4.682   5.424  15.713  0.00  0.00    +0.000 NA
BRANCH  20  21
ATOM     21  C   UNL     1       4.766   6.563  16.658  0.00  0.00    +0.000 C 
BRANCH  21  23
ATOM     22  C   UNL     1       2.897   7.283  18.253  0.00  0.00    +0.000 C 
ATOM     23  C   UNL     1       3.485   7.388  16.853  0.00  0.00    +0.000 C 
ENDBRANCH  21  23
ENDBRANCH  20  21
BRANCH  20  24
ATOM     24  C   UNL     1       5.750   5.511  14.689  0.00  0.00    +0.000 C 
BRANCH  24  25
ATOM     25  C   UNL     1       6.484   4.194  14.383  0.00  0.00    +0.000 C 
ATOM     26  C   UNL     1       6.168   3.703  12.974  0.00  0.00    +0.000 C 
ENDBRANCH  24  25
ENDBRANCH  20  24
ENDBRANCH  19  20
ENDBRANCH   1  19
TORSDOF 9
ENDMDL
