MODEL 1
REMARK VINA RESULT:      -8.6      0.000      0.000
REMARK  Name = 
REMARK  6 active torsions:
REMARK  status: ('A' for Active; 'I' for Inactive)
REMARK    1  A    between atoms: C_1  and  C_2
REMARK    2  A    between atoms: C_2  and  C_3
REMARK    3  A    between atoms: C_2  and  N_4
REMARK    4  A    between atoms: N_4  and  C_5
REMARK    5  A    between atoms: N_8  and  C_9
REMARK    6  A    between atoms: N_24  and  C_25
REMARK                            x       y       z     vdW  Elec       q    Type
REMARK                         _______ _______ _______ _____ _____    ______ ____
ROOT
ATOM      1  C   UNL     1      -0.394  12.354  20.410  0.00  0.00    +0.000 A 
ATOM      2  C   UNL     1      -0.784  11.016  20.419  0.00  0.00    +0.000 A 
ATOM      3  C   UNL     1      -0.027  10.060  19.751  0.00  0.00    +0.000 A 
ATOM      4  C   UNL     1       1.135  10.441  19.084  0.00  0.00    +0.000 A 
ATOM      5  N   UNL     1       1.907   9.519  18.390  0.00  0.00    +0.000 N 
ATOM      6  C   UNL     1       2.169   8.197  18.712  0.00  0.00    +0.000 A 
ATOM      7  N   UNL     1       1.698   7.686  19.873  0.00  0.00    +0.000 NA
ATOM      8  C   UNL     1       2.003   6.420  20.226  0.00  0.00    +0.000 A 
ATOM      9  C   UNL     1       2.730   5.634  19.349  0.00  0.00    +0.000 A 
ATOM     10  C   UNL     1       3.241   4.311  19.318  0.00  0.00    +0.000 A 
ATOM     11  C   UNL     1       3.425   3.278  20.244  0.00  0.00    +0.000 A 
ATOM     12  C   UNL     1       3.746   2.039  19.712  0.00  0.00    +0.000 A 
ATOM     13  N   UNL     1       3.780   1.757  18.392  0.00  0.00    +0.000 NA
ATOM     14  C   UNL     1       3.656   2.764  17.501  0.00  0.00    +0.000 A 
ATOM     15  C   UNL     1       3.532   4.062  17.978  0.00  0.00    +0.000 A 
ATOM     16  N   UNL     1       3.776   5.305  17.416  0.00  0.00    +0.000 N 
ATOM     17  C   UNL     1       3.100   6.244  18.161  0.00  0.00    +0.000 A 
ATOM     18  N   UNL     1       2.914   7.528  17.822  0.00  0.00    +0.000 NA
ATOM     19  N   UNL     1       1.539  11.718  19.044  0.00  0.00    +0.000 NA
ATOM     20  C   UNL     1       0.788  12.629  19.713  0.00  0.00    +0.000 A 
ATOM     21  H   UNL     1       2.662   9.938  17.870  0.00  0.00    +0.000 HD
ENDROOT
BRANCH   1  25
ATOM     22  C   UNL     1      -3.000  15.407  21.780  0.00  0.00    +0.000 C 
ATOM     23  C   UNL     1      -3.292  13.905  21.941  0.00  0.00    +0.000 C 
ATOM     24  C   UNL     1      -2.027  13.072  22.118  0.00  0.00    +0.000 C 
ATOM     25  N   UNL     1      -1.151  13.353  20.984  0.00  0.00    +0.000 N 
ATOM     26  C   UNL     1      -0.691  14.741  20.903  0.00  0.00    +0.000 C 
ATOM     27  C   UNL     1      -1.916  15.628  20.704  0.00  0.00    +0.000 C 
BRANCH  22  28
ATOM     28  N   UNL     1      -2.684  15.992  23.098  0.00  0.00    +0.000 NA
ATOM     29  H   UNL     1      -1.715  15.769  23.331  0.00  0.00    +0.000 HD
BRANCH  28  31
ATOM     30  C   UNL     1      -2.783  15.031  25.423  0.00  0.00    +0.000 C 
ATOM     31  C   UNL     1      -3.550  15.554  24.204  0.00  0.00    +0.000 C 
ATOM     32  C   UNL     1      -4.428  16.732  24.639  0.00  0.00    +0.000 C 
ENDBRANCH  28  31
ENDBRANCH  22  28
ENDBRANCH   1  25
BRANCH  16  33
ATOM     33  C   UNL     1       4.974   5.651  16.650  0.00  0.00    +0.000 C 
ATOM     34  C   UNL     1       6.248   5.275  17.421  0.00  0.00    +0.000 C 
ATOM     35  C   UNL     1       7.329   5.120  16.372  0.00  0.00    +0.000 C 
ATOM     36  C   UNL     1       6.616   4.736  15.082  0.00  0.00    +0.000 C 
ATOM     37  C   UNL     1       5.124   5.006  15.276  0.00  0.00    +0.000 C 
ENDBRANCH  16  33
TORSDOF 4
ENDMDL
MODEL 2
REMARK VINA RESULT:      -8.6      0.686      1.154
REMARK  Name = 
REMARK  6 active torsions:
REMARK  status: ('A' for Active; 'I' for Inactive)
REMARK    1  A    between atoms: C_1  and  C_2
REMARK    2  A    between atoms: C_2  and  C_3
REMARK    3  A    between atoms: C_2  and  N_4
REMARK    4  A    between atoms: N_4  and  C_5
REMARK    5  A    between atoms: N_8  and  C_9
REMARK    6  A    between atoms: N_24  and  C_25
REMARK                            x       y       z     vdW  Elec       q    Type
REMARK                         _______ _______ _______ _____ _____    ______ ____
ROOT
ATOM      1  C   UNL     1      -0.414  12.295  20.713  0.00  0.00    +0.000 A 
ATOM      2  C   UNL     1      -0.793  10.954  20.720  0.00  0.00    +0.000 A 
ATOM      3  C   UNL     1      -0.057  10.014  20.006  0.00  0.00    +0.000 A 
ATOM      4  C   UNL     1       1.071  10.413  19.296  0.00  0.00    +0.000 A 
ATOM      5  N   UNL     1       1.820   9.508  18.557  0.00  0.00    +0.000 N 
ATOM      6  C   UNL     1       2.105   8.183  18.848  0.00  0.00    +0.000 A 
ATOM      7  N   UNL     1       1.689   7.652  20.021  0.00  0.00    +0.000 NA
ATOM      8  C   UNL     1       2.018   6.383  20.343  0.00  0.00    +0.000 A 
ATOM      9  C   UNL     1       2.712   5.616  19.424  0.00  0.00    +0.000 A 
ATOM     10  C   UNL     1       3.231   4.298  19.352  0.00  0.00    +0.000 A 
ATOM     11  C   UNL     1       3.461   3.253  20.254  0.00  0.00    +0.000 A 
ATOM     12  C   UNL     1       3.769   2.024  19.691  0.00  0.00    +0.000 A 
ATOM     13  N   UNL     1       3.748   1.761  18.367  0.00  0.00    +0.000 NA
ATOM     14  C   UNL     1       3.579   2.780  17.497  0.00  0.00    +0.000 A 
ATOM     15  C   UNL     1       3.466   4.070  17.997  0.00  0.00    +0.000 A 
ATOM     16  N   UNL     1       3.677   5.322  17.444  0.00  0.00    +0.000 N 
ATOM     17  C   UNL     1       3.027   6.245  18.230  0.00  0.00    +0.000 A 
ATOM     18  N   UNL     1       2.817   7.532  17.917  0.00  0.00    +0.000 NA
ATOM     19  N   UNL     1       1.464  11.694  19.257  0.00  0.00    +0.000 NA
ATOM     20  C   UNL     1       0.736  12.589  19.971  0.00  0.00    +0.000 A 
ATOM     21  H   UNL     1       2.549   9.939  18.011  0.00  0.00    +0.000 HD
ENDROOT
BRANCH   1  25
ATOM     22  C   UNL     1      -2.266  15.506  22.775  0.00  0.00    +0.000 C 
ATOM     23  C   UNL     1      -1.687  15.628  21.354  0.00  0.00    +0.000 C 
ATOM     24  C   UNL     1      -1.799  14.334  20.556  0.00  0.00    +0.000 C 
ATOM     25  N   UNL     1      -1.152  13.280  21.333  0.00  0.00    +0.000 N 
ATOM     26  C   UNL     1      -1.792  12.996  22.620  0.00  0.00    +0.000 C 
ATOM     27  C   UNL     1      -1.696  14.255  23.477  0.00  0.00    +0.000 C 
BRANCH  22  28
ATOM     28  N   UNL     1      -3.740  15.557  22.714  0.00  0.00    +0.000 NA
ATOM     29  H   UNL     1      -4.020  16.463  22.333  0.00  0.00    +0.000 HD
BRANCH  28  31
ATOM     30  C   UNL     1      -4.882  16.647  24.675  0.00  0.00    +0.000 C 
ATOM     31  C   UNL     1      -4.429  15.350  23.998  0.00  0.00    +0.000 C 
ATOM     32  C   UNL     1      -5.654  14.460  23.761  0.00  0.00    +0.000 C 
ENDBRANCH  28  31
ENDBRANCH  22  28
ENDBRANCH   1  25
BRANCH  16  33
ATOM     33  C   UNL     1       4.838   5.689  16.632  0.00  0.00    +0.000 C 
ATOM     34  C   UNL     1       6.138   5.559  17.441  0.00  0.00    +0.000 C 
ATOM     35  C   UNL     1       7.239   5.381  16.417  0.00  0.00    +0.000 C 
ATOM     36  C   UNL     1       6.584   4.752  15.195  0.00  0.00    +0.000 C 
ATOM     37  C   UNL     1       5.070   4.884  15.357  0.00  0.00    +0.000 C 
ENDBRANCH  16  33
TORSDOF 4
ENDMDL
MODEL 3
REMARK VINA RESULT:      -8.6      1.484      3.299
REMARK  Name = 
REMARK  6 active torsions:
REMARK  status: ('A' for Active; 'I' for Inactive)
REMARK    1  A    between atoms: C_1  and  C_2
REMARK    2  A    between atoms: C_2  and  C_3
REMARK    3  A    between atoms: C_2  and  N_4
REMARK    4  A    between atoms: N_4  and  C_5
REMARK    5  A    between atoms: N_8  and  C_9
REMARK    6  A    between atoms: N_24  and  C_25
REMARK                            x       y       z     vdW  Elec       q    Type
REMARK                         _______ _______ _______ _____ _____    ______ ____
ROOT
ATOM      1  C   UNL     1      -0.547  10.792  21.527  0.00  0.00    +0.000 A 
ATOM      2  C   UNL     1       0.685  10.920  20.888  0.00  0.00    +0.000 A 
ATOM      3  C   UNL     1       1.447   9.792  20.603  0.00  0.00    +0.000 A 
ATOM      4  C   UNL     1       0.967   8.530  20.942  0.00  0.00    +0.000 A 
ATOM      5  N   UNL     1       1.708   7.382  20.691  0.00  0.00    +0.000 N 
ATOM      6  C   UNL     1       2.532   7.107  19.612  0.00  0.00    +0.000 A 
ATOM      7  N   UNL     1       2.627   7.998  18.599  0.00  0.00    +0.000 NA
ATOM      8  C   UNL     1       3.376   7.711  17.513  0.00  0.00    +0.000 A 
ATOM      9  C   UNL     1       4.103   6.534  17.492  0.00  0.00    +0.000 A 
ATOM     10  C   UNL     1       4.983   5.872  16.598  0.00  0.00    +0.000 A 
ATOM     11  C   UNL     1       5.343   6.005  15.252  0.00  0.00    +0.000 A 
ATOM     12  C   UNL     1       6.448   5.273  14.845  0.00  0.00    +0.000 A 
ATOM     13  N   UNL     1       7.236   4.553  15.672  0.00  0.00    +0.000 NA
ATOM     14  C   UNL     1       6.859   4.381  16.957  0.00  0.00    +0.000 A 
ATOM     15  C   UNL     1       5.652   4.926  17.374  0.00  0.00    +0.000 A 
ATOM     16  N   UNL     1       4.795   4.638  18.423  0.00  0.00    +0.000 N 
ATOM     17  C   UNL     1       3.980   5.730  18.614  0.00  0.00    +0.000 A 
ATOM     18  N   UNL     1       3.164   5.926  19.661  0.00  0.00    +0.000 NA
ATOM     19  N   UNL     1      -0.207   8.365  21.565  0.00  0.00    +0.000 NA
ATOM     20  C   UNL     1      -0.937   9.480  21.822  0.00  0.00    +0.000 A 
ATOM     21  H   UNL     1       1.296   6.546  21.074  0.00  0.00    +0.000 HD
ENDROOT
BRANCH   1  25
ATOM     22  C   UNL     1      -3.239  13.935  22.455  0.00  0.00    +0.000 C 
ATOM     23  C   UNL     1      -3.164  12.618  23.248  0.00  0.00    +0.000 C 
ATOM     24  C   UNL     1      -1.757  12.031  23.288  0.00  0.00    +0.000 C 
ATOM     25  N   UNL     1      -1.303  11.880  21.908  0.00  0.00    +0.000 N 
ATOM     26  C   UNL     1      -1.176  13.139  21.170  0.00  0.00    +0.000 C 
ATOM     27  C   UNL     1      -2.562  13.769  21.078  0.00  0.00    +0.000 C 
BRANCH  22  28
ATOM     28  N   UNL     1      -2.699  15.037  23.276  0.00  0.00    +0.000 NA
ATOM     29  H   UNL     1      -1.683  14.939  23.326  0.00  0.00    +0.000 HD
BRANCH  28  31
ATOM     30  C   UNL     1      -2.163  15.329  25.718  0.00  0.00    +0.000 C 
ATOM     31  C   UNL     1      -3.235  15.123  24.644  0.00  0.00    +0.000 C 
ATOM     32  C   UNL     1      -4.233  16.283  24.710  0.00  0.00    +0.000 C 
ENDBRANCH  28  31
ENDBRANCH  22  28
ENDBRANCH   1  25
BRANCH  16  33
ATOM     33  C   UNL     1       4.372   3.290  18.807  0.00  0.00    +0.000 C 
ATOM     34  C   UNL     1       3.682   3.300  20.179  0.00  0.00    +0.000 C 
ATOM     35  C   UNL     1       2.808   2.064  20.204  0.00  0.00    +0.000 C 
ATOM     36  C   UNL     1       2.465   1.758  18.752  0.00  0.00    +0.000 C 
ATOM     37  C   UNL     1       3.403   2.578  17.868  0.00  0.00    +0.000 C 
ENDBRANCH  16  33
TORSDOF 4
ENDMDL
MODEL 4
REMARK VINA RESULT:      -8.5      0.996      1.479
REMARK  Name = 
REMARK  6 active torsions:
REMARK  status: ('A' for Active; 'I' for Inactive)
REMARK    1  A    between atoms: C_1  and  C_2
REMARK    2  A    between atoms: C_2  and  C_3
REMARK    3  A    between atoms: C_2  and  N_4
REMARK    4  A    between atoms: N_4  and  C_5
REMARK    5  A    between atoms: N_8  and  C_9
REMARK    6  A    between atoms: N_24  and  C_25
REMARK                            x       y       z     vdW  Elec       q    Type
REMARK                         _______ _______ _______ _____ _____    ______ ____
ROOT
ATOM      1  C   UNL     1      -0.579  11.886  21.420  0.00  0.00    +0.000 A 
ATOM      2  C   UNL     1      -0.948  10.551  21.263  0.00  0.00    +0.000 A 
ATOM      3  C   UNL     1      -0.178   9.698  20.481  0.00  0.00    +0.000 A 
ATOM      4  C   UNL     1       0.976  10.176  19.866  0.00  0.00    +0.000 A 
ATOM      5  N   UNL     1       1.760   9.359  19.062  0.00  0.00    +0.000 N 
ATOM      6  C   UNL     1       2.043   8.012  19.217  0.00  0.00    +0.000 A 
ATOM      7  N   UNL     1       1.583   7.353  20.306  0.00  0.00    +0.000 NA
ATOM      8  C   UNL     1       1.908   6.058  20.500  0.00  0.00    +0.000 A 
ATOM      9  C   UNL     1       2.645   5.398  19.531  0.00  0.00    +0.000 A 
ATOM     10  C   UNL     1       3.175   4.097  19.336  0.00  0.00    +0.000 A 
ATOM     11  C   UNL     1       3.377   2.960  20.126  0.00  0.00    +0.000 A 
ATOM     12  C   UNL     1       3.716   1.802  19.444  0.00  0.00    +0.000 A 
ATOM     13  N   UNL     1       3.751   1.686  18.099  0.00  0.00    +0.000 NA
ATOM     14  C   UNL     1       3.610   2.794  17.340  0.00  0.00    +0.000 A 
ATOM     15  C   UNL     1       3.467   4.021  17.975  0.00  0.00    +0.000 A 
ATOM     16  N   UNL     1       3.691   5.327  17.572  0.00  0.00    +0.000 N 
ATOM     17  C   UNL     1       3.003   6.156  18.428  0.00  0.00    +0.000 A 
ATOM     18  N   UNL     1       2.797   7.469  18.250  0.00  0.00    +0.000 NA
ATOM     19  N   UNL     1       1.361  11.454  19.984  0.00  0.00    +0.000 NA
ATOM     20  C   UNL     1       0.598  12.263  20.762  0.00  0.00    +0.000 A 
ATOM     21  H   UNL     1       2.508   9.850  18.598  0.00  0.00    +0.000 HD
ENDROOT
BRANCH   1  25
ATOM     22  C   UNL     1      -2.892  14.393  23.940  0.00  0.00    +0.000 C 
ATOM     23  C   UNL     1      -1.355  14.440  23.872  0.00  0.00    +0.000 C 
ATOM     24  C   UNL     1      -0.813  14.100  22.488  0.00  0.00    +0.000 C 
ATOM     25  N   UNL     1      -1.349  12.794  22.114  0.00  0.00    +0.000 N 
ATOM     26  C   UNL     1      -2.807  12.753  21.978  0.00  0.00    +0.000 C 
ATOM     27  C   UNL     1      -3.412  13.068  23.342  0.00  0.00    +0.000 C 
BRANCH  22  28
ATOM     28  N   UNL     1      -3.452  15.608  23.316  0.00  0.00    +0.000 NA
ATOM     29  H   UNL     1      -3.231  16.411  23.908  0.00  0.00    +0.000 HD
BRANCH  28  31
ATOM     30  C   UNL     1      -5.725  16.267  24.174  0.00  0.00    +0.000 C 
ATOM     31  C   UNL     1      -4.904  15.581  23.078  0.00  0.00    +0.000 C 
ATOM     32  C   UNL     1      -5.196  16.264  21.738  0.00  0.00    +0.000 C 
ENDBRANCH  28  31
ENDBRANCH  22  28
ENDBRANCH   1  25
BRANCH  16  33
ATOM     33  C   UNL     1       4.881   5.784  16.854  0.00  0.00    +0.000 C 
ATOM     34  C   UNL     1       6.158   5.470  17.648  0.00  0.00    +0.000 C 
ATOM     35  C   UNL     1       7.274   5.429  16.626  0.00  0.00    +0.000 C 
ATOM     36  C   UNL     1       6.625   5.044  15.304  0.00  0.00    +0.000 C 
ATOM     37  C   UNL     1       5.113   5.202  15.463  0.00  0.00    +0.000 C 
ENDBRANCH  16  33
TORSDOF 4
ENDMDL
MODEL 5
REMARK VINA RESULT:      -8.4      1.124      1.693
REMARK  Name = 
REMARK  6 active torsions:
REMARK  status: ('A' for Active; 'I' for Inactive)
REMARK    1  A    between atoms: C_1  and  C_2
REMARK    2  A    between atoms: C_2  and  C_3
REMARK    3  A    between atoms: C_2  and  N_4
REMARK    4  A    between atoms: N_4  and  C_5
REMARK    5  A    between atoms: N_8  and  C_9
REMARK    6  A    between atoms: N_24  and  C_25
REMARK                            x       y       z     vdW  Elec       q    Type
REMARK                         _______ _______ _______ _____ _____    ______ ____
ROOT
ATOM      1  C   UNL     1      -0.247  12.528  19.783  0.00  0.00    +0.000 A 
ATOM      2  C   UNL     1      -0.682  11.205  19.836  0.00  0.00    +0.000 A 
ATOM      3  C   UNL     1       0.083  10.192  19.270  0.00  0.00    +0.000 A 
ATOM      4  C   UNL     1       1.297  10.501  18.662  0.00  0.00    +0.000 A 
ATOM      5  N   UNL     1       2.080   9.519  18.068  0.00  0.00    +0.000 N 
ATOM      6  C   UNL     1       2.276   8.209  18.475  0.00  0.00    +0.000 A 
ATOM      7  N   UNL     1       1.714   7.776  19.628  0.00  0.00    +0.000 NA
ATOM      8  C   UNL     1       1.952   6.521  20.065  0.00  0.00    +0.000 A 
ATOM      9  C   UNL     1       2.706   5.668  19.280  0.00  0.00    +0.000 A 
ATOM     10  C   UNL     1       3.172   4.330  19.351  0.00  0.00    +0.000 A 
ATOM     11  C   UNL     1       3.261   3.343  20.339  0.00  0.00    +0.000 A 
ATOM     12  C   UNL     1       3.573   2.067  19.894  0.00  0.00    +0.000 A 
ATOM     13  N   UNL     1       3.681   1.714  18.595  0.00  0.00    +0.000 NA
ATOM     14  C   UNL     1       3.649   2.675  17.647  0.00  0.00    +0.000 A 
ATOM     15  C   UNL     1       3.540   4.000  18.047  0.00  0.00    +0.000 A 
ATOM     16  N   UNL     1       3.862   5.202  17.439  0.00  0.00    +0.000 N 
ATOM     17  C   UNL     1       3.172   6.201  18.089  0.00  0.00    +0.000 A 
ATOM     18  N   UNL     1       3.053   7.470  17.671  0.00  0.00    +0.000 NA
ATOM     19  N   UNL     1       1.747  11.760  18.582  0.00  0.00    +0.000 NA
ATOM     20  C   UNL     1       0.987  12.729  19.153  0.00  0.00    +0.000 A 
ATOM     21  H   UNL     1       2.881   9.885  17.578  0.00  0.00    +0.000 HD
ENDROOT
BRANCH   1  25
ATOM     22  C   UNL     1      -2.448  15.620  21.676  0.00  0.00    +0.000 C 
ATOM     23  C   UNL     1      -0.941  15.710  21.377  0.00  0.00    +0.000 C 
ATOM     24  C   UNL     1      -0.543  14.958  20.111  0.00  0.00    +0.000 C 
ATOM     25  N   UNL     1      -1.004  13.579  20.254  0.00  0.00    +0.000 N 
ATOM     26  C   UNL     1      -2.458  13.433  20.348  0.00  0.00    +0.000 C 
ATOM     27  C   UNL     1      -2.919  14.152  21.613  0.00  0.00    +0.000 C 
BRANCH  22  28
ATOM     28  N   UNL     1      -3.184  16.538  20.784  0.00  0.00    +0.000 NA
ATOM     29  H   UNL     1      -2.932  17.499  21.024  0.00  0.00    +0.000 HD
BRANCH  28  31
ATOM     30  C   UNL     1      -5.303  17.098  22.021  0.00  0.00    +0.000 C 
ATOM     31  C   UNL     1      -4.650  16.409  20.819  0.00  0.00    +0.000 C 
ATOM     32  C   UNL     1      -5.228  17.005  19.532  0.00  0.00    +0.000 C 
ENDBRANCH  28  31
ENDBRANCH  22  28
ENDBRANCH   1  25
BRANCH  16  33
ATOM     33  C   UNL     1       5.117   5.470  16.736  0.00  0.00    +0.000 C 
ATOM     34  C   UNL     1       6.319   4.954  17.541  0.00  0.00    +0.000 C 
ATOM     35  C   UNL     1       7.427   4.743  16.530  0.00  0.00    +0.000 C 
ATOM     36  C   UNL     1       6.739   4.471  15.199  0.00  0.00    +0.000 C 
ATOM     37  C   UNL     1       5.270   4.865  15.344  0.00  0.00    +0.000 C 
ENDBRANCH  16  33
TORSDOF 4
ENDMDL
MODEL 6
REMARK VINA RESULT:      -8.3      1.845      3.721
REMARK  Name = 
REMARK  6 active torsions:
REMARK  status: ('A' for Active; 'I' for Inactive)
REMARK    1  A    between atoms: C_1  and  C_2
REMARK    2  A    between atoms: C_2  and  C_3
REMARK    3  A    between atoms: C_2  and  N_4
REMARK    4  A    between atoms: N_4  and  C_5
REMARK    5  A    between atoms: N_8  and  C_9
REMARK    6  A    between atoms: N_24  and  C_25
REMARK                            x       y       z     vdW  Elec       q    Type
REMARK                         _______ _______ _______ _____ _____    ______ ____
ROOT
ATOM      1  C   UNL     1      -0.669  12.647  20.165  0.00  0.00    +0.000 A 
ATOM      2  C   UNL     1       0.649  12.452  19.759  0.00  0.00    +0.000 A 
ATOM      3  C   UNL     1       1.214  11.182  19.796  0.00  0.00    +0.000 A 
ATOM      4  C   UNL     1       0.451  10.099  20.225  0.00  0.00    +0.000 A 
ATOM      5  N   UNL     1       0.986   8.819  20.293  0.00  0.00    +0.000 N 
ATOM      6  C   UNL     1       1.901   8.219  19.444  0.00  0.00    +0.000 A 
ATOM      7  N   UNL     1       2.327   8.883  18.344  0.00  0.00    +0.000 NA
ATOM      8  C   UNL     1       3.168   8.283  17.475  0.00  0.00    +0.000 A 
ATOM      9  C   UNL     1       3.647   7.019  17.770  0.00  0.00    +0.000 A 
ATOM     10  C   UNL     1       4.513   6.070  17.168  0.00  0.00    +0.000 A 
ATOM     11  C   UNL     1       5.100   5.895  15.910  0.00  0.00    +0.000 A 
ATOM     12  C   UNL     1       6.092   4.929  15.834  0.00  0.00    +0.000 A 
ATOM     13  N   UNL     1       6.585   4.253  16.894  0.00  0.00    +0.000 NA
ATOM     14  C   UNL     1       5.983   4.382  18.095  0.00  0.00    +0.000 A 
ATOM     15  C   UNL     1       4.853   5.185  18.189  0.00  0.00    +0.000 A 
ATOM     16  N   UNL     1       3.802   5.237  19.089  0.00  0.00    +0.000 N 
ATOM     17  C   UNL     1       3.195   6.465  18.956  0.00  0.00    +0.000 A 
ATOM     18  N   UNL     1       2.277   6.980  19.788  0.00  0.00    +0.000 NA
ATOM     19  N   UNL     1      -0.816  10.245  20.632  0.00  0.00    +0.000 NA
ATOM     20  C   UNL     1      -1.347  11.493  20.575  0.00  0.00    +0.000 A 
ATOM     21  H   UNL     1       0.364   8.146  20.713  0.00  0.00    +0.000 HD
ENDROOT
BRANCH   1  25
ATOM     22  C   UNL     1      -2.268  16.524  20.801  0.00  0.00    +0.000 C 
ATOM     23  C   UNL     1      -0.833  16.266  20.307  0.00  0.00    +0.000 C 
ATOM     24  C   UNL     1      -0.719  15.010  19.449  0.00  0.00    +0.000 C 
ATOM     25  N   UNL     1      -1.251  13.895  20.228  0.00  0.00    +0.000 N 
ATOM     26  C   UNL     1      -2.674  14.010  20.557  0.00  0.00    +0.000 C 
ATOM     27  C   UNL     1      -2.852  15.244  21.436  0.00  0.00    +0.000 C 
BRANCH  22  28
ATOM     28  N   UNL     1      -3.075  17.086  19.700  0.00  0.00    +0.000 NA
ATOM     29  H   UNL     1      -2.575  17.883  19.303  0.00  0.00    +0.000 HD
BRANCH  28  31
ATOM     30  C   UNL     1      -4.464  18.628  21.125  0.00  0.00    +0.000 C 
ATOM     31  C   UNL     1      -4.433  17.516  20.073  0.00  0.00    +0.000 C 
ATOM     32  C   UNL     1      -5.158  18.003  18.814  0.00  0.00    +0.000 C 
ENDBRANCH  28  31
ENDBRANCH  22  28
ENDBRANCH   1  25
BRANCH  16  33
ATOM     33  C   UNL     1       3.071   4.070  19.584  0.00  0.00    +0.000 C 
ATOM     34  C   UNL     1       2.538   4.317  21.004  0.00  0.00    +0.000 C 
ATOM     35  C   UNL     1       1.371   3.367  21.172  0.00  0.00    +0.000 C 
ATOM     36  C   UNL     1       0.825   3.114  19.773  0.00  0.00    +0.000 C 
ATOM     37  C   UNL     1       1.863   3.616  18.769  0.00  0.00    +0.000 C 
ENDBRANCH  16  33
TORSDOF 4
ENDMDL
MODEL 7
REMARK VINA RESULT:      -8.3      1.515      3.370
REMARK  Name = 
REMARK  6 active torsions:
REMARK  status: ('A' for Active; 'I' for Inactive)
REMARK    1  A    between atoms: C_1  and  C_2
REMARK    2  A    between atoms: C_2  and  C_3
REMARK    3  A    between atoms: C_2  and  N_4
REMARK    4  A    between atoms: N_4  and  C_5
REMARK    5  A    between atoms: N_8  and  C_9
REMARK    6  A    between atoms: N_24  and  C_25
REMARK                            x       y       z     vdW  Elec       q    Type
REMARK                         _______ _______ _______ _____ _____    ______ ____
ROOT
ATOM      1  C   UNL     1      -0.450  11.391  21.491  0.00  0.00    +0.000 A 
ATOM      2  C   UNL     1       0.817  11.379  20.910  0.00  0.00    +0.000 A 
ATOM      3  C   UNL     1       1.454  10.173  20.641  0.00  0.00    +0.000 A 
ATOM      4  C   UNL     1       0.814   8.972  20.938  0.00  0.00    +0.000 A 
ATOM      5  N   UNL     1       1.425   7.748  20.701  0.00  0.00    +0.000 N 
ATOM      6  C   UNL     1       2.260   7.388  19.656  0.00  0.00    +0.000 A 
ATOM      7  N   UNL     1       2.507   8.274  18.663  0.00  0.00    +0.000 NA
ATOM      8  C   UNL     1       3.266   7.911  17.607  0.00  0.00    +0.000 A 
ATOM      9  C   UNL     1       3.850   6.657  17.600  0.00  0.00    +0.000 A 
ATOM     10  C   UNL     1       4.687   5.906  16.735  0.00  0.00    +0.000 A 
ATOM     11  C   UNL     1       5.122   6.010  15.409  0.00  0.00    +0.000 A 
ATOM     12  C   UNL     1       6.151   5.156  15.041  0.00  0.00    +0.000 A 
ATOM     13  N   UNL     1       6.810   4.339  15.890  0.00  0.00    +0.000 NA
ATOM     14  C   UNL     1       6.355   4.199  17.154  0.00  0.00    +0.000 A 
ATOM     15  C   UNL     1       5.202   4.878  17.525  0.00  0.00    +0.000 A 
ATOM     16  N   UNL     1       4.269   4.682  18.530  0.00  0.00    +0.000 N 
ATOM     17  C   UNL     1       3.581   5.861  18.702  0.00  0.00    +0.000 A 
ATOM     18  N   UNL     1       2.746   6.141  19.714  0.00  0.00    +0.000 NA
ATOM     19  N   UNL     1      -0.400   8.941  21.504  0.00  0.00    +0.000 NA
ATOM     20  C   UNL     1      -1.004  10.131  21.746  0.00  0.00    +0.000 A 
ATOM     21  H   UNL     1       0.900   6.962  21.051  0.00  0.00    +0.000 HD
ENDROOT
BRANCH   1  25
ATOM     22  C   UNL     1      -1.979  15.155  22.710  0.00  0.00    +0.000 C 
ATOM     23  C   UNL     1      -1.441  14.873  21.295  0.00  0.00    +0.000 C 
ATOM     24  C   UNL     1      -1.678  13.435  20.848  0.00  0.00    +0.000 C 
ATOM     25  N   UNL     1      -1.089  12.556  21.855  0.00  0.00    +0.000 N 
ATOM     26  C   UNL     1      -1.706  12.655  23.180  0.00  0.00    +0.000 C 
ATOM     27  C   UNL     1      -1.484  14.074  23.694  0.00  0.00    +0.000 C 
BRANCH  22  28
ATOM     28  N   UNL     1      -3.446  15.311  22.658  0.00  0.00    +0.000 NA
ATOM     29  H   UNL     1      -3.663  16.237  22.284  0.00  0.00    +0.000 HD
BRANCH  28  31
ATOM     30  C   UNL     1      -4.605  16.461  24.574  0.00  0.00    +0.000 C 
ATOM     31  C   UNL     1      -4.142  15.144  23.944  0.00  0.00    +0.000 C 
ATOM     32  C   UNL     1      -5.362  14.241  23.730  0.00  0.00    +0.000 C 
ENDBRANCH  28  31
ENDBRANCH  22  28
ENDBRANCH   1  25
BRANCH  16  33
ATOM     33  C   UNL     1       3.674   3.390  18.872  0.00  0.00    +0.000 C 
ATOM     34  C   UNL     1       3.136   3.396  20.310  0.00  0.00    +0.000 C 
ATOM     35  C   UNL     1       2.078   2.313  20.354  0.00  0.00    +0.000 C 
ATOM     36  C   UNL     1       1.546   2.181  18.934  0.00  0.00    +0.000 C 
ATOM     37  C   UNL     1       2.512   2.915  18.004  0.00  0.00    +0.000 C 
ENDBRANCH  16  33
TORSDOF 4
ENDMDL
MODEL 8
REMARK VINA RESULT:      -8.1      0.957      1.135
REMARK  Name = 
REMARK  6 active torsions:
REMARK  status: ('A' for Active; 'I' for Inactive)
REMARK    1  A    between atoms: C_1  and  C_2
REMARK    2  A    between atoms: C_2  and  C_3
REMARK    3  A    between atoms: C_2  and  N_4
REMARK    4  A    between atoms: N_4  and  C_5
REMARK    5  A    between atoms: N_8  and  C_9
REMARK    6  A    between atoms: N_24  and  C_25
REMARK                            x       y       z     vdW  Elec       q    Type
REMARK                         _______ _______ _______ _____ _____    ______ ____
ROOT
ATOM      1  C   UNL     1      -0.679  12.816  20.036  0.00  0.00    +0.000 A 
ATOM      2  C   UNL     1      -1.064  11.477  20.070  0.00  0.00    +0.000 A 
ATOM      3  C   UNL     1      -0.266  10.502  19.481  0.00  0.00    +0.000 A 
ATOM      4  C   UNL     1       0.931  10.866  18.870  0.00  0.00    +0.000 A 
ATOM      5  N   UNL     1       1.745   9.924  18.255  0.00  0.00    +0.000 N 
ATOM      6  C   UNL     1       1.992   8.615  18.637  0.00  0.00    +0.000 A 
ATOM      7  N   UNL     1       1.456   8.143  19.787  0.00  0.00    +0.000 NA
ATOM      8  C   UNL     1       1.744   6.891  20.202  0.00  0.00    +0.000 A 
ATOM      9  C   UNL     1       2.523   6.079  19.396  0.00  0.00    +0.000 A 
ATOM     10  C   UNL     1       3.039   4.759  19.442  0.00  0.00    +0.000 A 
ATOM     11  C   UNL     1       3.172   3.759  20.412  0.00  0.00    +0.000 A 
ATOM     12  C   UNL     1       3.528   2.504  19.944  0.00  0.00    +0.000 A 
ATOM     13  N   UNL     1       3.639   2.176  18.638  0.00  0.00    +0.000 NA
ATOM     14  C   UNL     1       3.564   3.151  17.707  0.00  0.00    +0.000 A 
ATOM     15  C   UNL     1       3.409   4.464  18.130  0.00  0.00    +0.000 A 
ATOM     16  N   UNL     1       3.681   5.688  17.540  0.00  0.00    +0.000 N 
ATOM     17  C   UNL     1       2.960   6.649  18.211  0.00  0.00    +0.000 A 
ATOM     18  N   UNL     1       2.790   7.919  17.816  0.00  0.00    +0.000 NA
ATOM     19  N   UNL     1       1.332  12.142  18.808  0.00  0.00    +0.000 NA
ATOM     20  C   UNL     1       0.541  13.072  19.400  0.00  0.00    +0.000 A 
ATOM     21  H   UNL     1       2.528  10.328  17.765  0.00  0.00    +0.000 HD
ENDROOT
BRANCH   1  25
ATOM     22  C   UNL     1      -3.262  16.007  21.099  0.00  0.00    +0.000 C 
ATOM     23  C   UNL     1      -3.735  14.553  20.923  0.00  0.00    +0.000 C 
ATOM     24  C   UNL     1      -2.669  13.533  21.310  0.00  0.00    +0.000 C 
ATOM     25  N   UNL     1      -1.471  13.830  20.530  0.00  0.00    +0.000 N 
ATOM     26  C   UNL     1      -0.874  15.137  20.810  0.00  0.00    +0.000 C 
ATOM     27  C   UNL     1      -1.889  16.208  20.423  0.00  0.00    +0.000 C 
BRANCH  22  28
ATOM     28  N   UNL     1      -3.300  16.368  22.530  0.00  0.00    +0.000 NA
ATOM     29  H   UNL     1      -4.168  16.873  22.717  0.00  0.00    +0.000 HD
BRANCH  28  31
ATOM     30  C   UNL     1      -2.552  18.611  23.396  0.00  0.00    +0.000 C 
ATOM     31  C   UNL     1      -2.167  17.181  23.003  0.00  0.00    +0.000 C 
ATOM     32  C   UNL     1      -1.534  16.488  24.213  0.00  0.00    +0.000 C 
ENDBRANCH  28  31
ENDBRANCH  22  28
ENDBRANCH   1  25
BRANCH  16  33
ATOM     33  C   UNL     1       4.920   6.013  16.833  0.00  0.00    +0.000 C 
ATOM     34  C   UNL     1       6.119   6.010  17.794  0.00  0.00    +0.000 C 
ATOM     35  C   UNL     1       7.336   5.771  16.926  0.00  0.00    +0.000 C 
ATOM     36  C   UNL     1       6.844   5.002  15.708  0.00  0.00    +0.000 C 
ATOM     37  C   UNL     1       5.319   5.095  15.682  0.00  0.00    +0.000 C 
ENDBRANCH  16  33
TORSDOF 4
ENDMDL
MODEL 9
REMARK VINA RESULT:      -7.9      1.454      3.272
REMARK  Name = 
REMARK  6 active torsions:
REMARK  status: ('A' for Active; 'I' for Inactive)
REMARK    1  A    between atoms: C_1  and  C_2
REMARK    2  A    between atoms: C_2  and  C_3
REMARK    3  A    between atoms: C_2  and  N_4
REMARK    4  A    between atoms: N_4  and  C_5
REMARK    5  A    between atoms: N_8  and  C_9
REMARK    6  A    between atoms: N_24  and  C_25
REMARK                            x       y       z     vdW  Elec       q    Type
REMARK                         _______ _______ _______ _____ _____    ______ ____
ROOT
ATOM      1  C   UNL     1      -0.694  12.523  20.906  0.00  0.00    +0.000 A 
ATOM      2  C   UNL     1       0.605  12.358  20.427  0.00  0.00    +0.000 A 
ATOM      3  C   UNL     1       1.164  11.088  20.340  0.00  0.00    +0.000 A 
ATOM      4  C   UNL     1       0.416   9.976  20.718  0.00  0.00    +0.000 A 
ATOM      5  N   UNL     1       0.947   8.694  20.664  0.00  0.00    +0.000 N 
ATOM      6  C   UNL     1       1.820   8.161  19.730  0.00  0.00    +0.000 A 
ATOM      7  N   UNL     1       2.199   8.907  18.666  0.00  0.00    +0.000 NA
ATOM      8  C   UNL     1       2.997   8.375  17.717  0.00  0.00    +0.000 A 
ATOM      9  C   UNL     1       3.483   7.091  17.891  0.00  0.00    +0.000 A 
ATOM     10  C   UNL     1       4.316   6.190  17.178  0.00  0.00    +0.000 A 
ATOM     11  C   UNL     1       4.845   6.112  15.885  0.00  0.00    +0.000 A 
ATOM     12  C   UNL     1       5.828   5.154  15.691  0.00  0.00    +0.000 A 
ATOM     13  N   UNL     1       6.365   4.397  16.671  0.00  0.00    +0.000 NA
ATOM     14  C   UNL     1       5.818   4.434  17.905  0.00  0.00    +0.000 A 
ATOM     15  C   UNL     1       4.698   5.228  18.112  0.00  0.00    +0.000 A 
ATOM     16  N   UNL     1       3.688   5.212  19.060  0.00  0.00    +0.000 N 
ATOM     17  C   UNL     1       3.082   6.448  19.050  0.00  0.00    +0.000 A 
ATOM     18  N   UNL     1       2.205   6.898  19.960  0.00  0.00    +0.000 NA
ATOM     19  N   UNL     1      -0.831  10.092  21.193  0.00  0.00    +0.000 NA
ATOM     20  C   UNL     1      -1.358  11.341  21.257  0.00  0.00    +0.000 A 
ATOM     21  H   UNL     1       0.341   7.991  21.058  0.00  0.00    +0.000 HD
ENDROOT
BRANCH   1  25
ATOM     22  C   UNL     1      -2.579  16.321  21.010  0.00  0.00    +0.000 C 
ATOM     23  C   UNL     1      -3.337  14.990  21.163  0.00  0.00    +0.000 C 
ATOM     24  C   UNL     1      -2.506  13.911  21.848  0.00  0.00    +0.000 C 
ATOM     25  N   UNL     1      -1.266  13.763  21.092  0.00  0.00    +0.000 N 
ATOM     26  C   UNL     1      -0.416  14.956  21.082  0.00  0.00    +0.000 C 
ATOM     27  C   UNL     1      -1.188  16.074  20.388  0.00  0.00    +0.000 C 
BRANCH  22  28
ATOM     28  N   UNL     1      -2.554  17.027  22.306  0.00  0.00    +0.000 NA
ATOM     29  H   UNL     1      -1.867  16.574  22.912  0.00  0.00    +0.000 HD
BRANCH  28  31
ATOM     30  C   UNL     1      -3.744  16.773  24.510  0.00  0.00    +0.000 C 
ATOM     31  C   UNL     1      -3.843  17.086  23.014  0.00  0.00    +0.000 C 
ATOM     32  C   UNL     1      -4.437  18.487  22.839  0.00  0.00    +0.000 C 
ENDBRANCH  28  31
ENDBRANCH  22  28
ENDBRANCH   1  25
BRANCH  16  33
ATOM     33  C   UNL     1       2.974   4.011  19.496  0.00  0.00    +0.000 C 
ATOM     34  C   UNL     1       2.566   4.120  20.973  0.00  0.00    +0.000 C 
ATOM     35  C   UNL     1       1.395   3.175  21.143  0.00  0.00    +0.000 C 
ATOM     36  C   UNL     1       0.731   3.073  19.776  0.00  0.00    +0.000 C 
ATOM     37  C   UNL     1       1.695   3.659  18.745  0.00  0.00    +0.000 C 
ENDBRANCH  16  33
TORSDOF 4
ENDMDL
