MODEL 1
REMARK VINA RESULT:      -6.8      0.000      0.000
REMARK  Name = 
REMARK  2 active torsions:
REMARK  status: ('A' for Active; 'I' for Inactive)
REMARK    1  A    between atoms: C_1  and  N_2
REMARK    2  A    between atoms: C_4  and  C_5
REMARK                            x       y       z     vdW  Elec       q    Type
REMARK                         _______ _______ _______ _____ _____    ______ ____
ROOT
ATOM      1  C   UNL     1       5.818   3.858  13.876  0.00  0.00    +0.000 C 
ATOM      2  N   UNL     1       5.812   4.573  15.141  0.00  0.00    +0.000 N 
ATOM      3  C   UNL     1       4.869   4.110  16.150  0.00  0.00    +0.000 C 
ATOM      4  C   UNL     1       4.768   5.020  17.380  0.00  0.00    +0.000 C 
ATOM      5  C   UNL     1       6.179   5.312  17.894  0.00  0.00    +0.000 C 
ATOM      6  C   UNL     1       7.001   5.980  16.807  0.00  0.00    +0.000 C 
ATOM      7  C   UNL     1       6.966   5.278  15.462  0.00  0.00    +0.000 C 
ATOM      8  O   UNL     1       7.893   5.421  14.669  0.00  0.00    +0.000 OA
ENDROOT
BRANCH   4   9
ATOM      9  C   UNL     1       3.884   4.409  18.453  0.00  0.00    +0.000 A 
ATOM     10  C   UNL     1       2.625   4.954  18.762  0.00  0.00    +0.000 A 
ATOM     11  C   UNL     1       1.832   4.397  19.767  0.00  0.00    +0.000 A 
ATOM     12  C   UNL     1       2.286   3.285  20.468  0.00  0.00    +0.000 A 
ATOM     13 CL   UNL     1       1.311   2.602  21.709  0.00  0.00    +0.000 Cl
ATOM     14  C   UNL     1       3.526   2.724  20.171  0.00  0.00    +0.000 A 
ATOM     15  C   UNL     1       4.322   3.283  19.168  0.00  0.00    +0.000 A 
ENDBRANCH   4   9
TORSDOF 1
ENDMDL
MODEL 2
REMARK VINA RESULT:      -6.8      0.128      1.254
REMARK  Name = 
REMARK  2 active torsions:
REMARK  status: ('A' for Active; 'I' for Inactive)
REMARK    1  A    between atoms: C_1  and  N_2
REMARK    2  A    between atoms: C_4  and  C_5
REMARK                            x       y       z     vdW  Elec       q    Type
REMARK                         _______ _______ _______ _____ _____    ______ ____
ROOT
ATOM      1  C   UNL     1       5.684   3.953  13.953  0.00  0.00    +0.000 C 
ATOM      2  N   UNL     1       5.738   4.636  15.234  0.00  0.00    +0.000 N 
ATOM      3  C   UNL     1       4.814   4.174  16.262  0.00  0.00    +0.000 C 
ATOM      4  C   UNL     1       4.779   5.056  17.515  0.00  0.00    +0.000 C 
ATOM      5  C   UNL     1       6.212   5.295  17.991  0.00  0.00    +0.000 C 
ATOM      6  C   UNL     1       7.019   5.967  16.894  0.00  0.00    +0.000 C 
ATOM      7  C   UNL     1       6.922   5.300  15.535  0.00  0.00    +0.000 C 
ATOM      8  O   UNL     1       7.827   5.437  14.717  0.00  0.00    +0.000 OA
ENDROOT
BRANCH   4   9
ATOM      9  C   UNL     1       3.911   4.443  18.601  0.00  0.00    +0.000 A 
ATOM     10  C   UNL     1       4.340   3.323  19.334  0.00  0.00    +0.000 A 
ATOM     11  C   UNL     1       3.523   2.754  20.313  0.00  0.00    +0.000 A 
ATOM     12  C   UNL     1       2.273   3.304  20.575  0.00  0.00    +0.000 A 
ATOM     13 CL   UNL     1       1.265   2.600  21.778  0.00  0.00    +0.000 Cl
ATOM     14  C   UNL     1       1.833   4.419  19.866  0.00  0.00    +0.000 A 
ATOM     15  C   UNL     1       2.648   4.987  18.883  0.00  0.00    +0.000 A 
ENDBRANCH   4   9
TORSDOF 1
ENDMDL
MODEL 3
REMARK VINA RESULT:      -6.2      4.130      5.607
REMARK  Name = 
REMARK  2 active torsions:
REMARK  status: ('A' for Active; 'I' for Inactive)
REMARK    1  A    between atoms: C_1  and  N_2
REMARK    2  A    between atoms: C_4  and  C_5
REMARK                            x       y       z     vdW  Elec       q    Type
REMARK                         _______ _______ _______ _____ _____    ______ ____
ROOT
ATOM      1  C   UNL     1       2.464   2.516  21.508  0.00  0.00    +0.000 C 
ATOM      2  N   UNL     1       2.989   3.364  20.451  0.00  0.00    +0.000 N 
ATOM      3  C   UNL     1       2.407   4.694  20.328  0.00  0.00    +0.000 C 
ATOM      4  C   UNL     1       2.856   5.463  19.080  0.00  0.00    +0.000 C 
ATOM      5  C   UNL     1       4.382   5.412  18.994  0.00  0.00    +0.000 C 
ATOM      6  C   UNL     1       4.852   3.971  18.923  0.00  0.00    +0.000 C 
ATOM      7  C   UNL     1       4.262   3.059  19.983  0.00  0.00    +0.000 C 
ATOM      8  O   UNL     1       4.866   2.046  20.328  0.00  0.00    +0.000 OA
ENDROOT
BRANCH   4   9
ATOM      9  C   UNL     1       2.331   6.889  19.088  0.00  0.00    +0.000 A 
ATOM     10  C   UNL     1       2.395   7.698  17.940  0.00  0.00    +0.000 A 
ATOM     11  C   UNL     1       1.931   9.014  17.966  0.00  0.00    +0.000 A 
ATOM     12  C   UNL     1       1.392   9.533  19.138  0.00  0.00    +0.000 A 
ATOM     13 CL   UNL     1       0.824  11.156  19.171  0.00  0.00    +0.000 Cl
ATOM     14  C   UNL     1       1.311   8.745  20.284  0.00  0.00    +0.000 A 
ATOM     15  C   UNL     1       1.778   7.428  20.259  0.00  0.00    +0.000 A 
ENDBRANCH   4   9
TORSDOF 1
ENDMDL
MODEL 4
REMARK VINA RESULT:      -6.2      4.220      5.548
REMARK  Name = 
REMARK  2 active torsions:
REMARK  status: ('A' for Active; 'I' for Inactive)
REMARK    1  A    between atoms: C_1  and  N_2
REMARK    2  A    between atoms: C_4  and  C_5
REMARK                            x       y       z     vdW  Elec       q    Type
REMARK                         _______ _______ _______ _____ _____    ______ ____
ROOT
ATOM      1  C   UNL     1       4.442   3.625  17.122  0.00  0.00    +0.000 C 
ATOM      2  N   UNL     1       3.838   4.191  18.317  0.00  0.00    +0.000 N 
ATOM      3  C   UNL     1       3.310   5.545  18.205  0.00  0.00    +0.000 C 
ATOM      4  C   UNL     1       2.869   6.158  19.539  0.00  0.00    +0.000 C 
ATOM      5  C   UNL     1       1.959   5.165  20.261  0.00  0.00    +0.000 C 
ATOM      6  C   UNL     1       2.697   3.859  20.498  0.00  0.00    +0.000 C 
ATOM      7  C   UNL     1       3.386   3.289  19.273  0.00  0.00    +0.000 C 
ATOM      8  O   UNL     1       3.608   2.083  19.198  0.00  0.00    +0.000 OA
ENDROOT
BRANCH   4   9
ATOM      9  C   UNL     1       2.197   7.505  19.335  0.00  0.00    +0.000 A 
ATOM     10  C   UNL     1       2.256   8.173  18.099  0.00  0.00    +0.000 A 
ATOM     11  C   UNL     1       1.655   9.421  17.931  0.00  0.00    +0.000 A 
ATOM     12  C   UNL     1       0.982  10.012  18.995  0.00  0.00    +0.000 A 
ATOM     13 CL   UNL     1       0.244  11.553  18.790  0.00  0.00    +0.000 Cl
ATOM     14  C   UNL     1       0.904   9.364  20.225  0.00  0.00    +0.000 A 
ATOM     15  C   UNL     1       1.509   8.115  20.395  0.00  0.00    +0.000 A 
ENDBRANCH   4   9
TORSDOF 1
ENDMDL
MODEL 5
REMARK VINA RESULT:      -6.2      1.105      1.978
REMARK  Name = 
REMARK  2 active torsions:
REMARK  status: ('A' for Active; 'I' for Inactive)
REMARK    1  A    between atoms: C_1  and  N_2
REMARK    2  A    between atoms: C_4  and  C_5
REMARK                            x       y       z     vdW  Elec       q    Type
REMARK                         _______ _______ _______ _____ _____    ______ ____
ROOT
ATOM      1  C   UNL     1       7.569   7.146  17.432  0.00  0.00    +0.000 C 
ATOM      2  N   UNL     1       6.940   5.851  17.235  0.00  0.00    +0.000 N 
ATOM      3  C   UNL     1       5.952   5.445  18.227  0.00  0.00    +0.000 C 
ATOM      4  C   UNL     1       5.473   3.996  18.078  0.00  0.00    +0.000 C 
ATOM      5  C   UNL     1       5.068   3.758  16.623  0.00  0.00    +0.000 C 
ATOM      6  C   UNL     1       6.247   4.021  15.705  0.00  0.00    +0.000 C 
ATOM      7  C   UNL     1       6.953   5.343  15.941  0.00  0.00    +0.000 C 
ATOM      8  O   UNL     1       7.584   5.875  15.031  0.00  0.00    +0.000 OA
ENDROOT
BRANCH   4   9
ATOM      9  C   UNL     1       4.343   3.683  19.044  0.00  0.00    +0.000 A 
ATOM     10  C   UNL     1       3.223   4.526  19.158  0.00  0.00    +0.000 A 
ATOM     11  C   UNL     1       2.203   4.240  20.067  0.00  0.00    +0.000 A 
ATOM     12  C   UNL     1       2.288   3.105  20.866  0.00  0.00    +0.000 A 
ATOM     13 CL   UNL     1       1.033   2.755  21.989  0.00  0.00    +0.000 Cl
ATOM     14  C   UNL     1       3.384   2.252  20.763  0.00  0.00    +0.000 A 
ATOM     15  C   UNL     1       4.408   2.540  19.856  0.00  0.00    +0.000 A 
ENDBRANCH   4   9
TORSDOF 1
ENDMDL
MODEL 6
REMARK VINA RESULT:      -6.2      4.515      5.870
REMARK  Name = 
REMARK  2 active torsions:
REMARK  status: ('A' for Active; 'I' for Inactive)
REMARK    1  A    between atoms: C_1  and  N_2
REMARK    2  A    between atoms: C_4  and  C_5
REMARK                            x       y       z     vdW  Elec       q    Type
REMARK                         _______ _______ _______ _____ _____    ______ ____
ROOT
ATOM      1  C   UNL     1       0.457   9.336  21.504  0.00  0.00    +0.000 C 
ATOM      2  N   UNL     1       1.227   9.010  20.316  0.00  0.00    +0.000 N 
ATOM      3  C   UNL     1       1.626   7.618  20.155  0.00  0.00    +0.000 C 
ATOM      4  C   UNL     1       2.598   7.374  18.995  0.00  0.00    +0.000 C 
ATOM      5  C   UNL     1       2.040   8.039  17.736  0.00  0.00    +0.000 C 
ATOM      6  C   UNL     1       1.860   9.528  17.970  0.00  0.00    +0.000 C 
ATOM      7  C   UNL     1       1.112   9.884  19.241  0.00  0.00    +0.000 C 
ATOM      8  O   UNL     1       0.513  10.954  19.323  0.00  0.00    +0.000 OA
ENDROOT
BRANCH   4   9
ATOM      9  C   UNL     1       2.858   5.891  18.791  0.00  0.00    +0.000 A 
ATOM     10  C   UNL     1       2.008   5.102  17.996  0.00  0.00    +0.000 A 
ATOM     11  C   UNL     1       2.244   3.736  17.835  0.00  0.00    +0.000 A 
ATOM     12  C   UNL     1       3.336   3.145  18.461  0.00  0.00    +0.000 A 
ATOM     13 CL   UNL     1       3.624   1.461  18.267  0.00  0.00    +0.000 Cl
ATOM     14  C   UNL     1       4.196   3.911  19.246  0.00  0.00    +0.000 A 
ATOM     15  C   UNL     1       3.958   5.278  19.410  0.00  0.00    +0.000 A 
ENDBRANCH   4   9
TORSDOF 1
ENDMDL
MODEL 7
REMARK VINA RESULT:      -6.2      4.055      6.038
REMARK  Name = 
REMARK  2 active torsions:
REMARK  status: ('A' for Active; 'I' for Inactive)
REMARK    1  A    between atoms: C_1  and  N_2
REMARK    2  A    between atoms: C_4  and  C_5
REMARK                            x       y       z     vdW  Elec       q    Type
REMARK                         _______ _______ _______ _____ _____    ______ ____
ROOT
ATOM      1  C   UNL     1       1.723   1.947  19.142  0.00  0.00    +0.000 C 
ATOM      2  N   UNL     1       2.631   3.081  19.140  0.00  0.00    +0.000 N 
ATOM      3  C   UNL     1       3.525   3.202  17.996  0.00  0.00    +0.000 C 
ATOM      4  C   UNL     1       4.590   4.296  18.144  0.00  0.00    +0.000 C 
ATOM      5  C   UNL     1       3.905   5.594  18.572  0.00  0.00    +0.000 C 
ATOM      6  C   UNL     1       3.173   5.387  19.886  0.00  0.00    +0.000 C 
ATOM      7  C   UNL     1       2.268   4.170  19.924  0.00  0.00    +0.000 C 
ATOM      8  O   UNL     1       1.313   4.137  20.696  0.00  0.00    +0.000 OA
ENDROOT
BRANCH   4   9
ATOM      9  C   UNL     1       5.391   4.468  16.865  0.00  0.00    +0.000 A 
ATOM     10  C   UNL     1       6.741   4.859  16.895  0.00  0.00    +0.000 A 
ATOM     11  C   UNL     1       7.460   5.037  15.712  0.00  0.00    +0.000 A 
ATOM     12  C   UNL     1       6.839   4.818  14.486  0.00  0.00    +0.000 A 
ATOM     13 CL   UNL     1       7.724   5.041  13.029  0.00  0.00    +0.000 Cl
ATOM     14  C   UNL     1       5.505   4.421  14.435  0.00  0.00    +0.000 A 
ATOM     15  C   UNL     1       4.784   4.246  15.619  0.00  0.00    +0.000 A 
ENDBRANCH   4   9
TORSDOF 1
ENDMDL
MODEL 8
REMARK VINA RESULT:      -6.1      4.498      5.902
REMARK  Name = 
REMARK  2 active torsions:
REMARK  status: ('A' for Active; 'I' for Inactive)
REMARK    1  A    between atoms: C_1  and  N_2
REMARK    2  A    between atoms: C_4  and  C_5
REMARK                            x       y       z     vdW  Elec       q    Type
REMARK                         _______ _______ _______ _____ _____    ______ ____
ROOT
ATOM      1  C   UNL     1       3.289   3.400  17.205  0.00  0.00    +0.000 C 
ATOM      2  N   UNL     1       3.031   4.133  18.432  0.00  0.00    +0.000 N 
ATOM      3  C   UNL     1       2.650   5.532  18.291  0.00  0.00    +0.000 C 
ATOM      4  C   UNL     1       2.586   6.302  19.615  0.00  0.00    +0.000 C 
ATOM      5  C   UNL     1       1.750   5.499  20.612  0.00  0.00    +0.000 C 
ATOM      6  C   UNL     1       2.368   4.130  20.826  0.00  0.00    +0.000 C 
ATOM      7  C   UNL     1       2.702   3.378  19.552  0.00  0.00    +0.000 C 
ATOM      8  O   UNL     1       2.763   2.151  19.560  0.00  0.00    +0.000 OA
ENDROOT
BRANCH   4   9
ATOM      9  C   UNL     1       2.044   7.707  19.415  0.00  0.00    +0.000 A 
ATOM     10  C   UNL     1       1.378   8.389  20.450  0.00  0.00    +0.000 A 
ATOM     11  C   UNL     1       0.863   9.670  20.246  0.00  0.00    +0.000 A 
ATOM     12  C   UNL     1       1.014  10.286  19.009  0.00  0.00    +0.000 A 
ATOM     13 CL   UNL     1       0.376  11.864  18.757  0.00  0.00    +0.000 Cl
ATOM     14  C   UNL     1       1.678   9.633  17.974  0.00  0.00    +0.000 A 
ATOM     15  C   UNL     1       2.191   8.348  18.175  0.00  0.00    +0.000 A 
ENDBRANCH   4   9
TORSDOF 1
ENDMDL
MODEL 9
REMARK VINA RESULT:      -6.1      4.098      5.430
REMARK  Name = 
REMARK  2 active torsions:
REMARK  status: ('A' for Active; 'I' for Inactive)
REMARK    1  A    between atoms: C_1  and  N_2
REMARK    2  A    between atoms: C_4  and  C_5
REMARK                            x       y       z     vdW  Elec       q    Type
REMARK                         _______ _______ _______ _____ _____    ______ ____
ROOT
ATOM      1  C   UNL     1       1.961   2.231  19.911  0.00  0.00    +0.000 C 
ATOM      2  N   UNL     1       2.810   3.323  19.465  0.00  0.00    +0.000 N 
ATOM      3  C   UNL     1       2.206   4.649  19.429  0.00  0.00    +0.000 C 
ATOM      4  C   UNL     1       3.081   5.719  18.766  0.00  0.00    +0.000 C 
ATOM      5  C   UNL     1       4.481   5.660  19.379  0.00  0.00    +0.000 C 
ATOM      6  C   UNL     1       5.082   4.282  19.170  0.00  0.00    +0.000 C 
ATOM      7  C   UNL     1       4.182   3.129  19.572  0.00  0.00    +0.000 C 
ATOM      8  O   UNL     1       4.672   2.047  19.886  0.00  0.00    +0.000 OA
ENDROOT
BRANCH   4   9
ATOM      9  C   UNL     1       2.460   7.100  18.892  0.00  0.00    +0.000 A 
ATOM     10  C   UNL     1       1.903   7.544  20.104  0.00  0.00    +0.000 A 
ATOM     11  C   UNL     1       1.315   8.806  20.201  0.00  0.00    +0.000 A 
ATOM     12  C   UNL     1       1.282   9.640  19.088  0.00  0.00    +0.000 A 
ATOM     13 CL   UNL     1       0.553  11.193  19.206  0.00  0.00    +0.000 Cl
ATOM     14  C   UNL     1       1.836   9.223  17.881  0.00  0.00    +0.000 A 
ATOM     15  C   UNL     1       2.423   7.958  17.782  0.00  0.00    +0.000 A 
ENDBRANCH   4   9
TORSDOF 1
ENDMDL
