MODEL 1
REMARK VINA RESULT:      -6.4      0.000      0.000
REMARK  Name = 
REMARK  6 active torsions:
REMARK  status: ('A' for Active; 'I' for Inactive)
REMARK    1  A    between atoms: C_1  and  C_2
REMARK    2  A    between atoms: C_7  and  C_8
REMARK    3  A    between atoms: C_9  and  O_10
REMARK    4  A    between atoms: O_10  and  C_11
REMARK    5  A    between atoms: C_11  and  C_12
REMARK    6  A    between atoms: C_11  and  C_13
REMARK                            x       y       z     vdW  Elec       q    Type
REMARK                         _______ _______ _______ _____ _____    ______ ____
ROOT
ATOM      1  C   UNL     1       3.686   7.134  17.334  0.00  0.00    +0.000 C 
ATOM      2  C   UNL     1       2.915   6.883  18.597  0.00  0.00    +0.000 A 
ATOM      3  C   UNL     1       2.303   8.013  19.184  0.00  0.00    +0.000 A 
ATOM      4  C   UNL     1       1.507   7.898  20.317  0.00  0.00    +0.000 A 
ATOM      5 BR   UNL     1       0.701   9.436  21.062  0.00  0.00    +0.000 Br
ATOM      6  C   UNL     1       1.292   6.655  20.890  0.00  0.00    +0.000 A 
ATOM      7  C   UNL     1       1.898   5.511  20.341  0.00  0.00    +0.000 A 
ATOM      8  C   UNL     1       1.637   4.179  20.992  0.00  0.00    +0.000 C 
ATOM      9  C   UNL     1       2.745   5.622  19.211  0.00  0.00    +0.000 A 
ENDROOT
BRANCH   9  10
ATOM     10  O   UNL     1       3.287   4.424  18.807  0.00  0.00    +0.000 OA
BRANCH  10  11
ATOM     11  C   UNL     1       4.422   3.882  19.484  0.00  0.00    +0.000 C 
ATOM     12  C   UNL     1       4.541   2.365  19.323  0.00  0.00    +0.000 C 
BRANCH  11  13
ATOM     13  C   UNL     1       5.711   4.485  18.907  0.00  0.00    +0.000 C 
ATOM     14  N   UNL     1       6.464   5.280  19.634  0.00  0.00    +0.000 NA
ATOM     15  C   UNL     1       7.640   5.571  18.763  0.00  0.00    +0.000 C 
ATOM     16  C   UNL     1       7.573   4.571  17.603  0.00  0.00    +0.000 C 
ATOM     17  N   UNL     1       6.183   4.192  17.650  0.00  0.00    +0.000 N 
ATOM     18  H   UNL     1       5.882   3.318  17.235  0.00  0.00    +0.000 HD
ENDBRANCH  11  13
ENDBRANCH  10  11
ENDBRANCH   9  10
TORSDOF 3
ENDMDL
MODEL 2
REMARK VINA RESULT:      -6.4      0.825      2.470
REMARK  Name = 
REMARK  6 active torsions:
REMARK  status: ('A' for Active; 'I' for Inactive)
REMARK    1  A    between atoms: C_1  and  C_2
REMARK    2  A    between atoms: C_7  and  C_8
REMARK    3  A    between atoms: C_9  and  O_10
REMARK    4  A    between atoms: O_10  and  C_11
REMARK    5  A    between atoms: C_11  and  C_12
REMARK    6  A    between atoms: C_11  and  C_13
REMARK                            x       y       z     vdW  Elec       q    Type
REMARK                         _______ _______ _______ _____ _____    ______ ____
ROOT
ATOM      1  C   UNL     1       1.517   4.106  20.963  0.00  0.00    +0.000 C 
ATOM      2  C   UNL     1       1.750   5.450  20.335  0.00  0.00    +0.000 A 
ATOM      3  C   UNL     1       1.223   6.559  21.033  0.00  0.00    +0.000 A 
ATOM      4  C   UNL     1       1.431   7.859  20.588  0.00  0.00    +0.000 A 
ATOM      5 BR   UNL     1       0.715   9.314  21.559  0.00  0.00    +0.000 Br
ATOM      6  C   UNL     1       2.177   8.089  19.443  0.00  0.00    +0.000 A 
ATOM      7  C   UNL     1       2.703   7.007  18.716  0.00  0.00    +0.000 A 
ATOM      8  C   UNL     1       3.511   7.300  17.479  0.00  0.00    +0.000 C 
ATOM      9  C   UNL     1       2.463   5.676  19.137  0.00  0.00    +0.000 A 
ENDROOT
BRANCH   9  10
ATOM     10  O   UNL     1       3.016   4.726  18.310  0.00  0.00    +0.000 OA
BRANCH  10  11
ATOM     11  C   UNL     1       4.097   3.912  18.768  0.00  0.00    +0.000 C 
ATOM     12  C   UNL     1       3.748   2.423  18.800  0.00  0.00    +0.000 C 
BRANCH  11  13
ATOM     13  C   UNL     1       5.299   4.060  17.824  0.00  0.00    +0.000 C 
ATOM     14  N   UNL     1       5.122   4.220  16.532  0.00  0.00    +0.000 NA
ATOM     15  C   UNL     1       6.499   4.412  15.993  0.00  0.00    +0.000 C 
ATOM     16  C   UNL     1       7.404   4.658  17.205  0.00  0.00    +0.000 C 
ATOM     17  N   UNL     1       6.601   4.098  18.263  0.00  0.00    +0.000 N 
ATOM     18  H   UNL     1       6.757   4.382  19.223  0.00  0.00    +0.000 HD
ENDBRANCH  11  13
ENDBRANCH  10  11
ENDBRANCH   9  10
TORSDOF 3
ENDMDL
MODEL 3
REMARK VINA RESULT:      -6.3      2.375      3.844
REMARK  Name = 
REMARK  6 active torsions:
REMARK  status: ('A' for Active; 'I' for Inactive)
REMARK    1  A    between atoms: C_1  and  C_2
REMARK    2  A    between atoms: C_7  and  C_8
REMARK    3  A    between atoms: C_9  and  O_10
REMARK    4  A    between atoms: O_10  and  C_11
REMARK    5  A    between atoms: C_11  and  C_12
REMARK    6  A    between atoms: C_11  and  C_13
REMARK                            x       y       z     vdW  Elec       q    Type
REMARK                         _______ _______ _______ _____ _____    ______ ____
ROOT
ATOM      1  C   UNL     1       4.161   1.347  17.446  0.00  0.00    +0.000 C 
ATOM      2  C   UNL     1       3.571   2.558  18.108  0.00  0.00    +0.000 A 
ATOM      3  C   UNL     1       2.889   2.328  19.324  0.00  0.00    +0.000 A 
ATOM      4  C   UNL     1       2.358   3.377  20.065  0.00  0.00    +0.000 A 
ATOM      5 BR   UNL     1       1.462   3.023  21.691  0.00  0.00    +0.000 Br
ATOM      6  C   UNL     1       2.500   4.681  19.620  0.00  0.00    +0.000 A 
ATOM      7  C   UNL     1       3.159   4.945  18.406  0.00  0.00    +0.000 A 
ATOM      8  C   UNL     1       3.295   6.376  17.960  0.00  0.00    +0.000 C 
ATOM      9  C   UNL     1       3.668   3.880  17.622  0.00  0.00    +0.000 A 
ENDROOT
BRANCH   9  10
ATOM     10  O   UNL     1       4.260   4.291  16.450  0.00  0.00    +0.000 OA
BRANCH  10  11
ATOM     11  C   UNL     1       5.623   3.963  16.177  0.00  0.00    +0.000 C 
ATOM     12  C   UNL     1       5.993   4.142  14.703  0.00  0.00    +0.000 C 
BRANCH  11  13
ATOM     13  C   UNL     1       6.553   4.885  16.978  0.00  0.00    +0.000 C 
ATOM     14  N   UNL     1       6.690   6.150  16.650  0.00  0.00    +0.000 NA
ATOM     15  C   UNL     1       7.587   6.708  17.703  0.00  0.00    +0.000 C 
ATOM     16  C   UNL     1       7.649   5.656  18.816  0.00  0.00    +0.000 C 
ATOM     17  N   UNL     1       7.236   4.476  18.098  0.00  0.00    +0.000 N 
ATOM     18  H   UNL     1       6.862   3.680  18.603  0.00  0.00    +0.000 HD
ENDBRANCH  11  13
ENDBRANCH  10  11
ENDBRANCH   9  10
TORSDOF 3
ENDMDL
MODEL 4
REMARK VINA RESULT:      -6.1      3.392      5.401
REMARK  Name = 
REMARK  6 active torsions:
REMARK  status: ('A' for Active; 'I' for Inactive)
REMARK    1  A    between atoms: C_1  and  C_2
REMARK    2  A    between atoms: C_7  and  C_8
REMARK    3  A    between atoms: C_9  and  O_10
REMARK    4  A    between atoms: O_10  and  C_11
REMARK    5  A    between atoms: C_11  and  C_12
REMARK    6  A    between atoms: C_11  and  C_13
REMARK                            x       y       z     vdW  Elec       q    Type
REMARK                         _______ _______ _______ _____ _____    ______ ____
ROOT
ATOM      1  C   UNL     1       2.849   2.724  17.500  0.00  0.00    +0.000 C 
ATOM      2  C   UNL     1       3.582   3.996  17.189  0.00  0.00    +0.000 A 
ATOM      3  C   UNL     1       4.698   3.873  16.331  0.00  0.00    +0.000 A 
ATOM      4  C   UNL     1       5.416   4.987  15.915  0.00  0.00    +0.000 A 
ATOM      5 BR   UNL     1       6.896   4.777  14.759  0.00  0.00    +0.000 Br
ATOM      6  C   UNL     1       5.039   6.253  16.335  0.00  0.00    +0.000 A 
ATOM      7  C   UNL     1       3.943   6.410  17.202  0.00  0.00    +0.000 A 
ATOM      8  C   UNL     1       3.563   7.802  17.632  0.00  0.00    +0.000 C 
ATOM      9  C   UNL     1       3.228   5.278  17.665  0.00  0.00    +0.000 A 
ENDROOT
BRANCH   9  10
ATOM     10  O   UNL     1       2.202   5.587  18.527  0.00  0.00    +0.000 OA
BRANCH  10  11
ATOM     11  C   UNL     1       2.438   5.648  19.936  0.00  0.00    +0.000 C 
ATOM     12  C   UNL     1       1.472   6.588  20.659  0.00  0.00    +0.000 C 
BRANCH  11  13
ATOM     13  C   UNL     1       2.244   4.258  20.558  0.00  0.00    +0.000 C 
ATOM     14  N   UNL     1       3.279   3.537  20.927  0.00  0.00    +0.000 NA
ATOM     15  C   UNL     1       2.679   2.324  21.552  0.00  0.00    +0.000 C 
ATOM     16  C   UNL     1       1.193   2.639  21.761  0.00  0.00    +0.000 C 
ATOM     17  N   UNL     1       1.009   3.717  20.821  0.00  0.00    +0.000 N 
ATOM     18  H   UNL     1       0.235   4.362  20.935  0.00  0.00    +0.000 HD
ENDBRANCH  11  13
ENDBRANCH  10  11
ENDBRANCH   9  10
TORSDOF 3
ENDMDL
MODEL 5
REMARK VINA RESULT:      -6.0      3.484      5.702
REMARK  Name = 
REMARK  6 active torsions:
REMARK  status: ('A' for Active; 'I' for Inactive)
REMARK    1  A    between atoms: C_1  and  C_2
REMARK    2  A    between atoms: C_7  and  C_8
REMARK    3  A    between atoms: C_9  and  O_10
REMARK    4  A    between atoms: O_10  and  C_11
REMARK    5  A    between atoms: C_11  and  C_12
REMARK    6  A    between atoms: C_11  and  C_13
REMARK                            x       y       z     vdW  Elec       q    Type
REMARK                         _______ _______ _______ _____ _____    ______ ____
ROOT
ATOM      1  C   UNL     1       7.516   5.837  18.718  0.00  0.00    +0.000 C 
ATOM      2  C   UNL     1       6.673   5.138  17.691  0.00  0.00    +0.000 A 
ATOM      3  C   UNL     1       7.110   5.248  16.352  0.00  0.00    +0.000 A 
ATOM      4  C   UNL     1       6.452   4.589  15.320  0.00  0.00    +0.000 A 
ATOM      5 BR   UNL     1       7.078   4.758  13.545  0.00  0.00    +0.000 Br
ATOM      6  C   UNL     1       5.349   3.798  15.595  0.00  0.00    +0.000 A 
ATOM      7  C   UNL     1       4.877   3.679  16.915  0.00  0.00    +0.000 A 
ATOM      8  C   UNL     1       3.678   2.806  17.172  0.00  0.00    +0.000 C 
ATOM      9  C   UNL     1       5.515   4.378  17.969  0.00  0.00    +0.000 A 
ENDROOT
BRANCH   9  10
ATOM     10  O   UNL     1       4.924   4.187  19.196  0.00  0.00    +0.000 OA
BRANCH  10  11
ATOM     11  C   UNL     1       3.988   5.140  19.703  0.00  0.00    +0.000 C 
ATOM     12  C   UNL     1       3.570   6.176  18.658  0.00  0.00    +0.000 C 
BRANCH  11  13
ATOM     13  C   UNL     1       2.705   4.425  20.149  0.00  0.00    +0.000 C 
ATOM     14  N   UNL     1       1.666   4.348  19.349  0.00  0.00    +0.000 NA
ATOM     15  C   UNL     1       0.682   3.516  20.101  0.00  0.00    +0.000 C 
ATOM     16  C   UNL     1       1.454   2.889  21.268  0.00  0.00    +0.000 C 
ATOM     17  N   UNL     1       2.584   3.780  21.357  0.00  0.00    +0.000 N 
ATOM     18  H   UNL     1       3.439   3.471  21.804  0.00  0.00    +0.000 HD
ENDBRANCH  11  13
ENDBRANCH  10  11
ENDBRANCH   9  10
TORSDOF 3
ENDMDL
MODEL 6
REMARK VINA RESULT:      -6.0      3.486      5.774
REMARK  Name = 
REMARK  6 active torsions:
REMARK  status: ('A' for Active; 'I' for Inactive)
REMARK    1  A    between atoms: C_1  and  C_2
REMARK    2  A    between atoms: C_7  and  C_8
REMARK    3  A    between atoms: C_9  and  O_10
REMARK    4  A    between atoms: O_10  and  C_11
REMARK    5  A    between atoms: C_11  and  C_12
REMARK    6  A    between atoms: C_11  and  C_13
REMARK                            x       y       z     vdW  Elec       q    Type
REMARK                         _______ _______ _______ _____ _____    ______ ____
ROOT
ATOM      1  C   UNL     1       3.287   3.233  16.912  0.00  0.00    +0.000 C 
ATOM      2  C   UNL     1       4.636   3.893  16.912  0.00  0.00    +0.000 A 
ATOM      3  C   UNL     1       5.260   4.024  15.651  0.00  0.00    +0.000 A 
ATOM      4  C   UNL     1       6.478   4.677  15.512  0.00  0.00    +0.000 A 
ATOM      5 BR   UNL     1       7.272   4.838  13.804  0.00  0.00    +0.000 Br
ATOM      6  C   UNL     1       7.103   5.224  16.621  0.00  0.00    +0.000 A 
ATOM      7  C   UNL     1       6.518   5.097  17.894  0.00  0.00    +0.000 A 
ATOM      8  C   UNL     1       7.226   5.708  19.073  0.00  0.00    +0.000 C 
ATOM      9  C   UNL     1       5.296   4.398  18.053  0.00  0.00    +0.000 A 
ENDROOT
BRANCH   9  10
ATOM     10  O   UNL     1       4.863   4.333  19.357  0.00  0.00    +0.000 OA
BRANCH  10  11
ATOM     11  C   UNL     1       3.862   5.236  19.831  0.00  0.00    +0.000 C 
ATOM     12  C   UNL     1       3.394   6.221  18.758  0.00  0.00    +0.000 C 
BRANCH  11  13
ATOM     13  C   UNL     1       2.620   4.452  20.277  0.00  0.00    +0.000 C 
ATOM     14  N   UNL     1       1.566   4.362  19.498  0.00  0.00    +0.000 NA
ATOM     15  C   UNL     1       0.636   3.462  20.239  0.00  0.00    +0.000 C 
ATOM     16  C   UNL     1       1.460   2.824  21.363  0.00  0.00    +0.000 C 
ATOM     17  N   UNL     1       2.554   3.757  21.462  0.00  0.00    +0.000 N 
ATOM     18  H   UNL     1       3.432   3.466  21.877  0.00  0.00    +0.000 HD
ENDBRANCH  11  13
ENDBRANCH  10  11
ENDBRANCH   9  10
TORSDOF 3
ENDMDL
MODEL 7
REMARK VINA RESULT:      -6.0      2.392      3.744
REMARK  Name = 
REMARK  6 active torsions:
REMARK  status: ('A' for Active; 'I' for Inactive)
REMARK    1  A    between atoms: C_1  and  C_2
REMARK    2  A    between atoms: C_7  and  C_8
REMARK    3  A    between atoms: C_9  and  O_10
REMARK    4  A    between atoms: O_10  and  C_11
REMARK    5  A    between atoms: C_11  and  C_12
REMARK    6  A    between atoms: C_11  and  C_13
REMARK                            x       y       z     vdW  Elec       q    Type
REMARK                         _______ _______ _______ _____ _____    ______ ____
ROOT
ATOM      1  C   UNL     1       4.173   1.632  17.443  0.00  0.00    +0.000 C 
ATOM      2  C   UNL     1       3.513   2.760  18.181  0.00  0.00    +0.000 A 
ATOM      3  C   UNL     1       2.844   2.411  19.376  0.00  0.00    +0.000 A 
ATOM      4  C   UNL     1       2.253   3.376  20.182  0.00  0.00    +0.000 A 
ATOM      5 BR   UNL     1       1.377   2.864  21.776  0.00  0.00    +0.000 Br
ATOM      6  C   UNL     1       2.318   4.713  19.825  0.00  0.00    +0.000 A 
ATOM      7  C   UNL     1       2.962   5.095  18.635  0.00  0.00    +0.000 A 
ATOM      8  C   UNL     1       3.015   6.558  18.285  0.00  0.00    +0.000 C 
ATOM      9  C   UNL     1       3.534   4.116  17.785  0.00  0.00    +0.000 A 
ENDROOT
BRANCH   9  10
ATOM     10  O   UNL     1       4.102   4.637  16.645  0.00  0.00    +0.000 OA
BRANCH  10  11
ATOM     11  C   UNL     1       5.489   4.431  16.372  0.00  0.00    +0.000 C 
ATOM     12  C   UNL     1       5.859   4.731  14.918  0.00  0.00    +0.000 C 
BRANCH  11  13
ATOM     13  C   UNL     1       6.337   5.369  17.243  0.00  0.00    +0.000 C 
ATOM     14  N   UNL     1       7.008   4.907  18.273  0.00  0.00    +0.000 NA
ATOM     15  C   UNL     1       7.757   6.089  18.787  0.00  0.00    +0.000 C 
ATOM     16  C   UNL     1       7.651   7.169  17.703  0.00  0.00    +0.000 C 
ATOM     17  N   UNL     1       6.497   6.708  16.972  0.00  0.00    +0.000 N 
ATOM     18  H   UNL     1       6.351   7.007  16.015  0.00  0.00    +0.000 HD
ENDBRANCH  11  13
ENDBRANCH  10  11
ENDBRANCH   9  10
TORSDOF 3
ENDMDL
MODEL 8
REMARK VINA RESULT:      -5.9      3.512      5.825
REMARK  Name = 
REMARK  6 active torsions:
REMARK  status: ('A' for Active; 'I' for Inactive)
REMARK    1  A    between atoms: C_1  and  C_2
REMARK    2  A    between atoms: C_7  and  C_8
REMARK    3  A    between atoms: C_9  and  O_10
REMARK    4  A    between atoms: O_10  and  C_11
REMARK    5  A    between atoms: C_11  and  C_12
REMARK    6  A    between atoms: C_11  and  C_13
REMARK                            x       y       z     vdW  Elec       q    Type
REMARK                         _______ _______ _______ _____ _____    ______ ____
ROOT
ATOM      1  C   UNL     1       3.633   3.164  16.881  0.00  0.00    +0.000 C 
ATOM      2  C   UNL     1       4.929   3.908  16.742  0.00  0.00    +0.000 A 
ATOM      3  C   UNL     1       5.455   3.997  15.433  0.00  0.00    +0.000 A 
ATOM      4  C   UNL     1       6.612   4.717  15.166  0.00  0.00    +0.000 A 
ATOM      5 BR   UNL     1       7.274   4.816  13.399  0.00  0.00    +0.000 Br
ATOM      6  C   UNL     1       7.272   5.374  16.192  0.00  0.00    +0.000 A 
ATOM      7  C   UNL     1       6.786   5.294  17.509  0.00  0.00    +0.000 A 
ATOM      8  C   UNL     1       7.530   6.025  18.594  0.00  0.00    +0.000 C 
ATOM      9  C   UNL     1       5.629   4.529  17.800  0.00  0.00    +0.000 A 
ENDROOT
BRANCH   9  10
ATOM     10  O   UNL     1       5.292   4.522  19.133  0.00  0.00    +0.000 OA
BRANCH  10  11
ATOM     11  C   UNL     1       4.188   5.298  19.603  0.00  0.00    +0.000 C 
ATOM     12  C   UNL     1       3.701   6.321  18.575  0.00  0.00    +0.000 C 
BRANCH  11  13
ATOM     13  C   UNL     1       2.995   4.379  19.904  0.00  0.00    +0.000 C 
ATOM     14  N   UNL     1       3.169   3.234  20.525  0.00  0.00    +0.000 NA
ATOM     15  C   UNL     1       1.789   2.698  20.704  0.00  0.00    +0.000 C 
ATOM     16  C   UNL     1       0.835   3.855  20.388  0.00  0.00    +0.000 C 
ATOM     17  N   UNL     1       1.694   4.713  19.611  0.00  0.00    +0.000 N 
ATOM     18  H   UNL     1       1.479   5.699  19.520  0.00  0.00    +0.000 HD
ENDBRANCH  11  13
ENDBRANCH  10  11
ENDBRANCH   9  10
TORSDOF 3
ENDMDL
MODEL 9
REMARK VINA RESULT:      -5.9      2.712      3.753
REMARK  Name = 
REMARK  6 active torsions:
REMARK  status: ('A' for Active; 'I' for Inactive)
REMARK    1  A    between atoms: C_1  and  C_2
REMARK    2  A    between atoms: C_7  and  C_8
REMARK    3  A    between atoms: C_9  and  O_10
REMARK    4  A    between atoms: O_10  and  C_11
REMARK    5  A    between atoms: C_11  and  C_12
REMARK    6  A    between atoms: C_11  and  C_13
REMARK                            x       y       z     vdW  Elec       q    Type
REMARK                         _______ _______ _______ _____ _____    ______ ____
ROOT
ATOM      1  C   UNL     1       2.687   6.958  19.313  0.00  0.00    +0.000 C 
ATOM      2  C   UNL     1       2.746   5.458  19.304  0.00  0.00    +0.000 A 
ATOM      3  C   UNL     1       2.218   4.812  20.445  0.00  0.00    +0.000 A 
ATOM      4  C   UNL     1       2.154   3.426  20.526  0.00  0.00    +0.000 A 
ATOM      5 BR   UNL     1       1.431   2.604  22.066  0.00  0.00    +0.000 Br
ATOM      6  C   UNL     1       2.606   2.648  19.471  0.00  0.00    +0.000 A 
ATOM      7  C   UNL     1       3.152   3.259  18.328  0.00  0.00    +0.000 A 
ATOM      8  C   UNL     1       3.628   2.378  17.204  0.00  0.00    +0.000 C 
ATOM      9  C   UNL     1       3.259   4.669  18.252  0.00  0.00    +0.000 A 
ENDROOT
BRANCH   9  10
ATOM     10  O   UNL     1       3.839   5.117  17.087  0.00  0.00    +0.000 OA
BRANCH  10  11
ATOM     11  C   UNL     1       5.184   5.600  17.090  0.00  0.00    +0.000 C 
ATOM     12  C   UNL     1       6.036   4.979  18.200  0.00  0.00    +0.000 C 
BRANCH  11  13
ATOM     13  C   UNL     1       5.868   5.246  15.762  0.00  0.00    +0.000 C 
ATOM     14  N   UNL     1       7.115   5.593  15.536  0.00  0.00    +0.000 NA
ATOM     15  C   UNL     1       7.427   4.998  14.204  0.00  0.00    +0.000 C 
ATOM     16  C   UNL     1       6.291   4.016  13.896  0.00  0.00    +0.000 C 
ATOM     17  N   UNL     1       5.260   4.508  14.775  0.00  0.00    +0.000 N 
ATOM     18  H   UNL     1       4.499   3.899  15.055  0.00  0.00    +0.000 HD
ENDBRANCH  11  13
ENDBRANCH  10  11
ENDBRANCH   9  10
TORSDOF 3
ENDMDL
