MODEL 1
REMARK VINA RESULT:      -8.7      0.000      0.000
REMARK  Name = 
REMARK  5 active torsions:
REMARK  status: ('A' for Active; 'I' for Inactive)
REMARK    1  A    between atoms: C_1  and  O_2
REMARK    2  A    between atoms: O_2  and  C_3
REMARK    3  A    between atoms: C_8  and  C_9
REMARK    4  A    between atoms: N_15  and  C_16
REMARK    5  A    between atoms: C_16  and  C_17
REMARK                            x       y       z     vdW  Elec       q    Type
REMARK                         _______ _______ _______ _____ _____    ______ ____
ROOT
ATOM      1  C   UNL     1       5.302   4.399  16.699  0.00  0.00    +0.000 C 
ATOM      2  O   UNL     1       5.996   4.129  17.678  0.00  0.00    +0.000 OA
ATOM      3  N   UNL     1       3.961   4.685  16.774  0.00  0.00    +0.000 N 
ATOM      4  C   UNL     1       3.275   4.509  17.966  0.00  0.00    +0.000 A 
ATOM      5  N   UNL     1       2.956   5.645  18.623  0.00  0.00    +0.000 NA
ATOM      6  C   UNL     1       2.391   5.572  19.852  0.00  0.00    +0.000 A 
ATOM      7  N   UNL     1       2.096   6.712  20.560  0.00  0.00    +0.000 N 
ATOM      8  C   UNL     1       2.087   4.296  20.360  0.00  0.00    +0.000 A 
ATOM      9  N   UNL     1       1.493   3.869  21.532  0.00  0.00    +0.000 NA
ATOM     10  C   UNL     1       1.381   2.567  21.401  0.00  0.00    +0.000 A 
ATOM     11  N   UNL     1       1.880   2.134  20.198  0.00  0.00    +0.000 N 
ATOM     12  C   UNL     1       2.352   3.227  19.528  0.00  0.00    +0.000 A 
ATOM     13  N   UNL     1       2.929   3.250  18.319  0.00  0.00    +0.000 NA
ATOM     14  H   UNL     1       3.410   4.638  15.930  0.00  0.00    +0.000 HD
ATOM     15  H   UNL     1       2.114   6.658  21.571  0.00  0.00    +0.000 HD
ATOM     16  H   UNL     1       1.886   1.188  19.854  0.00  0.00    +0.000 HD
ENDROOT
BRANCH   1  22
ATOM     17  C   UNL     1       7.117   5.196  15.033  0.00  0.00    +0.000 A 
ATOM     18  C   UNL     1       7.623   5.148  13.722  0.00  0.00    +0.000 A 
ATOM     19  C   UNL     1       7.004   4.379  12.734  0.00  0.00    +0.000 A 
ATOM     20  C   UNL     1       5.864   3.650  13.040  0.00  0.00    +0.000 A 
ATOM     21  C   UNL     1       5.343   3.694  14.333  0.00  0.00    +0.000 A 
ATOM     22  C   UNL     1       5.952   4.464  15.344  0.00  0.00    +0.000 A 
BRANCH  17  24
ATOM     23  C   UNL     1       6.917   7.052  16.515  0.00  0.00    +0.000 C 
ATOM     24  O   UNL     1       7.690   5.960  16.022  0.00  0.00    +0.000 OA
ENDBRANCH  17  24
ENDBRANCH   1  22
BRANCH   7  25
ATOM     25  C   UNL     1       1.933   7.980  19.900  0.00  0.00    +0.000 C 
BRANCH  25  26
ATOM     26  C   UNL     1       1.056   8.873  20.752  0.00  0.00    +0.000 A 
ATOM     27  C   UNL     1       0.280   9.883  20.170  0.00  0.00    +0.000 A 
ATOM     28  C   UNL     1      -0.522  10.705  20.964  0.00  0.00    +0.000 A 
ATOM     29  C   UNL     1      -0.562  10.525  22.347  0.00  0.00    +0.000 A 
ATOM     30  C   UNL     1       0.196   9.517  22.938  0.00  0.00    +0.000 A 
ATOM     31  C   UNL     1       0.995   8.693  22.145  0.00  0.00    +0.000 A 
ENDBRANCH  25  26
ENDBRANCH   7  25
TORSDOF 4
ENDMDL
MODEL 2
REMARK VINA RESULT:      -8.4      2.566      8.114
REMARK  Name = 
REMARK  5 active torsions:
REMARK  status: ('A' for Active; 'I' for Inactive)
REMARK    1  A    between atoms: C_1  and  O_2
REMARK    2  A    between atoms: O_2  and  C_3
REMARK    3  A    between atoms: C_8  and  C_9
REMARK    4  A    between atoms: N_15  and  C_16
REMARK    5  A    between atoms: C_16  and  C_17
REMARK                            x       y       z     vdW  Elec       q    Type
REMARK                         _______ _______ _______ _____ _____    ______ ____
ROOT
ATOM      1  C   UNL     1       1.727   8.533  18.284  0.00  0.00    +0.000 C 
ATOM      2  O   UNL     1       0.882   8.101  17.502  0.00  0.00    +0.000 OA
ATOM      3  N   UNL     1       2.764   7.779  18.776  0.00  0.00    +0.000 N 
ATOM      4  C   UNL     1       2.808   6.414  18.540  0.00  0.00    +0.000 A 
ATOM      5  N   UNL     1       3.721   6.013  17.629  0.00  0.00    +0.000 NA
ATOM      6  C   UNL     1       3.758   4.714  17.245  0.00  0.00    +0.000 A 
ATOM      7  N   UNL     1       4.649   4.288  16.289  0.00  0.00    +0.000 N 
ATOM      8  C   UNL     1       2.883   3.816  17.881  0.00  0.00    +0.000 A 
ATOM      9  N   UNL     1       2.685   2.454  17.761  0.00  0.00    +0.000 NA
ATOM     10  C   UNL     1       1.804   2.156  18.689  0.00  0.00    +0.000 A 
ATOM     11  N   UNL     1       1.422   3.266  19.401  0.00  0.00    +0.000 N 
ATOM     12  C   UNL     1       2.090   4.339  18.883  0.00  0.00    +0.000 A 
ATOM     13  N   UNL     1       2.003   5.616  19.280  0.00  0.00    +0.000 NA
ATOM     14  H   UNL     1       3.252   8.108  19.596  0.00  0.00    +0.000 HD
ATOM     15  H   UNL     1       4.382   3.499  15.714  0.00  0.00    +0.000 HD
ATOM     16  H   UNL     1       0.780   3.293  20.176  0.00  0.00    +0.000 HD
ENDROOT
BRANCH   1  22
ATOM     17  C   UNL     1       0.994  10.461  19.851  0.00  0.00    +0.000 A 
ATOM     18  C   UNL     1       1.028  11.839  20.127  0.00  0.00    +0.000 A 
ATOM     19  C   UNL     1       1.717  12.727  19.298  0.00  0.00    +0.000 A 
ATOM     20  C   UNL     1       2.377  12.252  18.174  0.00  0.00    +0.000 A 
ATOM     21  C   UNL     1       2.346  10.890  17.880  0.00  0.00    +0.000 A 
ATOM     22  C   UNL     1       1.656   9.976  18.703  0.00  0.00    +0.000 A 
BRANCH  17  24
ATOM     23  C   UNL     1       0.912   9.208  21.877  0.00  0.00    +0.000 C 
ATOM     24  O   UNL     1       0.308   9.563  20.635  0.00  0.00    +0.000 OA
ENDBRANCH  17  24
ENDBRANCH   1  22
BRANCH   7  25
ATOM     25  C   UNL     1       5.843   5.035  15.996  0.00  0.00    +0.000 C 
BRANCH  25  26
ATOM     26  C   UNL     1       6.292   4.718  14.585  0.00  0.00    +0.000 A 
ATOM     27  C   UNL     1       7.421   5.336  14.034  0.00  0.00    +0.000 A 
ATOM     28  C   UNL     1       7.825   5.041  12.731  0.00  0.00    +0.000 A 
ATOM     29  C   UNL     1       7.109   4.122  11.964  0.00  0.00    +0.000 A 
ATOM     30  C   UNL     1       5.990   3.490  12.503  0.00  0.00    +0.000 A 
ATOM     31  C   UNL     1       5.588   3.782  13.806  0.00  0.00    +0.000 A 
ENDBRANCH  25  26
ENDBRANCH   7  25
TORSDOF 4
ENDMDL
MODEL 3
REMARK VINA RESULT:      -8.2      3.658      7.484
REMARK  Name = 
REMARK  5 active torsions:
REMARK  status: ('A' for Active; 'I' for Inactive)
REMARK    1  A    between atoms: C_1  and  O_2
REMARK    2  A    between atoms: O_2  and  C_3
REMARK    3  A    between atoms: C_8  and  C_9
REMARK    4  A    between atoms: N_15  and  C_16
REMARK    5  A    between atoms: C_16  and  C_17
REMARK                            x       y       z     vdW  Elec       q    Type
REMARK                         _______ _______ _______ _____ _____    ______ ____
ROOT
ATOM      1  C   UNL     1       3.657   4.196  18.583  0.00  0.00    +0.000 C 
ATOM      2  O   UNL     1       3.048   4.856  17.743  0.00  0.00    +0.000 OA
ATOM      3  N   UNL     1       5.022   4.045  18.587  0.00  0.00    +0.000 N 
ATOM      4  C   UNL     1       5.778   4.503  17.520  0.00  0.00    +0.000 A 
ATOM      5  N   UNL     1       6.488   5.628  17.753  0.00  0.00    +0.000 NA
ATOM      6  C   UNL     1       7.164   6.217  16.737  0.00  0.00    +0.000 A 
ATOM      7  N   UNL     1       7.859   7.386  16.938  0.00  0.00    +0.000 N 
ATOM      8  C   UNL     1       7.158   5.576  15.486  0.00  0.00    +0.000 A 
ATOM      9  N   UNL     1       7.753   5.874  14.275  0.00  0.00    +0.000 NA
ATOM     10  C   UNL     1       7.473   4.851  13.498  0.00  0.00    +0.000 A 
ATOM     11  N   UNL     1       6.721   3.909  14.153  0.00  0.00    +0.000 N 
ATOM     12  C   UNL     1       6.495   4.367  15.421  0.00  0.00    +0.000 A 
ATOM     13  N   UNL     1       5.796   3.759  16.390  0.00  0.00    +0.000 NA
ATOM     14  H   UNL     1       5.423   3.295  19.130  0.00  0.00    +0.000 HD
ATOM     15  H   UNL     1       7.957   8.017  16.153  0.00  0.00    +0.000 HD
ATOM     16  H   UNL     1       6.402   3.028  13.783  0.00  0.00    +0.000 HD
ENDROOT
BRANCH   1  22
ATOM     17  C   UNL     1       3.392   2.572  20.583  0.00  0.00    +0.000 A 
ATOM     18  C   UNL     1       2.553   2.062  21.589  0.00  0.00    +0.000 A 
ATOM     19  C   UNL     1       1.239   2.510  21.734  0.00  0.00    +0.000 A 
ATOM     20  C   UNL     1       0.738   3.472  20.868  0.00  0.00    +0.000 A 
ATOM     21  C   UNL     1       1.553   3.982  19.858  0.00  0.00    +0.000 A 
ATOM     22  C   UNL     1       2.882   3.543  19.695  0.00  0.00    +0.000 A 
BRANCH  17  24
ATOM     23  C   UNL     1       5.169   1.171  21.330  0.00  0.00    +0.000 C 
ATOM     24  O   UNL     1       4.683   2.136  20.400  0.00  0.00    +0.000 OA
ENDBRANCH  17  24
ENDBRANCH   1  22
BRANCH   7  25
ATOM     25  C   UNL     1       8.287   7.783  18.252  0.00  0.00    +0.000 C 
BRANCH  25  26
ATOM     26  C   UNL     1       8.521   9.279  18.266  0.00  0.00    +0.000 A 
ATOM     27  C   UNL     1       7.823  10.123  17.393  0.00  0.00    +0.000 A 
ATOM     28  C   UNL     1       8.049  11.501  17.409  0.00  0.00    +0.000 A 
ATOM     29  C   UNL     1       8.969  12.052  18.301  0.00  0.00    +0.000 A 
ATOM     30  C   UNL     1       9.661  11.226  19.184  0.00  0.00    +0.000 A 
ATOM     31  C   UNL     1       9.434   9.850  19.170  0.00  0.00    +0.000 A 
ENDBRANCH  25  26
ENDBRANCH   7  25
TORSDOF 4
ENDMDL
MODEL 4
REMARK VINA RESULT:      -8.2      4.670      6.884
REMARK  Name = 
REMARK  5 active torsions:
REMARK  status: ('A' for Active; 'I' for Inactive)
REMARK    1  A    between atoms: C_1  and  O_2
REMARK    2  A    between atoms: O_2  and  C_3
REMARK    3  A    between atoms: C_8  and  C_9
REMARK    4  A    between atoms: N_15  and  C_16
REMARK    5  A    between atoms: C_16  and  C_17
REMARK                            x       y       z     vdW  Elec       q    Type
REMARK                         _______ _______ _______ _____ _____    ______ ____
ROOT
ATOM      1  C   UNL     1       2.400   7.831  18.427  0.00  0.00    +0.000 C 
ATOM      2  O   UNL     1       1.960   7.686  19.566  0.00  0.00    +0.000 OA
ATOM      3  N   UNL     1       2.150   8.936  17.650  0.00  0.00    +0.000 N 
ATOM      4  C   UNL     1       1.226   9.884  18.062  0.00  0.00    +0.000 A 
ATOM      5  N   UNL     1       1.749  11.045  18.512  0.00  0.00    +0.000 NA
ATOM      6  C   UNL     1       0.932  11.985  19.046  0.00  0.00    +0.000 A 
ATOM      7  N   UNL     1       1.444  13.157  19.550  0.00  0.00    +0.000 N 
ATOM      8  C   UNL     1      -0.451  11.737  19.033  0.00  0.00    +0.000 A 
ATOM      9  N   UNL     1      -1.542  12.474  19.451  0.00  0.00    +0.000 NA
ATOM     10  C   UNL     1      -2.589  11.770  19.086  0.00  0.00    +0.000 A 
ATOM     11  N   UNL     1      -2.223  10.609  18.453  0.00  0.00    +0.000 N 
ATOM     12  C   UNL     1      -0.857  10.564  18.428  0.00  0.00    +0.000 A 
ATOM     13  N   UNL     1      -0.088   9.597  17.909  0.00  0.00    +0.000 NA
ATOM     14  H   UNL     1       2.315   8.874  16.657  0.00  0.00    +0.000 HD
ATOM     15  H   UNL     1       0.940  13.605  20.305  0.00  0.00    +0.000 HD
ATOM     16  H   UNL     1      -2.839   9.917  18.060  0.00  0.00    +0.000 HD
ENDROOT
BRANCH   1  22
ATOM     17  C   UNL     1       3.051   5.379  17.907  0.00  0.00    +0.000 A 
ATOM     18  C   UNL     1       3.971   4.500  17.311  0.00  0.00    +0.000 A 
ATOM     19  C   UNL     1       5.108   4.977  16.655  0.00  0.00    +0.000 A 
ATOM     20  C   UNL     1       5.347   6.342  16.592  0.00  0.00    +0.000 A 
ATOM     21  C   UNL     1       4.449   7.228  17.187  0.00  0.00    +0.000 A 
ATOM     22  C   UNL     1       3.296   6.767  17.854  0.00  0.00    +0.000 A 
BRANCH  17  24
ATOM     23  C   UNL     1       1.403   3.678  18.180  0.00  0.00    +0.000 C 
ATOM     24  O   UNL     1       1.933   4.940  18.579  0.00  0.00    +0.000 OA
ENDBRANCH  17  24
ENDBRANCH   1  22
BRANCH   7  25
ATOM     25  C   UNL     1       2.735  13.644  19.144  0.00  0.00    +0.000 C 
BRANCH  25  26
ATOM     26  C   UNL     1       2.567  14.991  18.473  0.00  0.00    +0.000 A 
ATOM     27  C   UNL     1       3.475  15.427  17.499  0.00  0.00    +0.000 A 
ATOM     28  C   UNL     1       3.315  16.672  16.890  0.00  0.00    +0.000 A 
ATOM     29  C   UNL     1       2.244  17.495  17.240  0.00  0.00    +0.000 A 
ATOM     30  C   UNL     1       1.327  17.069  18.198  0.00  0.00    +0.000 A 
ATOM     31  C   UNL     1       1.484  15.824  18.806  0.00  0.00    +0.000 A 
ENDBRANCH  25  26
ENDBRANCH   7  25
TORSDOF 4
ENDMDL
MODEL 5
REMARK VINA RESULT:      -8.1      2.857      8.225
REMARK  Name = 
REMARK  5 active torsions:
REMARK  status: ('A' for Active; 'I' for Inactive)
REMARK    1  A    between atoms: C_1  and  O_2
REMARK    2  A    between atoms: O_2  and  C_3
REMARK    3  A    between atoms: C_8  and  C_9
REMARK    4  A    between atoms: N_15  and  C_16
REMARK    5  A    between atoms: C_16  and  C_17
REMARK                            x       y       z     vdW  Elec       q    Type
REMARK                         _______ _______ _______ _____ _____    ______ ____
ROOT
ATOM      1  C   UNL     1       1.613   8.938  18.035  0.00  0.00    +0.000 C 
ATOM      2  O   UNL     1       0.761   8.348  17.372  0.00  0.00    +0.000 OA
ATOM      3  N   UNL     1       2.728   8.327  18.555  0.00  0.00    +0.000 N 
ATOM      4  C   UNL     1       2.859   6.948  18.498  0.00  0.00    +0.000 A 
ATOM      5  N   UNL     1       3.748   6.488  17.592  0.00  0.00    +0.000 NA
ATOM      6  C   UNL     1       3.860   5.154  17.381  0.00  0.00    +0.000 A 
ATOM      7  N   UNL     1       4.726   4.661  16.435  0.00  0.00    +0.000 N 
ATOM      8  C   UNL     1       3.089   4.295  18.184  0.00  0.00    +0.000 A 
ATOM      9  N   UNL     1       2.985   2.920  18.258  0.00  0.00    +0.000 NA
ATOM     10  C   UNL     1       2.180   2.693  19.271  0.00  0.00    +0.000 A 
ATOM     11  N   UNL     1       1.757   3.862  19.853  0.00  0.00    +0.000 N 
ATOM     12  C   UNL     1       2.315   4.897  19.156  0.00  0.00    +0.000 A 
ATOM     13  N   UNL     1       2.156   6.207  19.387  0.00  0.00    +0.000 NA
ATOM     14  H   UNL     1       3.234   8.795  19.292  0.00  0.00    +0.000 HD
ATOM     15  H   UNL     1       4.488   3.786  15.987  0.00  0.00    +0.000 HD
ATOM     16  H   UNL     1       1.158   3.952  20.657  0.00  0.00    +0.000 HD
ENDROOT
BRANCH   1  22
ATOM     17  C   UNL     1       0.334  11.040  18.842  0.00  0.00    +0.000 A 
ATOM     18  C   UNL     1       0.338  12.436  19.011  0.00  0.00    +0.000 A 
ATOM     19  C   UNL     1       1.440  13.207  18.634  0.00  0.00    +0.000 A 
ATOM     20  C   UNL     1       2.553  12.596  18.075  0.00  0.00    +0.000 A 
ATOM     21  C   UNL     1       2.561  11.214  17.891  0.00  0.00    +0.000 A 
ATOM     22  C   UNL     1       1.460  10.417  18.264  0.00  0.00    +0.000 A 
BRANCH  17  24
ATOM     23  C   UNL     1      -1.908  10.381  18.370  0.00  0.00    +0.000 C 
ATOM     24  O   UNL     1      -0.743  10.254  19.182  0.00  0.00    +0.000 OA
ENDBRANCH  17  24
ENDBRANCH   1  22
BRANCH   7  25
ATOM     25  C   UNL     1       5.845   5.438  15.970  0.00  0.00    +0.000 C 
BRANCH  25  26
ATOM     26  C   UNL     1       6.262   4.938  14.604  0.00  0.00    +0.000 A 
ATOM     27  C   UNL     1       7.420   5.424  13.983  0.00  0.00    +0.000 A 
ATOM     28  C   UNL     1       7.794   4.960  12.721  0.00  0.00    +0.000 A 
ATOM     29  C   UNL     1       7.020   4.002  12.065  0.00  0.00    +0.000 A 
ATOM     30  C   UNL     1       5.873   3.501  12.676  0.00  0.00    +0.000 A 
ATOM     31  C   UNL     1       5.499   3.961  13.938  0.00  0.00    +0.000 A 
ENDBRANCH  25  26
ENDBRANCH   7  25
TORSDOF 4
ENDMDL
MODEL 6
REMARK VINA RESULT:      -7.9      2.294      7.186
REMARK  Name = 
REMARK  5 active torsions:
REMARK  status: ('A' for Active; 'I' for Inactive)
REMARK    1  A    between atoms: C_1  and  O_2
REMARK    2  A    between atoms: O_2  and  C_3
REMARK    3  A    between atoms: C_8  and  C_9
REMARK    4  A    between atoms: N_15  and  C_16
REMARK    5  A    between atoms: C_16  and  C_17
REMARK                            x       y       z     vdW  Elec       q    Type
REMARK                         _______ _______ _______ _____ _____    ______ ____
ROOT
ATOM      1  C   UNL     1       2.575   7.448  19.300  0.00  0.00    +0.000 C 
ATOM      2  O   UNL     1       3.628   7.367  19.929  0.00  0.00    +0.000 OA
ATOM      3  N   UNL     1       2.315   6.730  18.157  0.00  0.00    +0.000 N 
ATOM      4  C   UNL     1       3.321   5.992  17.553  0.00  0.00    +0.000 A 
ATOM      5  N   UNL     1       3.233   4.654  17.713  0.00  0.00    +0.000 NA
ATOM      6  C   UNL     1       4.232   3.858  17.260  0.00  0.00    +0.000 A 
ATOM      7  N   UNL     1       4.187   2.497  17.447  0.00  0.00    +0.000 N 
ATOM      8  C   UNL     1       5.292   4.466  16.565  0.00  0.00    +0.000 A 
ATOM      9  N   UNL     1       6.426   3.964  15.955  0.00  0.00    +0.000 NA
ATOM     10  C   UNL     1       6.989   5.002  15.379  0.00  0.00    +0.000 A 
ATOM     11  N   UNL     1       6.271   6.152  15.592  0.00  0.00    +0.000 N 
ATOM     12  C   UNL     1       5.192   5.829  16.366  0.00  0.00    +0.000 A 
ATOM     13  N   UNL     1       4.238   6.657  16.813  0.00  0.00    +0.000 NA
ATOM     14  H   UNL     1       1.561   7.032  17.560  0.00  0.00    +0.000 HD
ATOM     15  H   UNL     1       5.067   2.003  17.527  0.00  0.00    +0.000 HD
ATOM     16  H   UNL     1       6.482   7.069  15.234  0.00  0.00    +0.000 HD
ENDROOT
BRANCH   1  22
ATOM     17  C   UNL     1       0.951   9.459  19.133  0.00  0.00    +0.000 A 
ATOM     18  C   UNL     1      -0.080  10.199  19.736  0.00  0.00    +0.000 A 
ATOM     19  C   UNL     1      -0.594   9.844  20.985  0.00  0.00    +0.000 A 
ATOM     20  C   UNL     1      -0.078   8.744  21.656  0.00  0.00    +0.000 A 
ATOM     21  C   UNL     1       0.953   8.004  21.078  0.00  0.00    +0.000 A 
ATOM     22  C   UNL     1       1.485   8.347  19.818  0.00  0.00    +0.000 A 
BRANCH  17  24
ATOM     23  C   UNL     1       2.307  10.965  17.879  0.00  0.00    +0.000 C 
ATOM     24  O   UNL     1       1.493   9.795  17.915  0.00  0.00    +0.000 OA
ENDBRANCH  17  24
ENDBRANCH   1  22
BRANCH   7  25
ATOM     25  C   UNL     1       2.943   1.818  17.692  0.00  0.00    +0.000 C 
BRANCH  25  26
ATOM     26  C   UNL     1       2.401   2.247  19.038  0.00  0.00    +0.000 A 
ATOM     27  C   UNL     1       1.074   2.675  19.175  0.00  0.00    +0.000 A 
ATOM     28  C   UNL     1       0.584   3.074  20.421  0.00  0.00    +0.000 A 
ATOM     29  C   UNL     1       1.411   3.044  21.544  0.00  0.00    +0.000 A 
ATOM     30  C   UNL     1       2.729   2.609  21.425  0.00  0.00    +0.000 A 
ATOM     31  C   UNL     1       3.219   2.208  20.182  0.00  0.00    +0.000 A 
ENDBRANCH  25  26
ENDBRANCH   7  25
TORSDOF 4
ENDMDL
MODEL 7
REMARK VINA RESULT:      -7.9      4.834      6.841
REMARK  Name = 
REMARK  5 active torsions:
REMARK  status: ('A' for Active; 'I' for Inactive)
REMARK    1  A    between atoms: C_1  and  O_2
REMARK    2  A    between atoms: O_2  and  C_3
REMARK    3  A    between atoms: C_8  and  C_9
REMARK    4  A    between atoms: N_15  and  C_16
REMARK    5  A    between atoms: C_16  and  C_17
REMARK                            x       y       z     vdW  Elec       q    Type
REMARK                         _______ _______ _______ _____ _____    ______ ____
ROOT
ATOM      1  C   UNL     1       2.286   7.608  18.541  0.00  0.00    +0.000 C 
ATOM      2  O   UNL     1       2.108   7.722  19.752  0.00  0.00    +0.000 OA
ATOM      3  N   UNL     1       2.020   8.606  17.636  0.00  0.00    +0.000 N 
ATOM      4  C   UNL     1       1.361   9.756  18.040  0.00  0.00    +0.000 A 
ATOM      5  N   UNL     1       2.133  10.860  18.144  0.00  0.00    +0.000 NA
ATOM      6  C   UNL     1       1.604  12.003  18.644  0.00  0.00    +0.000 A 
ATOM      7  N   UNL     1       2.379  13.127  18.801  0.00  0.00    +0.000 N 
ATOM      8  C   UNL     1       0.234  12.008  18.963  0.00  0.00    +0.000 A 
ATOM      9  N   UNL     1      -0.613  12.985  19.448  0.00  0.00    +0.000 NA
ATOM     10  C   UNL     1      -1.805  12.433  19.446  0.00  0.00    +0.000 A 
ATOM     11  N   UNL     1      -1.764  11.141  18.985  0.00  0.00    +0.000 N 
ATOM     12  C   UNL     1      -0.462  10.848  18.689  0.00  0.00    +0.000 A 
ATOM     13  N   UNL     1       0.021   9.691  18.217  0.00  0.00    +0.000 NA
ATOM     14  H   UNL     1       1.939   8.363  16.660  0.00  0.00    +0.000 HD
ATOM     15  H   UNL     1       2.133  13.770  19.543  0.00  0.00    +0.000 HD
ATOM     16  H   UNL     1      -2.546  10.519  18.865  0.00  0.00    +0.000 HD
ENDROOT
BRANCH   1  22
ATOM     17  C   UNL     1       4.170   6.169  17.497  0.00  0.00    +0.000 A 
ATOM     18  C   UNL     1       4.581   4.901  17.051  0.00  0.00    +0.000 A 
ATOM     19  C   UNL     1       3.729   3.796  17.123  0.00  0.00    +0.000 A 
ATOM     20  C   UNL     1       2.448   3.944  17.636  0.00  0.00    +0.000 A 
ATOM     21  C   UNL     1       2.021   5.197  18.074  0.00  0.00    +0.000 A 
ATOM     22  C   UNL     1       2.865   6.324  18.010  0.00  0.00    +0.000 A 
BRANCH  17  24
ATOM     23  C   UNL     1       6.362   7.049  17.177  0.00  0.00    +0.000 C 
ATOM     24  O   UNL     1       4.976   7.281  17.421  0.00  0.00    +0.000 OA
ENDBRANCH  17  24
ENDBRANCH   1  22
BRANCH   7  25
ATOM     25  C   UNL     1       3.594  13.306  18.053  0.00  0.00    +0.000 C 
BRANCH  25  26
ATOM     26  C   UNL     1       4.244  14.609  18.467  0.00  0.00    +0.000 A 
ATOM     27  C   UNL     1       5.575  14.887  18.131  0.00  0.00    +0.000 A 
ATOM     28  C   UNL     1       6.167  16.089  18.522  0.00  0.00    +0.000 A 
ATOM     29  C   UNL     1       5.437  17.030  19.248  0.00  0.00    +0.000 A 
ATOM     30  C   UNL     1       4.109  16.772  19.579  0.00  0.00    +0.000 A 
ATOM     31  C   UNL     1       3.514  15.572  19.187  0.00  0.00    +0.000 A 
ENDBRANCH  25  26
ENDBRANCH   7  25
TORSDOF 4
ENDMDL
MODEL 8
REMARK VINA RESULT:      -7.8      5.291      9.452
REMARK  Name = 
REMARK  5 active torsions:
REMARK  status: ('A' for Active; 'I' for Inactive)
REMARK    1  A    between atoms: C_1  and  O_2
REMARK    2  A    between atoms: O_2  and  C_3
REMARK    3  A    between atoms: C_8  and  C_9
REMARK    4  A    between atoms: N_15  and  C_16
REMARK    5  A    between atoms: C_16  and  C_17
REMARK                            x       y       z     vdW  Elec       q    Type
REMARK                         _______ _______ _______ _____ _____    ______ ____
ROOT
ATOM      1  C   UNL     1       0.360  14.099  19.008  0.00  0.00    +0.000 C 
ATOM      2  O   UNL     1      -0.794  13.713  18.835  0.00  0.00    +0.000 OA
ATOM      3  N   UNL     1       1.352  13.316  19.546  0.00  0.00    +0.000 N 
ATOM      4  C   UNL     1       1.045  12.078  20.091  0.00  0.00    +0.000 A 
ATOM      5  N   UNL     1       1.413  11.012  19.348  0.00  0.00    +0.000 NA
ATOM      6  C   UNL     1       1.052   9.766  19.741  0.00  0.00    +0.000 A 
ATOM      7  N   UNL     1       1.377   8.667  18.981  0.00  0.00    +0.000 N 
ATOM      8  C   UNL     1       0.367   9.634  20.961  0.00  0.00    +0.000 A 
ATOM      9  N   UNL     1      -0.107   8.540  21.659  0.00  0.00    +0.000 NA
ATOM     10  C   UNL     1      -0.567   9.030  22.788  0.00  0.00    +0.000 A 
ATOM     11  N   UNL     1      -0.414  10.393  22.849  0.00  0.00    +0.000 N 
ATOM     12  C   UNL     1       0.166  10.796  21.679  0.00  0.00    +0.000 A 
ATOM     13  N   UNL     1       0.484  12.048  21.322  0.00  0.00    +0.000 NA
ATOM     14  H   UNL     1       2.184  13.765  19.897  0.00  0.00    +0.000 HD
ATOM     15  H   UNL     1       0.759   7.867  19.021  0.00  0.00    +0.000 HD
ATOM     16  H   UNL     1      -0.663  10.993  23.617  0.00  0.00    +0.000 HD
ENDROOT
BRANCH   1  22
ATOM     17  C   UNL     1       2.015  15.895  18.144  0.00  0.00    +0.000 A 
ATOM     18  C   UNL     1       2.212  17.229  17.750  0.00  0.00    +0.000 A 
ATOM     19  C   UNL     1       1.163  18.151  17.760  0.00  0.00    +0.000 A 
ATOM     20  C   UNL     1      -0.101  17.754  18.172  0.00  0.00    +0.000 A 
ATOM     21  C   UNL     1      -0.312  16.436  18.576  0.00  0.00    +0.000 A 
ATOM     22  C   UNL     1       0.733  15.491  18.574  0.00  0.00    +0.000 A 
BRANCH  17  24
ATOM     23  C   UNL     1       4.346  15.456  17.906  0.00  0.00    +0.000 C 
ATOM     24  O   UNL     1       3.031  14.968  18.166  0.00  0.00    +0.000 OA
ENDBRANCH  17  24
ENDBRANCH   1  22
BRANCH   7  25
ATOM     25  C   UNL     1       2.459   8.708  18.035  0.00  0.00    +0.000 C 
BRANCH  25  26
ATOM     26  C   UNL     1       2.990   7.305  17.828  0.00  0.00    +0.000 A 
ATOM     27  C   UNL     1       4.255   7.091  17.265  0.00  0.00    +0.000 A 
ATOM     28  C   UNL     1       4.734   5.794  17.074  0.00  0.00    +0.000 A 
ATOM     29  C   UNL     1       3.959   4.696  17.448  0.00  0.00    +0.000 A 
ATOM     30  C   UNL     1       2.705   4.894  18.020  0.00  0.00    +0.000 A 
ATOM     31  C   UNL     1       2.226   6.190  18.214  0.00  0.00    +0.000 A 
ENDBRANCH  25  26
ENDBRANCH   7  25
TORSDOF 4
ENDMDL
MODEL 9
REMARK VINA RESULT:      -7.8      4.750      7.767
REMARK  Name = 
REMARK  5 active torsions:
REMARK  status: ('A' for Active; 'I' for Inactive)
REMARK    1  A    between atoms: C_1  and  O_2
REMARK    2  A    between atoms: O_2  and  C_3
REMARK    3  A    between atoms: C_8  and  C_9
REMARK    4  A    between atoms: N_15  and  C_16
REMARK    5  A    between atoms: C_16  and  C_17
REMARK                            x       y       z     vdW  Elec       q    Type
REMARK                         _______ _______ _______ _____ _____    ______ ____
ROOT
ATOM      1  C   UNL     1       1.913   8.671  18.536  0.00  0.00    +0.000 C 
ATOM      2  O   UNL     1       2.281   9.193  17.485  0.00  0.00    +0.000 OA
ATOM      3  N   UNL     1       1.016   9.250  19.400  0.00  0.00    +0.000 N 
ATOM      4  C   UNL     1       0.604  10.559  19.203  0.00  0.00    +0.000 A 
ATOM      5  N   UNL     1      -0.652  10.706  18.728  0.00  0.00    +0.000 NA
ATOM      6  C   UNL     1      -1.101  11.940  18.393  0.00  0.00    +0.000 A 
ATOM      7  N   UNL     1      -2.359  12.112  17.867  0.00  0.00    +0.000 N 
ATOM      8  C   UNL     1      -0.253  13.035  18.634  0.00  0.00    +0.000 A 
ATOM      9  N   UNL     1      -0.402  14.396  18.449  0.00  0.00    +0.000 NA
ATOM     10  C   UNL     1       0.688  14.929  18.955  0.00  0.00    +0.000 A 
ATOM     11  N   UNL     1       1.535  13.972  19.455  0.00  0.00    +0.000 N 
ATOM     12  C   UNL     1       0.955  12.753  19.240  0.00  0.00    +0.000 A 
ATOM     13  N   UNL     1       1.449  11.551  19.568  0.00  0.00    +0.000 NA
ATOM     14  H   UNL     1       0.962   8.901  20.345  0.00  0.00    +0.000 HD
ATOM     15  H   UNL     1      -2.504  12.889  17.236  0.00  0.00    +0.000 HD
ATOM     16  H   UNL     1       2.417  14.128  19.915  0.00  0.00    +0.000 HD
ENDROOT
BRANCH   1  22
ATOM     17  C   UNL     1       3.456   6.618  18.200  0.00  0.00    +0.000 A 
ATOM     18  C   UNL     1       3.856   5.350  18.657  0.00  0.00    +0.000 A 
ATOM     19  C   UNL     1       3.273   4.771  19.787  0.00  0.00    +0.000 A 
ATOM     20  C   UNL     1       2.276   5.449  20.474  0.00  0.00    +0.000 A 
ATOM     21  C   UNL     1       1.861   6.703  20.028  0.00  0.00    +0.000 A 
ATOM     22  C   UNL     1       2.436   7.305  18.890  0.00  0.00    +0.000 A 
BRANCH  17  24
ATOM     23  C   UNL     1       5.211   6.649  16.587  0.00  0.00    +0.000 C 
ATOM     24  O   UNL     1       3.994   7.207  17.079  0.00  0.00    +0.000 OA
ENDBRANCH  17  24
ENDBRANCH   1  22
BRANCH   7  25
ATOM     25  C   UNL     1      -3.392  11.131  18.067  0.00  0.00    +0.000 C 
BRANCH  25  26
ATOM     26  C   UNL     1      -4.724  11.836  18.205  0.00  0.00    +0.000 A 
ATOM     27  C   UNL     1      -5.218  12.199  19.465  0.00  0.00    +0.000 A 
ATOM     28  C   UNL     1      -6.450  12.845  19.583  0.00  0.00    +0.000 A 
ATOM     29  C   UNL     1      -7.202  13.140  18.445  0.00  0.00    +0.000 A 
ATOM     30  C   UNL     1      -6.718  12.795  17.185  0.00  0.00    +0.000 A 
ATOM     31  C   UNL     1      -5.485  12.152  17.066  0.00  0.00    +0.000 A 
ENDBRANCH  25  26
ENDBRANCH   7  25
TORSDOF 4
ENDMDL
