MODEL 1
REMARK VINA RESULT:      -7.2      0.000      0.000
REMARK  Name = 
REMARK  4 active torsions:
REMARK  status: ('A' for Active; 'I' for Inactive)
REMARK    1  A    between atoms: C_1  and  C_2
REMARK    2  A    between atoms: C_2  and  N_3
REMARK    3  A    between atoms: C_9  and  O_10
REMARK    4  A    between atoms: O_10  and  C_11
REMARK                            x       y       z     vdW  Elec       q    Type
REMARK                         _______ _______ _______ _____ _____    ______ ____
ROOT
ATOM      1  N   UNL     1       5.477   4.535  15.814  0.00  0.00    +0.000 N 
ATOM      2  C   UNL     1       5.364   5.803  16.326  0.00  0.00    +0.000 C 
ATOM      3  O   UNL     1       6.153   6.703  16.054  0.00  0.00    +0.000 OA
ATOM      4  N   UNL     1       4.293   5.980  17.167  0.00  0.00    +0.000 N 
ATOM      5  C   UNL     1       3.414   4.971  17.728  0.00  0.00    +0.000 C 
ATOM      6  C   UNL     1       2.183   5.767  18.107  0.00  0.00    +0.000 C 
ATOM      7  C   UNL     1       2.764   7.079  18.639  0.00  0.00    +0.000 C 
ATOM      8  C   UNL     1       4.041   7.269  17.797  0.00  0.00    +0.000 C 
ATOM      9  H   UNL     1       4.591   4.085  15.655  0.00  0.00    +0.000 HD
ENDROOT
BRANCH   1  11
ATOM     10  C   UNL     1       5.899   3.872  13.505  0.00  0.00    +0.000 C 
ATOM     11  C   UNL     1       6.509   4.221  14.850  0.00  0.00    +0.000 C 
ENDBRANCH   1  11
BRANCH   7  12
ATOM     12  O   UNL     1       1.856   8.160  18.418  0.00  0.00    +0.000 OA
BRANCH  12  13
ATOM     13  C   UNL     1       1.319   8.696  19.573  0.00  0.00    +0.000 A 
ATOM     14  C   UNL     1       1.541   7.989  20.740  0.00  0.00    +0.000 A 
ATOM     15  C   UNL     1       0.955   8.458  21.910  0.00  0.00    +0.000 A 
ATOM     16  C   UNL     1       0.169   9.620  21.877  0.00  0.00    +0.000 A 
ATOM     17  C   UNL     1      -0.473  10.116  23.025  0.00  0.00    +0.000 A 
ATOM     18  C   UNL     1      -1.240  11.277  22.956  0.00  0.00    +0.000 A 
ATOM     19  C   UNL     1      -1.361  11.949  21.742  0.00  0.00    +0.000 A 
ATOM     20  C   UNL     1      -0.723  11.449  20.601  0.00  0.00    +0.000 A 
ATOM     21  C   UNL     1       0.035  10.288  20.641  0.00  0.00    +0.000 A 
ATOM     22  N   UNL     1       0.604   9.838  19.512  0.00  0.00    +0.000 NA
ENDBRANCH  12  13
ENDBRANCH   7  12
TORSDOF 3
ENDMDL
MODEL 2
REMARK VINA RESULT:      -6.9      3.114      8.591
REMARK  Name = 
REMARK  4 active torsions:
REMARK  status: ('A' for Active; 'I' for Inactive)
REMARK    1  A    between atoms: C_1  and  C_2
REMARK    2  A    between atoms: C_2  and  N_3
REMARK    3  A    between atoms: C_9  and  O_10
REMARK    4  A    between atoms: O_10  and  C_11
REMARK                            x       y       z     vdW  Elec       q    Type
REMARK                         _______ _______ _______ _____ _____    ______ ____
ROOT
ATOM      1  N   UNL     1      -1.349  12.711  22.502  0.00  0.00    +0.000 N 
ATOM      2  C   UNL     1      -0.944  12.042  21.375  0.00  0.00    +0.000 C 
ATOM      3  O   UNL     1      -1.082  12.498  20.244  0.00  0.00    +0.000 OA
ATOM      4  N   UNL     1      -0.369  10.818  21.620  0.00  0.00    +0.000 N 
ATOM      5  C   UNL     1      -0.327  10.078  22.867  0.00  0.00    +0.000 C 
ATOM      6  C   UNL     1       0.833   9.128  22.658  0.00  0.00    +0.000 C 
ATOM      7  C   UNL     1       0.692   8.720  21.190  0.00  0.00    +0.000 C 
ATOM      8  C   UNL     1       0.107   9.982  20.526  0.00  0.00    +0.000 C 
ATOM      9  H   UNL     1      -0.761  12.546  23.302  0.00  0.00    +0.000 HD
ENDROOT
BRANCH   1  11
ATOM     10  C   UNL     1      -2.581  14.440  23.703  0.00  0.00    +0.000 C 
ATOM     11  C   UNL     1      -1.898  14.047  22.406  0.00  0.00    +0.000 C 
ENDBRANCH   1  11
BRANCH   7  12
ATOM     12  O   UNL     1       1.968   8.408  20.627  0.00  0.00    +0.000 OA
BRANCH  12  13
ATOM     13  C   UNL     1       2.024   7.181  19.994  0.00  0.00    +0.000 A 
ATOM     14  C   UNL     1       2.484   7.182  18.690  0.00  0.00    +0.000 A 
ATOM     15  C   UNL     1       2.485   5.978  17.996  0.00  0.00    +0.000 A 
ATOM     16  C   UNL     1       2.030   4.811  18.628  0.00  0.00    +0.000 A 
ATOM     17  C   UNL     1       1.979   3.575  17.959  0.00  0.00    +0.000 A 
ATOM     18  C   UNL     1       1.528   2.436  18.621  0.00  0.00    +0.000 A 
ATOM     19  C   UNL     1       1.134   2.526  19.954  0.00  0.00    +0.000 A 
ATOM     20  C   UNL     1       1.183   3.759  20.613  0.00  0.00    +0.000 A 
ATOM     21  C   UNL     1       1.616   4.911  19.973  0.00  0.00    +0.000 A 
ATOM     22  N   UNL     1       1.618   6.072  20.645  0.00  0.00    +0.000 NA
ENDBRANCH  12  13
ENDBRANCH   7  12
TORSDOF 3
ENDMDL
MODEL 3
REMARK VINA RESULT:      -6.8      4.747      8.863
REMARK  Name = 
REMARK  4 active torsions:
REMARK  status: ('A' for Active; 'I' for Inactive)
REMARK    1  A    between atoms: C_1  and  C_2
REMARK    2  A    between atoms: C_2  and  N_3
REMARK    3  A    between atoms: C_9  and  O_10
REMARK    4  A    between atoms: O_10  and  C_11
REMARK                            x       y       z     vdW  Elec       q    Type
REMARK                         _______ _______ _______ _____ _____    ______ ____
ROOT
ATOM      1  N   UNL     1       1.997   4.287  19.392  0.00  0.00    +0.000 N 
ATOM      2  C   UNL     1       3.323   4.059  19.661  0.00  0.00    +0.000 C 
ATOM      3  O   UNL     1       3.709   3.129  20.363  0.00  0.00    +0.000 OA
ATOM      4  N   UNL     1       4.181   4.959  19.078  0.00  0.00    +0.000 N 
ATOM      5  C   UNL     1       3.857   6.203  18.405  0.00  0.00    +0.000 C 
ATOM      6  C   UNL     1       5.085   6.458  17.557  0.00  0.00    +0.000 C 
ATOM      7  C   UNL     1       6.236   6.013  18.463  0.00  0.00    +0.000 C 
ATOM      8  C   UNL     1       5.621   4.856  19.275  0.00  0.00    +0.000 C 
ATOM      9  H   UNL     1       1.832   4.667  18.475  0.00  0.00    +0.000 HD
ENDROOT
BRANCH   1  11
ATOM     10  C   UNL     1       0.682   2.310  18.831  0.00  0.00    +0.000 C 
ATOM     11  C   UNL     1       0.982   3.373  19.872  0.00  0.00    +0.000 C 
ENDBRANCH   1  11
BRANCH   7  12
ATOM     12  O   UNL     1       7.339   5.543  17.685  0.00  0.00    +0.000 OA
BRANCH  12  13
ATOM     13  C   UNL     1       6.987   5.042  16.446  0.00  0.00    +0.000 A 
ATOM     14  C   UNL     1       6.075   4.003  16.439  0.00  0.00    +0.000 A 
ATOM     15  C   UNL     1       5.753   3.424  15.217  0.00  0.00    +0.000 A 
ATOM     16  C   UNL     1       6.349   3.904  14.042  0.00  0.00    +0.000 A 
ATOM     17  C   UNL     1       6.083   3.331  12.785  0.00  0.00    +0.000 A 
ATOM     18  C   UNL     1       6.689   3.838  11.638  0.00  0.00    +0.000 A 
ATOM     19  C   UNL     1       7.555   4.923  11.741  0.00  0.00    +0.000 A 
ATOM     20  C   UNL     1       7.820   5.488  12.994  0.00  0.00    +0.000 A 
ATOM     21  C   UNL     1       7.240   4.992  14.153  0.00  0.00    +0.000 A 
ATOM     22  N   UNL     1       7.549   5.555  15.332  0.00  0.00    +0.000 NA
ENDBRANCH  12  13
ENDBRANCH   7  12
TORSDOF 3
ENDMDL
MODEL 4
REMARK VINA RESULT:      -6.6      1.419      1.819
REMARK  Name = 
REMARK  4 active torsions:
REMARK  status: ('A' for Active; 'I' for Inactive)
REMARK    1  A    between atoms: C_1  and  C_2
REMARK    2  A    between atoms: C_2  and  N_3
REMARK    3  A    between atoms: C_9  and  O_10
REMARK    4  A    between atoms: O_10  and  C_11
REMARK                            x       y       z     vdW  Elec       q    Type
REMARK                         _______ _______ _______ _____ _____    ______ ____
ROOT
ATOM      1  N   UNL     1       6.393   4.726  15.346  0.00  0.00    +0.000 N 
ATOM      2  C   UNL     1       5.544   5.731  15.735  0.00  0.00    +0.000 C 
ATOM      3  O   UNL     1       5.267   6.685  15.014  0.00  0.00    +0.000 OA
ATOM      4  N   UNL     1       5.029   5.578  16.999  0.00  0.00    +0.000 N 
ATOM      5  C   UNL     1       5.421   4.625  18.021  0.00  0.00    +0.000 C 
ATOM      6  C   UNL     1       4.210   4.585  18.929  0.00  0.00    +0.000 C 
ATOM      7  C   UNL     1       3.750   6.045  18.964  0.00  0.00    +0.000 C 
ATOM      8  C   UNL     1       4.116   6.565  17.561  0.00  0.00    +0.000 C 
ATOM      9  H   UNL     1       6.148   3.824  15.719  0.00  0.00    +0.000 HD
ENDROOT
BRANCH   1  11
ATOM     10  C   UNL     1       6.223   3.701  13.139  0.00  0.00    +0.000 C 
ATOM     11  C   UNL     1       6.949   4.710  14.010  0.00  0.00    +0.000 C 
ENDBRANCH   1  11
BRANCH   7  12
ATOM     12  O   UNL     1       2.338   6.124  19.172  0.00  0.00    +0.000 OA
BRANCH  12  13
ATOM     13  C   UNL     1       1.906   7.336  19.678  0.00  0.00    +0.000 A 
ATOM     14  C   UNL     1       1.605   7.367  21.027  0.00  0.00    +0.000 A 
ATOM     15  C   UNL     1       1.098   8.548  21.556  0.00  0.00    +0.000 A 
ATOM     16  C   UNL     1       0.911   9.660  20.722  0.00  0.00    +0.000 A 
ATOM     17  C   UNL     1       0.370  10.866  21.201  0.00  0.00    +0.000 A 
ATOM     18  C   UNL     1       0.206  11.953  20.345  0.00  0.00    +0.000 A 
ATOM     19  C   UNL     1       0.589  11.840  19.011  0.00  0.00    +0.000 A 
ATOM     20  C   UNL     1       1.124  10.636  18.538  0.00  0.00    +0.000 A 
ATOM     21  C   UNL     1       1.285   9.536  19.367  0.00  0.00    +0.000 A 
ATOM     22  N   UNL     1       1.778   8.397  18.855  0.00  0.00    +0.000 NA
ENDBRANCH  12  13
ENDBRANCH   7  12
TORSDOF 3
ENDMDL
MODEL 5
REMARK VINA RESULT:      -6.5      1.441      2.209
REMARK  Name = 
REMARK  4 active torsions:
REMARK  status: ('A' for Active; 'I' for Inactive)
REMARK    1  A    between atoms: C_1  and  C_2
REMARK    2  A    between atoms: C_2  and  N_3
REMARK    3  A    between atoms: C_9  and  O_10
REMARK    4  A    between atoms: O_10  and  C_11
REMARK                            x       y       z     vdW  Elec       q    Type
REMARK                         _______ _______ _______ _____ _____    ______ ____
ROOT
ATOM      1  N   UNL     1       6.567   4.637  15.397  0.00  0.00    +0.000 N 
ATOM      2  C   UNL     1       5.675   5.578  15.848  0.00  0.00    +0.000 C 
ATOM      3  O   UNL     1       5.300   6.522  15.160  0.00  0.00    +0.000 OA
ATOM      4  N   UNL     1       5.237   5.372  17.133  0.00  0.00    +0.000 N 
ATOM      5  C   UNL     1       5.742   4.430  18.115  0.00  0.00    +0.000 C 
ATOM      6  C   UNL     1       4.586   4.296  19.083  0.00  0.00    +0.000 C 
ATOM      7  C   UNL     1       4.034   5.722  19.168  0.00  0.00    +0.000 C 
ATOM      8  C   UNL     1       4.293   6.287  17.758  0.00  0.00    +0.000 C 
ATOM      9  H   UNL     1       6.400   3.715  15.765  0.00  0.00    +0.000 HD
ENDROOT
BRANCH   1  11
ATOM     10  C   UNL     1       6.255   3.736  13.151  0.00  0.00    +0.000 C 
ATOM     11  C   UNL     1       7.053   4.678  14.034  0.00  0.00    +0.000 C 
ENDBRANCH   1  11
BRANCH   7  12
ATOM     12  O   UNL     1       2.633   5.705  19.449  0.00  0.00    +0.000 OA
BRANCH  12  13
ATOM     13  C   UNL     1       2.066   6.958  19.587  0.00  0.00    +0.000 A 
ATOM     14  C   UNL     1       2.101   7.775  18.472  0.00  0.00    +0.000 A 
ATOM     15  C   UNL     1       1.607   9.069  18.594  0.00  0.00    +0.000 A 
ATOM     16  C   UNL     1       1.092   9.503  19.824  0.00  0.00    +0.000 A 
ATOM     17  C   UNL     1       0.612  10.812  20.009  0.00  0.00    +0.000 A 
ATOM     18  C   UNL     1       0.101  11.206  21.243  0.00  0.00    +0.000 A 
ATOM     19  C   UNL     1       0.061  10.292  22.294  0.00  0.00    +0.000 A 
ATOM     20  C   UNL     1       0.543   8.992  22.106  0.00  0.00    +0.000 A 
ATOM     21  C   UNL     1       1.069   8.579  20.890  0.00  0.00    +0.000 A 
ATOM     22  N   UNL     1       1.541   7.328  20.773  0.00  0.00    +0.000 NA
ENDBRANCH  12  13
ENDBRANCH   7  12
TORSDOF 3
ENDMDL
MODEL 6
REMARK VINA RESULT:      -6.5      1.851      8.405
REMARK  Name = 
REMARK  4 active torsions:
REMARK  status: ('A' for Active; 'I' for Inactive)
REMARK    1  A    between atoms: C_1  and  C_2
REMARK    2  A    between atoms: C_2  and  N_3
REMARK    3  A    between atoms: C_9  and  O_10
REMARK    4  A    between atoms: O_10  and  C_11
REMARK                            x       y       z     vdW  Elec       q    Type
REMARK                         _______ _______ _______ _____ _____    ______ ____
ROOT
ATOM      1  N   UNL     1      -0.380  11.650  20.340  0.00  0.00    +0.000 N 
ATOM      2  C   UNL     1       0.141  10.493  20.863  0.00  0.00    +0.000 C 
ATOM      3  O   UNL     1      -0.028  10.156  22.031  0.00  0.00    +0.000 OA
ATOM      4  N   UNL     1       0.866   9.745  19.968  0.00  0.00    +0.000 N 
ATOM      5  C   UNL     1       1.309  10.116  18.638  0.00  0.00    +0.000 C 
ATOM      6  C   UNL     1       1.569   8.776  17.981  0.00  0.00    +0.000 C 
ATOM      7  C   UNL     1       2.186   7.947  19.111  0.00  0.00    +0.000 C 
ATOM      8  C   UNL     1       1.489   8.492  20.372  0.00  0.00    +0.000 C 
ATOM      9  H   UNL     1      -0.641  11.573  19.372  0.00  0.00    +0.000 HD
ENDROOT
BRANCH   1  11
ATOM     10  C   UNL     1      -2.615  12.611  20.523  0.00  0.00    +0.000 C 
ATOM     11  C   UNL     1      -1.235  12.500  21.142  0.00  0.00    +0.000 C 
ENDBRANCH   1  11
BRANCH   7  12
ATOM     12  O   UNL     1       1.889   6.559  18.938  0.00  0.00    +0.000 OA
BRANCH  12  13
ATOM     13  C   UNL     1       2.801   5.877  18.155  0.00  0.00    +0.000 A 
ATOM     14  C   UNL     1       2.463   4.584  17.802  0.00  0.00    +0.000 A 
ATOM     15  C   UNL     1       3.388   3.841  17.076  0.00  0.00    +0.000 A 
ATOM     16  C   UNL     1       4.618   4.416  16.724  0.00  0.00    +0.000 A 
ATOM     17  C   UNL     1       5.600   3.697  16.021  0.00  0.00    +0.000 A 
ATOM     18  C   UNL     1       6.808   4.303  15.683  0.00  0.00    +0.000 A 
ATOM     19  C   UNL     1       7.035   5.630  16.038  0.00  0.00    +0.000 A 
ATOM     20  C   UNL     1       6.056   6.340  16.742  0.00  0.00    +0.000 A 
ATOM     21  C   UNL     1       4.850   5.756  17.102  0.00  0.00    +0.000 A 
ATOM     22  N   UNL     1       3.957   6.475  17.799  0.00  0.00    +0.000 NA
ENDBRANCH  12  13
ENDBRANCH   7  12
TORSDOF 3
ENDMDL
MODEL 7
REMARK VINA RESULT:      -6.5      2.805      4.290
REMARK  Name = 
REMARK  4 active torsions:
REMARK  status: ('A' for Active; 'I' for Inactive)
REMARK    1  A    between atoms: C_1  and  C_2
REMARK    2  A    between atoms: C_2  and  N_3
REMARK    3  A    between atoms: C_9  and  O_10
REMARK    4  A    between atoms: O_10  and  C_11
REMARK                            x       y       z     vdW  Elec       q    Type
REMARK                         _______ _______ _______ _____ _____    ______ ____
ROOT
ATOM      1  N   UNL     1       7.618   6.737  17.955  0.00  0.00    +0.000 N 
ATOM      2  C   UNL     1       6.954   5.810  18.719  0.00  0.00    +0.000 C 
ATOM      3  O   UNL     1       7.154   5.673  19.922  0.00  0.00    +0.000 OA
ATOM      4  N   UNL     1       6.046   5.050  18.023  0.00  0.00    +0.000 N 
ATOM      5  C   UNL     1       5.857   4.967  16.586  0.00  0.00    +0.000 C 
ATOM      6  C   UNL     1       4.449   4.425  16.461  0.00  0.00    +0.000 C 
ATOM      7  C   UNL     1       4.363   3.407  17.601  0.00  0.00    +0.000 C 
ATOM      8  C   UNL     1       5.266   4.018  18.690  0.00  0.00    +0.000 C 
ATOM      9  H   UNL     1       7.060   7.119  17.210  0.00  0.00    +0.000 HD
ENDROOT
BRANCH   1  11
ATOM     10  C   UNL     1       8.307   9.075  18.061  0.00  0.00    +0.000 C 
ATOM     11  C   UNL     1       8.546   7.665  18.567  0.00  0.00    +0.000 C 
ENDBRANCH   1  11
BRANCH   7  12
ATOM     12  O   UNL     1       3.019   3.292  18.075  0.00  0.00    +0.000 OA
BRANCH  12  13
ATOM     13  C   UNL     1       2.599   4.353  18.854  0.00  0.00    +0.000 A 
ATOM     14  C   UNL     1       2.169   4.047  20.132  0.00  0.00    +0.000 A 
ATOM     15  C   UNL     1       1.670   5.078  20.919  0.00  0.00    +0.000 A 
ATOM     16  C   UNL     1       1.620   6.383  20.405  0.00  0.00    +0.000 A 
ATOM     17  C   UNL     1       1.094   7.454  21.148  0.00  0.00    +0.000 A 
ATOM     18  C   UNL     1       1.067   8.738  20.608  0.00  0.00    +0.000 A 
ATOM     19  C   UNL     1       1.572   8.957  19.329  0.00  0.00    +0.000 A 
ATOM     20  C   UNL     1       2.092   7.886  18.592  0.00  0.00    +0.000 A 
ATOM     21  C   UNL     1       2.118   6.596  19.102  0.00  0.00    +0.000 A 
ATOM     22  N   UNL     1       2.604   5.602  18.343  0.00  0.00    +0.000 NA
ENDBRANCH  12  13
ENDBRANCH   7  12
TORSDOF 3
ENDMDL
MODEL 8
REMARK VINA RESULT:      -6.4      1.939      2.426
REMARK  Name = 
REMARK  4 active torsions:
REMARK  status: ('A' for Active; 'I' for Inactive)
REMARK    1  A    between atoms: C_1  and  C_2
REMARK    2  A    between atoms: C_2  and  N_3
REMARK    3  A    between atoms: C_9  and  O_10
REMARK    4  A    between atoms: O_10  and  C_11
REMARK                            x       y       z     vdW  Elec       q    Type
REMARK                         _______ _______ _______ _____ _____    ______ ____
ROOT
ATOM      1  N   UNL     1       5.562   4.488  16.212  0.00  0.00    +0.000 N 
ATOM      2  C   UNL     1       5.317   5.829  16.369  0.00  0.00    +0.000 C 
ATOM      3  O   UNL     1       6.000   6.697  15.835  0.00  0.00    +0.000 OA
ATOM      4  N   UNL     1       4.240   6.117  17.172  0.00  0.00    +0.000 N 
ATOM      5  C   UNL     1       3.481   5.213  18.016  0.00  0.00    +0.000 C 
ATOM      6  C   UNL     1       2.174   5.951  18.214  0.00  0.00    +0.000 C 
ATOM      7  C   UNL     1       2.614   7.411  18.352  0.00  0.00    +0.000 C 
ATOM      8  C   UNL     1       3.854   7.495  17.442  0.00  0.00    +0.000 C 
ATOM      9  H   UNL     1       4.729   3.923  16.215  0.00  0.00    +0.000 HD
ENDROOT
BRANCH   1  11
ATOM     10  C   UNL     1       6.097   3.887  13.910  0.00  0.00    +0.000 C 
ATOM     11  C   UNL     1       6.614   4.031  15.329  0.00  0.00    +0.000 C 
ENDBRANCH   1  11
BRANCH   7  12
ATOM     12  O   UNL     1       1.591   8.293  17.884  0.00  0.00    +0.000 OA
BRANCH  12  13
ATOM     13  C   UNL     1       1.513   9.488  18.573  0.00  0.00    +0.000 A 
ATOM     14  C   UNL     1       0.891   9.447  19.807  0.00  0.00    +0.000 A 
ATOM     15  C   UNL     1       0.728  10.642  20.497  0.00  0.00    +0.000 A 
ATOM     16  C   UNL     1       1.194  11.839  19.934  0.00  0.00    +0.000 A 
ATOM     17  C   UNL     1       1.024  13.079  20.575  0.00  0.00    +0.000 A 
ATOM     18  C   UNL     1       1.505  14.247  19.988  0.00  0.00    +0.000 A 
ATOM     19  C   UNL     1       2.166  14.179  18.764  0.00  0.00    +0.000 A 
ATOM     20  C   UNL     1       2.330  12.943  18.128  0.00  0.00    +0.000 A 
ATOM     21  C   UNL     1       1.847  11.768  18.685  0.00  0.00    +0.000 A 
ATOM     22  N   UNL     1       2.009  10.614  18.019  0.00  0.00    +0.000 NA
ENDBRANCH  12  13
ENDBRANCH   7  12
TORSDOF 3
ENDMDL
MODEL 9
REMARK VINA RESULT:      -6.4      1.853      8.678
REMARK  Name = 
REMARK  4 active torsions:
REMARK  status: ('A' for Active; 'I' for Inactive)
REMARK    1  A    between atoms: C_1  and  C_2
REMARK    2  A    between atoms: C_2  and  N_3
REMARK    3  A    between atoms: C_9  and  O_10
REMARK    4  A    between atoms: O_10  and  C_11
REMARK                            x       y       z     vdW  Elec       q    Type
REMARK                         _______ _______ _______ _____ _____    ______ ____
ROOT
ATOM      1  N   UNL     1       1.411   8.641  19.356  0.00  0.00    +0.000 N 
ATOM      2  C   UNL     1       2.272   8.118  18.425  0.00  0.00    +0.000 C 
ATOM      3  O   UNL     1       2.646   8.745  17.438  0.00  0.00    +0.000 OA
ATOM      4  N   UNL     1       2.682   6.835  18.691  0.00  0.00    +0.000 N 
ATOM      5  C   UNL     1       2.171   5.918  19.693  0.00  0.00    +0.000 C 
ATOM      6  C   UNL     1       3.305   4.929  19.857  0.00  0.00    +0.000 C 
ATOM      7  C   UNL     1       3.826   4.753  18.429  0.00  0.00    +0.000 C 
ATOM      8  C   UNL     1       3.592   6.137  17.793  0.00  0.00    +0.000 C 
ATOM      9  H   UNL     1       1.586   8.319  20.293  0.00  0.00    +0.000 HD
ENDROOT
BRANCH   1  11
ATOM     10  C   UNL     1       0.231  10.435  20.513  0.00  0.00    +0.000 C 
ATOM     11  C   UNL     1       0.959  10.012  19.251  0.00  0.00    +0.000 C 
ENDBRANCH   1  11
BRANCH   7  12
ATOM     12  O   UNL     1       5.220   4.437  18.435  0.00  0.00    +0.000 OA
BRANCH  12  13
ATOM     13  C   UNL     1       5.832   4.542  17.200  0.00  0.00    +0.000 A 
ATOM     14  C   UNL     1       6.925   5.385  17.124  0.00  0.00    +0.000 A 
ATOM     15  C   UNL     1       7.521   5.573  15.883  0.00  0.00    +0.000 A 
ATOM     16  C   UNL     1       7.007   4.911  14.758  0.00  0.00    +0.000 A 
ATOM     17  C   UNL     1       7.552   5.093  13.474  0.00  0.00    +0.000 A 
ATOM     18  C   UNL     1       7.020   4.413  12.381  0.00  0.00    +0.000 A 
ATOM     19  C   UNL     1       5.949   3.544  12.568  0.00  0.00    +0.000 A 
ATOM     20  C   UNL     1       5.407   3.368  13.847  0.00  0.00    +0.000 A 
ATOM     21  C   UNL     1       5.911   4.044  14.949  0.00  0.00    +0.000 A 
ATOM     22  N   UNL     1       5.337   3.858  16.148  0.00  0.00    +0.000 NA
ENDBRANCH  12  13
ENDBRANCH   7  12
TORSDOF 3
ENDMDL
