MODEL 1
REMARK VINA RESULT:      -8.4      0.000      0.000
REMARK  Name = 
REMARK  5 active torsions:
REMARK  status: ('A' for Active; 'I' for Inactive)
REMARK    1  A    between atoms: O_1  and  C_2
REMARK    2  A    between atoms: C_5  and  C_6
REMARK    3  A    between atoms: C_12  and  C_13
REMARK    4  A    between atoms: N_15  and  C_16
REMARK    5  A    between atoms: C_19  and  C_20
REMARK                            x       y       z     vdW  Elec       q    Type
REMARK                         _______ _______ _______ _____ _____    ______ ____
ROOT
ATOM      1  C   UNL     1       7.143   6.865  17.697  0.00  0.00    +0.000 A 
ATOM      2  C   UNL     1       7.261   8.188  17.358  0.00  0.00    +0.000 A 
ATOM      3  N   UNL     1       8.199   8.697  18.216  0.00  0.00    +0.000 N 
ATOM      4  N   UNL     1       8.674   7.703  19.009  0.00  0.00    +0.000 NA
ATOM      5  N   UNL     1       8.030   6.582  18.701  0.00  0.00    +0.000 NA
ENDROOT
BRANCH   1  11
ATOM      6  C   UNL     1       6.605   5.287  15.815  0.00  0.00    +0.000 A 
ATOM      7  C   UNL     1       5.779   4.303  15.269  0.00  0.00    +0.000 A 
ATOM      8  C   UNL     1       4.625   3.913  15.946  0.00  0.00    +0.000 A 
ATOM      9  C   UNL     1       4.285   4.511  17.164  0.00  0.00    +0.000 A 
ATOM     10  C   UNL     1       5.117   5.493  17.711  0.00  0.00    +0.000 A 
ATOM     11  C   UNL     1       6.291   5.886  17.049  0.00  0.00    +0.000 A 
BRANCH   9  12
ATOM     12  C   UNL     1       3.065   4.067  17.883  0.00  0.00    +0.000 C 
ATOM     13  N   UNL     1       2.308   3.111  17.408  0.00  0.00    +0.000 NA
ATOM     14  C   UNL     1       1.182   2.992  18.370  0.00  0.00    +0.000 C 
ATOM     15  C   UNL     1       1.418   4.021  19.475  0.00  0.00    +0.000 C 
ATOM     16  N   UNL     1       2.669   4.618  19.077  0.00  0.00    +0.000 N 
ATOM     17  H   UNL     1       2.744   5.624  19.171  0.00  0.00    +0.000 HD
ENDBRANCH   9  12
BRANCH   6  18
ATOM     18  O   UNL     1       7.726   5.657  15.122  0.00  0.00    +0.000 OA
ATOM     19  H   UNL     1       8.508   5.541  15.687  0.00  0.00    +0.000 HD
ENDBRANCH   6  18
ENDBRANCH   1  11
BRANCH   3  20
ATOM     20  C   UNL     1       8.646  10.037  18.321  0.00  0.00    +0.000 A 
ATOM     21  C   UNL     1       9.653  10.381  19.234  0.00  0.00    +0.000 A 
ATOM     22  C   UNL     1      10.122  11.691  19.297  0.00  0.00    +0.000 A 
ATOM     23  C   UNL     1       9.592  12.669  18.451  0.00  0.00    +0.000 A 
ATOM     24  C   UNL     1       8.573  12.332  17.553  0.00  0.00    +0.000 A 
ATOM     25  C   UNL     1       8.098  11.019  17.487  0.00  0.00    +0.000 A 
BRANCH  23  26
ATOM     26  C   UNL     1      10.167  14.035  18.475  0.00  0.00    +0.000 C 
ATOM     27  N   UNL     1      11.006  14.405  19.410  0.00  0.00    +0.000 NA
ATOM     28  C   UNL     1      11.340  15.818  19.098  0.00  0.00    +0.000 C 
ATOM     29  C   UNL     1      10.551  16.203  17.846  0.00  0.00    +0.000 C 
ATOM     30  N   UNL     1       9.862  14.977  17.523  0.00  0.00    +0.000 N 
ATOM     31  H   UNL     1       8.886  15.062  17.269  0.00  0.00    +0.000 HD
ENDBRANCH  23  26
ENDBRANCH   3  20
TORSDOF 5
ENDMDL
MODEL 2
REMARK VINA RESULT:      -8.3      0.355      1.200
REMARK  Name = 
REMARK  5 active torsions:
REMARK  status: ('A' for Active; 'I' for Inactive)
REMARK    1  A    between atoms: O_1  and  C_2
REMARK    2  A    between atoms: C_5  and  C_6
REMARK    3  A    between atoms: C_12  and  C_13
REMARK    4  A    between atoms: N_15  and  C_16
REMARK    5  A    between atoms: C_19  and  C_20
REMARK                            x       y       z     vdW  Elec       q    Type
REMARK                         _______ _______ _______ _____ _____    ______ ____
ROOT
ATOM      1  C   UNL     1       7.150   6.813  17.700  0.00  0.00    +0.000 A 
ATOM      2  C   UNL     1       7.284   8.128  17.335  0.00  0.00    +0.000 A 
ATOM      3  N   UNL     1       8.198   8.653  18.209  0.00  0.00    +0.000 N 
ATOM      4  N   UNL     1       8.645   7.676  19.037  0.00  0.00    +0.000 NA
ATOM      5  N   UNL     1       8.007   6.551  18.737  0.00  0.00    +0.000 NA
ENDROOT
BRANCH   1  11
ATOM      6  C   UNL     1       6.632   5.238  15.811  0.00  0.00    +0.000 A 
ATOM      7  C   UNL     1       5.823   4.243  15.261  0.00  0.00    +0.000 A 
ATOM      8  C   UNL     1       4.681   3.824  15.942  0.00  0.00    +0.000 A 
ATOM      9  C   UNL     1       4.337   4.407  17.166  0.00  0.00    +0.000 A 
ATOM     10  C   UNL     1       5.152   5.401  17.716  0.00  0.00    +0.000 A 
ATOM     11  C   UNL     1       6.314   5.822  17.050  0.00  0.00    +0.000 A 
BRANCH   9  12
ATOM     12  C   UNL     1       3.130   3.933  17.890  0.00  0.00    +0.000 C 
ATOM     13  N   UNL     1       2.458   4.730  18.681  0.00  0.00    +0.000 NA
ATOM     14  C   UNL     1       1.368   3.891  19.245  0.00  0.00    +0.000 C 
ATOM     15  C   UNL     1       1.516   2.492  18.645  0.00  0.00    +0.000 C 
ATOM     16  N   UNL     1       2.649   2.653  17.766  0.00  0.00    +0.000 N 
ATOM     17  H   UNL     1       3.328   1.902  17.757  0.00  0.00    +0.000 HD
ENDBRANCH   9  12
BRANCH   6  18
ATOM     18  O   UNL     1       7.742   5.635  15.113  0.00  0.00    +0.000 OA
ATOM     19  H   UNL     1       7.535   5.658  14.164  0.00  0.00    +0.000 HD
ENDBRANCH   6  18
ENDBRANCH   1  11
BRANCH   3  20
ATOM     20  C   UNL     1       8.647   9.993  18.296  0.00  0.00    +0.000 A 
ATOM     21  C   UNL     1       8.111  10.979  17.454  0.00  0.00    +0.000 A 
ATOM     22  C   UNL     1       8.522  12.304  17.579  0.00  0.00    +0.000 A 
ATOM     23  C   UNL     1       9.469  12.658  18.543  0.00  0.00    +0.000 A 
ATOM     24  C   UNL     1      10.020  11.673  19.371  0.00  0.00    +0.000 A 
ATOM     25  C   UNL     1       9.611  10.342  19.248  0.00  0.00    +0.000 A 
BRANCH  23  26
ATOM     26  C   UNL     1       9.826  14.086  18.716  0.00  0.00    +0.000 C 
ATOM     27  N   UNL     1      10.344  14.528  19.836  0.00  0.00    +0.000 NA
ATOM     28  C   UNL     1      10.549  15.984  19.624  0.00  0.00    +0.000 C 
ATOM     29  C   UNL     1      10.055  16.308  18.214  0.00  0.00    +0.000 C 
ATOM     30  N   UNL     1       9.644  15.015  17.721  0.00  0.00    +0.000 N 
ATOM     31  H   UNL     1       8.761  14.981  17.228  0.00  0.00    +0.000 HD
ENDBRANCH  23  26
ENDBRANCH   3  20
TORSDOF 5
ENDMDL
MODEL 3
REMARK VINA RESULT:      -8.2      6.492      9.029
REMARK  Name = 
REMARK  5 active torsions:
REMARK  status: ('A' for Active; 'I' for Inactive)
REMARK    1  A    between atoms: O_1  and  C_2
REMARK    2  A    between atoms: C_5  and  C_6
REMARK    3  A    between atoms: C_12  and  C_13
REMARK    4  A    between atoms: N_15  and  C_16
REMARK    5  A    between atoms: C_19  and  C_20
REMARK                            x       y       z     vdW  Elec       q    Type
REMARK                         _______ _______ _______ _____ _____    ______ ____
ROOT
ATOM      1  C   UNL     1       2.268   7.500  19.294  0.00  0.00    +0.000 A 
ATOM      2  C   UNL     1       1.550   7.873  20.400  0.00  0.00    +0.000 A 
ATOM      3  N   UNL     1       1.016   9.094  20.087  0.00  0.00    +0.000 N 
ATOM      4  N   UNL     1       1.352   9.422  18.814  0.00  0.00    +0.000 NA
ATOM      5  N   UNL     1       2.120   8.456  18.324  0.00  0.00    +0.000 NA
ENDROOT
BRANCH   1  11
ATOM      6  C   UNL     1       2.932   5.192  20.039  0.00  0.00    +0.000 A 
ATOM      7  C   UNL     1       3.604   3.995  19.792  0.00  0.00    +0.000 A 
ATOM      8  C   UNL     1       4.356   3.850  18.626  0.00  0.00    +0.000 A 
ATOM      9  C   UNL     1       4.448   4.904  17.712  0.00  0.00    +0.000 A 
ATOM     10  C   UNL     1       3.769   6.102  17.961  0.00  0.00    +0.000 A 
ATOM     11  C   UNL     1       2.996   6.257  19.121  0.00  0.00    +0.000 A 
BRANCH   9  12
ATOM     12  C   UNL     1       5.233   4.725  16.465  0.00  0.00    +0.000 C 
ATOM     13  N   UNL     1       5.521   5.742  15.693  0.00  0.00    +0.000 NA
ATOM     14  C   UNL     1       6.262   5.161  14.543  0.00  0.00    +0.000 C 
ATOM     15  C   UNL     1       6.362   3.654  14.782  0.00  0.00    +0.000 C 
ATOM     16  N   UNL     1       5.706   3.502  16.058  0.00  0.00    +0.000 N 
ATOM     17  H   UNL     1       5.083   2.709  16.158  0.00  0.00    +0.000 HD
ENDBRANCH   9  12
BRANCH   6  18
ATOM     18  O   UNL     1       2.210   5.308  21.198  0.00  0.00    +0.000 OA
ATOM     19  H   UNL     1       1.322   5.644  20.992  0.00  0.00    +0.000 HD
ENDBRANCH   6  18
ENDBRANCH   1  11
BRANCH   3  20
ATOM     20  C   UNL     1       0.234   9.939  20.913  0.00  0.00    +0.000 A 
ATOM     21  C   UNL     1      -0.311  11.126  20.402  0.00  0.00    +0.000 A 
ATOM     22  C   UNL     1      -1.119  11.927  21.206  0.00  0.00    +0.000 A 
ATOM     23  C   UNL     1      -1.392  11.552  22.524  0.00  0.00    +0.000 A 
ATOM     24  C   UNL     1      -0.833  10.377  23.042  0.00  0.00    +0.000 A 
ATOM     25  C   UNL     1      -0.021   9.572  22.239  0.00  0.00    +0.000 A 
BRANCH  23  26
ATOM     26  C   UNL     1      -2.324  12.373  23.332  0.00  0.00    +0.000 C 
ATOM     27  N   UNL     1      -2.063  13.627  23.609  0.00  0.00    +0.000 NA
ATOM     28  C   UNL     1      -3.210  14.092  24.429  0.00  0.00    +0.000 C 
ATOM     29  C   UNL     1      -4.161  12.906  24.591  0.00  0.00    +0.000 C 
ATOM     30  N   UNL     1      -3.505  11.874  23.824  0.00  0.00    +0.000 N 
ATOM     31  H   UNL     1      -3.466  10.955  24.246  0.00  0.00    +0.000 HD
ENDBRANCH  23  26
ENDBRANCH   3  20
TORSDOF 5
ENDMDL
MODEL 4
REMARK VINA RESULT:      -8.1      6.341      8.824
REMARK  Name = 
REMARK  5 active torsions:
REMARK  status: ('A' for Active; 'I' for Inactive)
REMARK    1  A    between atoms: O_1  and  C_2
REMARK    2  A    between atoms: C_5  and  C_6
REMARK    3  A    between atoms: C_12  and  C_13
REMARK    4  A    between atoms: N_15  and  C_16
REMARK    5  A    between atoms: C_19  and  C_20
REMARK                            x       y       z     vdW  Elec       q    Type
REMARK                         _______ _______ _______ _____ _____    ______ ____
ROOT
ATOM      1  C   UNL     1       2.439   7.490  18.937  0.00  0.00    +0.000 A 
ATOM      2  C   UNL     1       1.827   7.897  20.095  0.00  0.00    +0.000 A 
ATOM      3  N   UNL     1       1.153   9.041  19.762  0.00  0.00    +0.000 N 
ATOM      4  N   UNL     1       1.304   9.286  18.435  0.00  0.00    +0.000 NA
ATOM      5  N   UNL     1       2.092   8.346  17.926  0.00  0.00    +0.000 NA
ENDROOT
BRANCH   1  11
ATOM      6  C   UNL     1       3.294   5.256  19.711  0.00  0.00    +0.000 A 
ATOM      7  C   UNL     1       4.043   4.104  19.467  0.00  0.00    +0.000 A 
ATOM      8  C   UNL     1       4.763   3.985  18.279  0.00  0.00    +0.000 A 
ATOM      9  C   UNL     1       4.748   5.019  17.338  0.00  0.00    +0.000 A 
ATOM     10  C   UNL     1       3.992   6.171  17.584  0.00  0.00    +0.000 A 
ATOM     11  C   UNL     1       3.250   6.299  18.768  0.00  0.00    +0.000 A 
BRANCH   9  12
ATOM     12  C   UNL     1       5.501   4.866  16.069  0.00  0.00    +0.000 C 
ATOM     13  N   UNL     1       5.127   4.005  15.157  0.00  0.00    +0.000 NA
ATOM     14  C   UNL     1       6.142   4.114  14.077  0.00  0.00    +0.000 C 
ATOM     15  C   UNL     1       7.151   5.178  14.509  0.00  0.00    +0.000 C 
ATOM     16  N   UNL     1       6.615   5.614  15.776  0.00  0.00    +0.000 N 
ATOM     17  H   UNL     1       7.281   5.766  16.523  0.00  0.00    +0.000 HD
ENDBRANCH   9  12
BRANCH   6  18
ATOM     18  O   UNL     1       2.605   5.349  20.891  0.00  0.00    +0.000 OA
ATOM     19  H   UNL     1       3.192   5.704  21.579  0.00  0.00    +0.000 HD
ENDBRANCH   6  18
ENDBRANCH   1  11
BRANCH   3  20
ATOM     20  C   UNL     1       0.403   9.888  20.614  0.00  0.00    +0.000 A 
ATOM     21  C   UNL     1      -0.182  11.061  20.116  0.00  0.00    +0.000 A 
ATOM     22  C   UNL     1      -0.959  11.863  20.948  0.00  0.00    +0.000 A 
ATOM     23  C   UNL     1      -1.160  11.504  22.283  0.00  0.00    +0.000 A 
ATOM     24  C   UNL     1      -0.560  10.344  22.788  0.00  0.00    +0.000 A 
ATOM     25  C   UNL     1       0.221   9.537  21.957  0.00  0.00    +0.000 A 
BRANCH  23  26
ATOM     26  C   UNL     1      -2.061  12.325  23.126  0.00  0.00    +0.000 C 
ATOM     27  N   UNL     1      -3.205  11.855  23.559  0.00  0.00    +0.000 NA
ATOM     28  C   UNL     1      -3.808  12.960  24.347  0.00  0.00    +0.000 C 
ATOM     29  C   UNL     1      -2.838  14.140  24.285  0.00  0.00    +0.000 C 
ATOM     30  N   UNL     1      -1.748  13.607  23.504  0.00  0.00    +0.000 N 
ATOM     31  H   UNL     1      -1.372  14.211  22.784  0.00  0.00    +0.000 HD
ENDBRANCH  23  26
ENDBRANCH   3  20
TORSDOF 5
ENDMDL
MODEL 5
REMARK VINA RESULT:      -8.1      2.235      3.487
REMARK  Name = 
REMARK  5 active torsions:
REMARK  status: ('A' for Active; 'I' for Inactive)
REMARK    1  A    between atoms: O_1  and  C_2
REMARK    2  A    between atoms: C_5  and  C_6
REMARK    3  A    between atoms: C_12  and  C_13
REMARK    4  A    between atoms: N_15  and  C_16
REMARK    5  A    between atoms: C_19  and  C_20
REMARK                            x       y       z     vdW  Elec       q    Type
REMARK                         _______ _______ _______ _____ _____    ______ ____
ROOT
ATOM      1  C   UNL     1       7.513   7.090  17.922  0.00  0.00    +0.000 A 
ATOM      2  C   UNL     1       7.616   8.362  17.423  0.00  0.00    +0.000 A 
ATOM      3  N   UNL     1       8.454   9.020  18.282  0.00  0.00    +0.000 N 
ATOM      4  N   UNL     1       8.890   8.159  19.237  0.00  0.00    +0.000 NA
ATOM      5  N   UNL     1       8.316   6.980  19.027  0.00  0.00    +0.000 NA
ENDROOT
BRANCH   1  11
ATOM      6  C   UNL     1       5.748   5.303  18.033  0.00  0.00    +0.000 A 
ATOM      7  C   UNL     1       5.010   4.300  17.403  0.00  0.00    +0.000 A 
ATOM      8  C   UNL     1       5.277   3.974  16.074  0.00  0.00    +0.000 A 
ATOM      9  C   UNL     1       6.290   4.639  15.375  0.00  0.00    +0.000 A 
ATOM     10  C   UNL     1       7.026   5.646  16.009  0.00  0.00    +0.000 A 
ATOM     11  C   UNL     1       6.758   5.996  17.341  0.00  0.00    +0.000 A 
BRANCH   9  12
ATOM     12  C   UNL     1       6.546   4.296  13.954  0.00  0.00    +0.000 C 
ATOM     13  N   UNL     1       7.330   5.032  13.209  0.00  0.00    +0.000 NA
ATOM     14  C   UNL     1       7.295   4.402  11.864  0.00  0.00    +0.000 C 
ATOM     15  C   UNL     1       6.376   3.184  11.957  0.00  0.00    +0.000 C 
ATOM     16  N   UNL     1       5.990   3.196  13.348  0.00  0.00    +0.000 N 
ATOM     17  H   UNL     1       5.019   2.995  13.552  0.00  0.00    +0.000 HD
ENDBRANCH   9  12
BRANCH   6  18
ATOM     18  O   UNL     1       5.470   5.593  19.342  0.00  0.00    +0.000 OA
ATOM     19  H   UNL     1       5.506   6.555  19.474  0.00  0.00    +0.000 HD
ENDBRANCH   6  18
ENDBRANCH   1  11
BRANCH   3  20
ATOM     20  C   UNL     1       8.843  10.381  18.246  0.00  0.00    +0.000 A 
ATOM     21  C   UNL     1      10.037  10.796  18.854  0.00  0.00    +0.000 A 
ATOM     22  C   UNL     1      10.438  12.128  18.772  0.00  0.00    +0.000 A 
ATOM     23  C   UNL     1       9.653  13.056  18.084  0.00  0.00    +0.000 A 
ATOM     24  C   UNL     1       8.451  12.649  17.493  0.00  0.00    +0.000 A 
ATOM     25  C   UNL     1       8.045  11.314  17.574  0.00  0.00    +0.000 A 
BRANCH  23  26
ATOM     26  C   UNL     1      10.142  14.448  17.935  0.00  0.00    +0.000 C 
ATOM     27  N   UNL     1      10.161  15.275  18.950  0.00  0.00    +0.000 NA
ATOM     28  C   UNL     1      10.699  16.548  18.406  0.00  0.00    +0.000 C 
ATOM     29  C   UNL     1      10.972  16.324  16.919  0.00  0.00    +0.000 C 
ATOM     30  N   UNL     1      10.606  14.940  16.740  0.00  0.00    +0.000 N 
ATOM     31  H   UNL     1      10.056  14.721  15.918  0.00  0.00    +0.000 HD
ENDBRANCH  23  26
ENDBRANCH   3  20
TORSDOF 5
ENDMDL
MODEL 6
REMARK VINA RESULT:      -8.0      6.161      7.995
REMARK  Name = 
REMARK  5 active torsions:
REMARK  status: ('A' for Active; 'I' for Inactive)
REMARK    1  A    between atoms: O_1  and  C_2
REMARK    2  A    between atoms: C_5  and  C_6
REMARK    3  A    between atoms: C_12  and  C_13
REMARK    4  A    between atoms: N_15  and  C_16
REMARK    5  A    between atoms: C_19  and  C_20
REMARK                            x       y       z     vdW  Elec       q    Type
REMARK                         _______ _______ _______ _____ _____    ______ ____
ROOT
ATOM      1  C   UNL     1       4.063   5.864  18.129  0.00  0.00    +0.000 A 
ATOM      2  C   UNL     1       3.843   7.053  18.776  0.00  0.00    +0.000 A 
ATOM      3  N   UNL     1       2.517   7.038  19.114  0.00  0.00    +0.000 N 
ATOM      4  N   UNL     1       1.966   5.857  18.735  0.00  0.00    +0.000 NA
ATOM      5  N   UNL     1       2.903   5.137  18.129  0.00  0.00    +0.000 NA
ENDROOT
BRANCH   1  11
ATOM      6  C   UNL     1       6.441   5.100  18.418  0.00  0.00    +0.000 A 
ATOM      7  C   UNL     1       7.616   4.590  17.865  0.00  0.00    +0.000 A 
ATOM      8  C   UNL     1       7.699   4.376  16.490  0.00  0.00    +0.000 A 
ATOM      9  C   UNL     1       6.614   4.681  15.662  0.00  0.00    +0.000 A 
ATOM     10  C   UNL     1       5.436   5.188  16.220  0.00  0.00    +0.000 A 
ATOM     11  C   UNL     1       5.331   5.394  17.604  0.00  0.00    +0.000 A 
BRANCH   9  12
ATOM     12  C   UNL     1       6.711   4.425  14.203  0.00  0.00    +0.000 C 
ATOM     13  N   UNL     1       7.436   5.190  13.427  0.00  0.00    +0.000 NA
ATOM     14  C   UNL     1       7.242   4.649  12.056  0.00  0.00    +0.000 C 
ATOM     15  C   UNL     1       6.301   3.450  12.170  0.00  0.00    +0.000 C 
ATOM     16  N   UNL     1       6.062   3.380  13.592  0.00  0.00    +0.000 N 
ATOM     17  H   UNL     1       5.112   3.190  13.884  0.00  0.00    +0.000 HD
ENDBRANCH   9  12
BRANCH   6  18
ATOM     18  O   UNL     1       6.393   5.310  19.770  0.00  0.00    +0.000 OA
ATOM     19  H   UNL     1       7.112   5.910  20.029  0.00  0.00    +0.000 HD
ENDBRANCH   6  18
ENDBRANCH   1  11
BRANCH   3  20
ATOM     20  C   UNL     1       1.770   8.059  19.751  0.00  0.00    +0.000 A 
ATOM     21  C   UNL     1       1.407   9.218  19.049  0.00  0.00    +0.000 A 
ATOM     22  C   UNL     1       0.632  10.196  19.668  0.00  0.00    +0.000 A 
ATOM     23  C   UNL     1       0.211  10.028  20.989  0.00  0.00    +0.000 A 
ATOM     24  C   UNL     1       0.589   8.881  21.698  0.00  0.00    +0.000 A 
ATOM     25  C   UNL     1       1.368   7.898  21.082  0.00  0.00    +0.000 A 
BRANCH  23  26
ATOM     26  C   UNL     1      -0.686  11.039  21.598  0.00  0.00    +0.000 C 
ATOM     27  N   UNL     1      -0.634  11.313  22.878  0.00  0.00    +0.000 NA
ATOM     28  C   UNL     1      -1.674  12.350  23.098  0.00  0.00    +0.000 C 
ATOM     29  C   UNL     1      -2.339  12.616  21.746  0.00  0.00    +0.000 C 
ATOM     30  N   UNL     1      -1.606  11.744  20.861  0.00  0.00    +0.000 N 
ATOM     31  H   UNL     1      -2.154  11.212  20.196  0.00  0.00    +0.000 HD
ENDBRANCH  23  26
ENDBRANCH   3  20
TORSDOF 5
ENDMDL
MODEL 7
REMARK VINA RESULT:      -8.0      6.104      8.028
REMARK  Name = 
REMARK  5 active torsions:
REMARK  status: ('A' for Active; 'I' for Inactive)
REMARK    1  A    between atoms: O_1  and  C_2
REMARK    2  A    between atoms: C_5  and  C_6
REMARK    3  A    between atoms: C_12  and  C_13
REMARK    4  A    between atoms: N_15  and  C_16
REMARK    5  A    between atoms: C_19  and  C_20
REMARK                            x       y       z     vdW  Elec       q    Type
REMARK                         _______ _______ _______ _____ _____    ______ ____
ROOT
ATOM      1  C   UNL     1       4.192   5.953  18.365  0.00  0.00    +0.000 A 
ATOM      2  C   UNL     1       3.697   7.229  18.287  0.00  0.00    +0.000 A 
ATOM      3  N   UNL     1       2.549   7.216  19.032  0.00  0.00    +0.000 N 
ATOM      4  N   UNL     1       2.385   5.990  19.590  0.00  0.00    +0.000 NA
ATOM      5  N   UNL     1       3.381   5.212  19.183  0.00  0.00    +0.000 NA
ENDROOT
BRANCH   1  11
ATOM      6  C   UNL     1       6.573   5.158  18.510  0.00  0.00    +0.000 A 
ATOM      7  C   UNL     1       7.707   4.637  17.887  0.00  0.00    +0.000 A 
ATOM      8  C   UNL     1       7.706   4.429  16.508  0.00  0.00    +0.000 A 
ATOM      9  C   UNL     1       6.578   4.751  15.747  0.00  0.00    +0.000 A 
ATOM     10  C   UNL     1       5.441   5.269  16.376  0.00  0.00    +0.000 A 
ATOM     11  C   UNL     1       5.421   5.470  17.764  0.00  0.00    +0.000 A 
BRANCH   9  12
ATOM     12  C   UNL     1       6.585   4.501  14.284  0.00  0.00    +0.000 C 
ATOM     13  N   UNL     1       5.764   3.639  13.739  0.00  0.00    +0.000 NA
ATOM     14  C   UNL     1       6.104   3.637  12.293  0.00  0.00    +0.000 C 
ATOM     15  C   UNL     1       7.242   4.639  12.093  0.00  0.00    +0.000 C 
ATOM     16  N   UNL     1       7.435   5.155  13.426  0.00  0.00    +0.000 N 
ATOM     17  H   UNL     1       8.392   5.283  13.731  0.00  0.00    +0.000 HD
ENDBRANCH   9  12
BRANCH   6  18
ATOM     18  O   UNL     1       6.608   5.362  19.864  0.00  0.00    +0.000 OA
ATOM     19  H   UNL     1       6.396   6.291  20.055  0.00  0.00    +0.000 HD
ENDBRANCH   6  18
ENDBRANCH   1  11
BRANCH   3  20
ATOM     20  C   UNL     1       1.627   8.274  19.228  0.00  0.00    +0.000 A 
ATOM     21  C   UNL     1       1.161   9.022  18.137  0.00  0.00    +0.000 A 
ATOM     22  C   UNL     1       0.218  10.029  18.332  0.00  0.00    +0.000 A 
ATOM     23  C   UNL     1      -0.269  10.298  19.614  0.00  0.00    +0.000 A 
ATOM     24  C   UNL     1       0.211   9.566  20.706  0.00  0.00    +0.000 A 
ATOM     25  C   UNL     1       1.157   8.556  20.516  0.00  0.00    +0.000 A 
BRANCH  23  26
ATOM     26  C   UNL     1      -1.335  11.312  19.785  0.00  0.00    +0.000 C 
ATOM     27  N   UNL     1      -1.345  12.124  20.814  0.00  0.00    +0.000 NA
ATOM     28  C   UNL     1      -2.554  12.968  20.634  0.00  0.00    +0.000 C 
ATOM     29  C   UNL     1      -3.241  12.504  19.350  0.00  0.00    +0.000 C 
ATOM     30  N   UNL     1      -2.358  11.464  18.880  0.00  0.00    +0.000 N 
ATOM     31  H   UNL     1      -2.797  10.614  18.550  0.00  0.00    +0.000 HD
ENDBRANCH  23  26
ENDBRANCH   3  20
TORSDOF 5
ENDMDL
MODEL 8
REMARK VINA RESULT:      -8.0      6.324      8.725
REMARK  Name = 
REMARK  5 active torsions:
REMARK  status: ('A' for Active; 'I' for Inactive)
REMARK    1  A    between atoms: O_1  and  C_2
REMARK    2  A    between atoms: C_5  and  C_6
REMARK    3  A    between atoms: C_12  and  C_13
REMARK    4  A    between atoms: N_15  and  C_16
REMARK    5  A    between atoms: C_19  and  C_20
REMARK                            x       y       z     vdW  Elec       q    Type
REMARK                         _______ _______ _______ _____ _____    ______ ____
ROOT
ATOM      1  C   UNL     1       2.569   7.421  18.907  0.00  0.00    +0.000 A 
ATOM      2  C   UNL     1       1.817   7.755  20.003  0.00  0.00    +0.000 A 
ATOM      3  N   UNL     1       1.222   8.946  19.682  0.00  0.00    +0.000 N 
ATOM      4  N   UNL     1       1.557   9.291  18.412  0.00  0.00    +0.000 NA
ATOM      5  N   UNL     1       2.383   8.367  17.935  0.00  0.00    +0.000 NA
ENDROOT
BRANCH   1  11
ATOM      6  C   UNL     1       3.375   5.169  19.684  0.00  0.00    +0.000 A 
ATOM      7  C   UNL     1       4.112   4.008  19.448  0.00  0.00    +0.000 A 
ATOM      8  C   UNL     1       4.856   3.886  18.275  0.00  0.00    +0.000 A 
ATOM      9  C   UNL     1       4.875   4.927  17.341  0.00  0.00    +0.000 A 
ATOM     10  C   UNL     1       4.132   6.088  17.579  0.00  0.00    +0.000 A 
ATOM     11  C   UNL     1       3.366   6.219  18.747  0.00  0.00    +0.000 A 
BRANCH   9  12
ATOM     12  C   UNL     1       5.654   4.771  16.087  0.00  0.00    +0.000 C 
ATOM     13  N   UNL     1       6.534   5.667  15.719  0.00  0.00    +0.000 NA
ATOM     14  C   UNL     1       7.057   5.187  14.413  0.00  0.00    +0.000 C 
ATOM     15  C   UNL     1       6.346   3.871  14.096  0.00  0.00    +0.000 C 
ATOM     16  N   UNL     1       5.505   3.689  15.254  0.00  0.00    +0.000 N 
ATOM     17  H   UNL     1       4.562   3.360  15.085  0.00  0.00    +0.000 HD
ENDBRANCH   9  12
BRANCH   6  18
ATOM     18  O   UNL     1       2.663   5.265  20.850  0.00  0.00    +0.000 OA
ATOM     19  H   UNL     1       1.794   4.846  20.732  0.00  0.00    +0.000 HD
ENDBRANCH   6  18
ENDBRANCH   1  11
BRANCH   3  20
ATOM     20  C   UNL     1       0.385   9.747  20.495  0.00  0.00    +0.000 A 
ATOM     21  C   UNL     1       0.329   9.539  21.881  0.00  0.00    +0.000 A 
ATOM     22  C   UNL     1      -0.459  10.363  22.681  0.00  0.00    +0.000 A 
ATOM     23  C   UNL     1      -1.197  11.401  22.108  0.00  0.00    +0.000 A 
ATOM     24  C   UNL     1      -1.158  11.599  20.723  0.00  0.00    +0.000 A 
ATOM     25  C   UNL     1      -0.370  10.774  19.917  0.00  0.00    +0.000 A 
BRANCH  23  26
ATOM     26  C   UNL     1      -1.959  12.319  22.988  0.00  0.00    +0.000 C 
ATOM     27  N   UNL     1      -1.484  13.494  23.322  0.00  0.00    +0.000 NA
ATOM     28  C   UNL     1      -2.517  14.097  24.202  0.00  0.00    +0.000 C 
ATOM     29  C   UNL     1      -3.650  13.079  24.332  0.00  0.00    +0.000 C 
ATOM     30  N   UNL     1      -3.196  11.998  23.491  0.00  0.00    +0.000 N 
ATOM     31  H   UNL     1      -3.302  11.062  23.863  0.00  0.00    +0.000 HD
ENDBRANCH  23  26
ENDBRANCH   3  20
TORSDOF 5
ENDMDL
MODEL 9
REMARK VINA RESULT:      -7.9      6.103      7.762
REMARK  Name = 
REMARK  5 active torsions:
REMARK  status: ('A' for Active; 'I' for Inactive)
REMARK    1  A    between atoms: O_1  and  C_2
REMARK    2  A    between atoms: C_5  and  C_6
REMARK    3  A    between atoms: C_12  and  C_13
REMARK    4  A    between atoms: N_15  and  C_16
REMARK    5  A    between atoms: C_19  and  C_20
REMARK                            x       y       z     vdW  Elec       q    Type
REMARK                         _______ _______ _______ _____ _____    ______ ____
ROOT
ATOM      1  C   UNL     1       4.142   5.920  18.230  0.00  0.00    +0.000 A 
ATOM      2  C   UNL     1       3.769   7.230  18.390  0.00  0.00    +0.000 A 
ATOM      3  N   UNL     1       2.527   7.182  18.964  0.00  0.00    +0.000 N 
ATOM      4  N   UNL     1       2.185   5.890  19.196  0.00  0.00    +0.000 NA
ATOM      5  N   UNL     1       3.164   5.113  18.746  0.00  0.00    +0.000 NA
ENDROOT
BRANCH   1  11
ATOM      6  C   UNL     1       6.522   5.152  18.489  0.00  0.00    +0.000 A 
ATOM      7  C   UNL     1       7.689   4.639  17.922  0.00  0.00    +0.000 A 
ATOM      8  C   UNL     1       7.753   4.421  16.547  0.00  0.00    +0.000 A 
ATOM      9  C   UNL     1       6.658   4.725  15.733  0.00  0.00    +0.000 A 
ATOM     10  C   UNL     1       5.488   5.236  16.305  0.00  0.00    +0.000 A 
ATOM     11  C   UNL     1       5.403   5.446  17.689  0.00  0.00    +0.000 A 
BRANCH   9  12
ATOM     12  C   UNL     1       6.734   4.464  14.273  0.00  0.00    +0.000 C 
ATOM     13  N   UNL     1       7.443   5.231  13.484  0.00  0.00    +0.000 NA
ATOM     14  C   UNL     1       7.232   4.684  12.118  0.00  0.00    +0.000 C 
ATOM     15  C   UNL     1       6.301   3.479  12.250  0.00  0.00    +0.000 C 
ATOM     16  N   UNL     1       6.084   3.413  13.675  0.00  0.00    +0.000 N 
ATOM     17  H   UNL     1       5.139   3.218  13.983  0.00  0.00    +0.000 HD
ENDBRANCH   9  12
BRANCH   6  18
ATOM     18  O   UNL     1       6.493   5.367  19.842  0.00  0.00    +0.000 OA
ATOM     19  H   UNL     1       5.789   4.828  20.238  0.00  0.00    +0.000 HD
ENDBRANCH   6  18
ENDBRANCH   1  11
BRANCH   3  20
ATOM     20  C   UNL     1       1.676   8.268  19.286  0.00  0.00    +0.000 A 
ATOM     21  C   UNL     1       1.207   8.439  20.596  0.00  0.00    +0.000 A 
ATOM     22  C   UNL     1       0.410   9.536  20.916  0.00  0.00    +0.000 A 
ATOM     23  C   UNL     1       0.075  10.471  19.934  0.00  0.00    +0.000 A 
ATOM     24  C   UNL     1       0.526  10.292  18.621  0.00  0.00    +0.000 A 
ATOM     25  C   UNL     1       1.324   9.192  18.296  0.00  0.00    +0.000 A 
BRANCH  23  26
ATOM     26  C   UNL     1      -0.700  11.676  20.316  0.00  0.00    +0.000 C 
ATOM     27  N   UNL     1      -1.750  12.056  19.631  0.00  0.00    +0.000 NA
ATOM     28  C   UNL     1      -2.236  13.284  20.309  0.00  0.00    +0.000 C 
ATOM     29  C   UNL     1      -1.292  13.555  21.481  0.00  0.00    +0.000 C 
ATOM     30  N   UNL     1      -0.370  12.448  21.403  0.00  0.00    +0.000 N 
ATOM     31  H   UNL     1       0.611  12.668  21.518  0.00  0.00    +0.000 HD
ENDBRANCH  23  26
ENDBRANCH   3  20
TORSDOF 5
ENDMDL
