MODEL 1
REMARK VINA RESULT:      -7.7      0.000      0.000
REMARK  Name = 
REMARK  6 active torsions:
REMARK  status: ('A' for Active; 'I' for Inactive)
REMARK    1  A    between atoms: C_1  and  N_2
REMARK    2  A    between atoms: C_13  and  N_14
REMARK    3  A    between atoms: N_14  and  C_15
REMARK    4  A    between atoms: C_15  and  C_16
REMARK    5  A    between atoms: C_16  and  C_17
REMARK    6  A    between atoms: C_17  and  N_18
REMARK                            x       y       z     vdW  Elec       q    Type
REMARK                         _______ _______ _______ _____ _____    ______ ____
ROOT
ATOM      1  C   UNL     1       3.825   7.270  16.805  0.00  0.00    +0.000 C 
ATOM      2  N   UNL     1       3.190   6.439  17.825  0.00  0.00    +0.000 N 
ATOM      3  C   UNL     1       3.670   5.154  18.020  0.00  0.00    +0.000 C 
ATOM      4  N   UNL     1       4.094   4.415  17.034  0.00  0.00    +0.000 NA
ATOM      5  C   UNL     1       5.384   3.930  17.579  0.00  0.00    +0.000 C 
ATOM      6  C   UNL     1       6.325   4.370  16.492  0.00  0.00    +0.000 C 
ATOM      7  C   UNL     1       6.990   5.535  16.566  0.00  0.00    +0.000 C 
ATOM      8  C   UNL     1       6.938   6.370  17.735  0.00  0.00    +0.000 C 
ATOM      9 BR   UNL     1       7.822   8.017  17.625  0.00  0.00    +0.000 Br
ATOM     10  C   UNL     1       6.256   5.992  18.868  0.00  0.00    +0.000 C 
ATOM     11  C   UNL     1       5.530   4.648  18.977  0.00  0.00    +0.000 C 
ATOM     12  C   UNL     1       4.033   4.596  19.380  0.00  0.00    +0.000 C 
ATOM     13  C   UNL     1       3.036   5.009  20.224  0.00  0.00    +0.000 C 
ATOM     14  C   UNL     1       2.358   6.360  20.070  0.00  0.00    +0.000 A 
ATOM     15  C   UNL     1       1.405   6.843  20.980  0.00  0.00    +0.000 A 
ATOM     16  C   UNL     1       0.871   8.124  20.831  0.00  0.00    +0.000 A 
ATOM     17 CL   UNL     1      -0.373   8.675  21.879  0.00  0.00    +0.000 Cl
ATOM     18  C   UNL     1       1.321   8.955  19.807  0.00  0.00    +0.000 A 
ATOM     19  C   UNL     1       2.188   8.451  18.859  0.00  0.00    +0.000 A 
ATOM     20  C   UNL     1       2.613   7.124  18.923  0.00  0.00    +0.000 A 
ENDROOT
BRANCH  13  21
ATOM     21  N   UNL     1       2.105   4.052  20.719  0.00  0.00    +0.000 N 
ATOM     22  H   UNL     1       1.979   4.184  21.728  0.00  0.00    +0.000 HD
BRANCH  21  23
ATOM     23  C   UNL     1       0.785   3.866  20.105  0.00  0.00    +0.000 C 
BRANCH  23  24
ATOM     24  C   UNL     1       0.794   2.777  19.013  0.00  0.00    +0.000 C 
BRANCH  24  25
ATOM     25  C   UNL     1       1.938   1.780  19.139  0.00  0.00    +0.000 C 
BRANCH  25  26
ATOM     26  N   UNL     1       2.673   1.633  17.885  0.00  0.00    +0.000 NA
ATOM     27  H   UNL     1       3.380   0.905  17.955  0.00  0.00    +0.000 HD
ATOM     28  H   UNL     1       3.179   2.493  17.686  0.00  0.00    +0.000 HD
ENDBRANCH  25  26
ENDBRANCH  24  25
ENDBRANCH  23  24
ENDBRANCH  21  23
ENDBRANCH  13  21
TORSDOF 5
ENDMDL
MODEL 2
REMARK VINA RESULT:      -7.1      1.001      1.251
REMARK  Name = 
REMARK  6 active torsions:
REMARK  status: ('A' for Active; 'I' for Inactive)
REMARK    1  A    between atoms: C_1  and  N_2
REMARK    2  A    between atoms: C_13  and  N_14
REMARK    3  A    between atoms: N_14  and  C_15
REMARK    4  A    between atoms: C_15  and  C_16
REMARK    5  A    between atoms: C_16  and  C_17
REMARK    6  A    between atoms: C_17  and  N_18
REMARK                            x       y       z     vdW  Elec       q    Type
REMARK                         _______ _______ _______ _____ _____    ______ ____
ROOT
ATOM      1  C   UNL     1       3.999   7.318  16.521  0.00  0.00    +0.000 C 
ATOM      2  N   UNL     1       3.199   6.742  17.601  0.00  0.00    +0.000 N 
ATOM      3  C   UNL     1       3.510   5.466  18.041  0.00  0.00    +0.000 C 
ATOM      4  N   UNL     1       3.913   4.530  17.228  0.00  0.00    +0.000 NA
ATOM      5  C   UNL     1       5.095   4.013  17.957  0.00  0.00    +0.000 C 
ATOM      6  C   UNL     1       6.156   4.161  16.902  0.00  0.00    +0.000 C 
ATOM      7  C   UNL     1       6.946   5.247  16.847  0.00  0.00    +0.000 C 
ATOM      8  C   UNL     1       6.910   6.268  17.858  0.00  0.00    +0.000 C 
ATOM      9 BR   UNL     1       7.988   7.772  17.564  0.00  0.00    +0.000 Br
ATOM     10  C   UNL     1       6.110   6.161  18.971  0.00  0.00    +0.000 C 
ATOM     11  C   UNL     1       5.224   4.938  19.229  0.00  0.00    +0.000 C 
ATOM     12  C   UNL     1       3.707   5.112  19.500  0.00  0.00    +0.000 C 
ATOM     13  C   UNL     1       2.708   5.763  20.174  0.00  0.00    +0.000 C 
ATOM     14  C   UNL     1       2.207   7.132  19.745  0.00  0.00    +0.000 A 
ATOM     15  C   UNL     1       1.255   7.859  20.477  0.00  0.00    +0.000 A 
ATOM     16  C   UNL     1       0.888   9.145  20.077  0.00  0.00    +0.000 A 
ATOM     17 CL   UNL     1      -0.354   9.993  20.908  0.00  0.00    +0.000 Cl
ATOM     18  C   UNL     1       1.504   9.739  18.977  0.00  0.00    +0.000 A 
ATOM     19  C   UNL     1       2.371   8.994  18.205  0.00  0.00    +0.000 A 
ATOM     20  C   UNL     1       2.631   7.660  18.519  0.00  0.00    +0.000 A 
ENDROOT
BRANCH  13  21
ATOM     21  N   UNL     1       1.639   5.006  20.731  0.00  0.00    +0.000 N 
ATOM     22  H   UNL     1       0.992   5.634  21.221  0.00  0.00    +0.000 HD
BRANCH  21  23
ATOM     23  C   UNL     1       0.853   4.065  19.923  0.00  0.00    +0.000 C 
BRANCH  23  24
ATOM     24  C   UNL     1       1.115   2.596  20.314  0.00  0.00    +0.000 C 
BRANCH  24  25
ATOM     25  C   UNL     1       1.520   2.404  21.770  0.00  0.00    +0.000 C 
BRANCH  25  26
ATOM     26  N   UNL     1       2.971   2.414  21.938  0.00  0.00    +0.000 NA
ATOM     27  H   UNL     1       3.312   1.508  22.252  0.00  0.00    +0.000 HD
ATOM     28  H   UNL     1       3.223   3.074  22.669  0.00  0.00    +0.000 HD
ENDBRANCH  25  26
ENDBRANCH  24  25
ENDBRANCH  23  24
ENDBRANCH  21  23
ENDBRANCH  13  21
TORSDOF 5
ENDMDL
MODEL 3
REMARK VINA RESULT:      -6.8      2.748      4.861
REMARK  Name = 
REMARK  6 active torsions:
REMARK  status: ('A' for Active; 'I' for Inactive)
REMARK    1  A    between atoms: C_1  and  N_2
REMARK    2  A    between atoms: C_13  and  N_14
REMARK    3  A    between atoms: N_14  and  C_15
REMARK    4  A    between atoms: C_15  and  C_16
REMARK    5  A    between atoms: C_16  and  C_17
REMARK    6  A    between atoms: C_17  and  N_18
REMARK                            x       y       z     vdW  Elec       q    Type
REMARK                         _______ _______ _______ _____ _____    ______ ____
ROOT
ATOM      1  C   UNL     1       2.629   4.991  20.628  0.00  0.00    +0.000 C 
ATOM      2  N   UNL     1       3.436   5.715  19.649  0.00  0.00    +0.000 N 
ATOM      3  C   UNL     1       4.373   5.005  18.914  0.00  0.00    +0.000 C 
ATOM      4  N   UNL     1       5.057   4.023  19.427  0.00  0.00    +0.000 NA
ATOM      5  C   UNL     1       4.891   2.986  18.381  0.00  0.00    +0.000 C 
ATOM      6  C   UNL     1       4.330   1.857  19.199  0.00  0.00    +0.000 C 
ATOM      7  C   UNL     1       3.006   1.649  19.297  0.00  0.00    +0.000 C 
ATOM      8  C   UNL     1       2.056   2.412  18.534  0.00  0.00    +0.000 C 
ATOM      9 BR   UNL     1       0.246   2.079  18.882  0.00  0.00    +0.000 Br
ATOM     10  C   UNL     1       2.451   3.354  17.614  0.00  0.00    +0.000 C 
ATOM     11  C   UNL     1       3.927   3.638  17.314  0.00  0.00    +0.000 C 
ATOM     12  C   UNL     1       4.482   5.083  17.406  0.00  0.00    +0.000 C 
ATOM     13  C   UNL     1       4.341   6.410  17.095  0.00  0.00    +0.000 C 
ATOM     14  C   UNL     1       3.415   7.326  17.877  0.00  0.00    +0.000 A 
ATOM     15  C   UNL     1       3.181   8.662  17.515  0.00  0.00    +0.000 A 
ATOM     16  C   UNL     1       2.261   9.436  18.225  0.00  0.00    +0.000 A 
ATOM     17 CL   UNL     1       2.053  11.100  17.854  0.00  0.00    +0.000 Cl
ATOM     18  C   UNL     1       1.526   8.871  19.266  0.00  0.00    +0.000 A 
ATOM     19  C   UNL     1       1.819   7.587  19.680  0.00  0.00    +0.000 A 
ATOM     20  C   UNL     1       2.838   6.860  19.066  0.00  0.00    +0.000 A 
ENDROOT
BRANCH  13  21
ATOM     21  N   UNL     1       5.475   7.140  16.638  0.00  0.00    +0.000 N 
ATOM     22  H   UNL     1       5.486   8.067  17.075  0.00  0.00    +0.000 HD
BRANCH  21  23
ATOM     23  C   UNL     1       6.831   6.581  16.697  0.00  0.00    +0.000 C 
BRANCH  23  24
ATOM     24  C   UNL     1       7.638   7.124  17.895  0.00  0.00    +0.000 C 
BRANCH  24  25
ATOM     25  C   UNL     1       7.927   6.086  18.971  0.00  0.00    +0.000 C 
BRANCH  25  26
ATOM     26  N   UNL     1       7.947   4.730  18.428  0.00  0.00    +0.000 NA
ATOM     27  H   UNL     1       8.881   4.327  18.477  0.00  0.00    +0.000 HD
ATOM     28  H   UNL     1       7.708   4.757  17.439  0.00  0.00    +0.000 HD
ENDBRANCH  25  26
ENDBRANCH  24  25
ENDBRANCH  23  24
ENDBRANCH  21  23
ENDBRANCH  13  21
TORSDOF 5
ENDMDL
MODEL 4
REMARK VINA RESULT:      -6.5      1.310      1.436
REMARK  Name = 
REMARK  6 active torsions:
REMARK  status: ('A' for Active; 'I' for Inactive)
REMARK    1  A    between atoms: C_1  and  N_2
REMARK    2  A    between atoms: C_13  and  N_14
REMARK    3  A    between atoms: N_14  and  C_15
REMARK    4  A    between atoms: C_15  and  C_16
REMARK    5  A    between atoms: C_16  and  C_17
REMARK    6  A    between atoms: C_17  and  N_18
REMARK                            x       y       z     vdW  Elec       q    Type
REMARK                         _______ _______ _______ _____ _____    ______ ____
ROOT
ATOM      1  C   UNL     1       3.864   7.502  16.717  0.00  0.00    +0.000 C 
ATOM      2  N   UNL     1       3.170   6.594  17.627  0.00  0.00    +0.000 N 
ATOM      3  C   UNL     1       3.590   5.274  17.686  0.00  0.00    +0.000 C 
ATOM      4  N   UNL     1       4.003   4.630  16.632  0.00  0.00    +0.000 NA
ATOM      5  C   UNL     1       5.258   4.029  17.143  0.00  0.00    +0.000 C 
ATOM      6  C   UNL     1       6.242   4.543  16.128  0.00  0.00    +0.000 C 
ATOM      7  C   UNL     1       6.955   5.661  16.343  0.00  0.00    +0.000 C 
ATOM      8  C   UNL     1       6.912   6.364  17.597  0.00  0.00    +0.000 C 
ATOM      9 BR   UNL     1       7.870   7.971  17.687  0.00  0.00    +0.000 Br
ATOM     10  C   UNL     1       6.189   5.895  18.668  0.00  0.00    +0.000 C 
ATOM     11  C   UNL     1       5.403   4.582  18.615  0.00  0.00    +0.000 C 
ATOM     12  C   UNL     1       3.896   4.554  18.983  0.00  0.00    +0.000 C 
ATOM     13  C   UNL     1       2.899   4.917  19.849  0.00  0.00    +0.000 C 
ATOM     14  C   UNL     1       2.284   6.306  19.833  0.00  0.00    +0.000 A 
ATOM     15  C   UNL     1       1.332   6.729  20.775  0.00  0.00    +0.000 A 
ATOM     16  C   UNL     1       0.858   8.041  20.759  0.00  0.00    +0.000 A 
ATOM     17 CL   UNL     1      -0.385   8.531  21.839  0.00  0.00    +0.000 Cl
ATOM     18  C   UNL     1       1.367   8.959  19.841  0.00  0.00    +0.000 A 
ATOM     19  C   UNL     1       2.233   8.523  18.860  0.00  0.00    +0.000 A 
ATOM     20  C   UNL     1       2.599   7.179  18.784  0.00  0.00    +0.000 A 
ENDROOT
BRANCH  13  21
ATOM     21  N   UNL     1       1.916   3.954  20.218  0.00  0.00    +0.000 N 
ATOM     22  H   UNL     1       1.112   4.025  19.586  0.00  0.00    +0.000 HD
BRANCH  21  23
ATOM     23  C   UNL     1       2.250   2.535  20.391  0.00  0.00    +0.000 C 
BRANCH  23  24
ATOM     24  C   UNL     1       3.449   2.326  21.338  0.00  0.00    +0.000 C 
BRANCH  24  25
ATOM     25  C   UNL     1       4.639   1.630  20.689  0.00  0.00    +0.000 C 
BRANCH  25  26
ATOM     26  N   UNL     1       5.589   1.136  21.683  0.00  0.00    +0.000 NA
ATOM     27  H   UNL     1       5.138   0.503  22.341  0.00  0.00    +0.000 HD
ATOM     28  H   UNL     1       5.933   1.916  22.239  0.00  0.00    +0.000 HD
ENDBRANCH  25  26
ENDBRANCH  24  25
ENDBRANCH  23  24
ENDBRANCH  21  23
ENDBRANCH  13  21
TORSDOF 5
ENDMDL
MODEL 5
REMARK VINA RESULT:      -6.3      7.573      9.832
REMARK  Name = 
REMARK  6 active torsions:
REMARK  status: ('A' for Active; 'I' for Inactive)
REMARK    1  A    between atoms: C_1  and  N_2
REMARK    2  A    between atoms: C_13  and  N_14
REMARK    3  A    between atoms: N_14  and  C_15
REMARK    4  A    between atoms: C_15  and  C_16
REMARK    5  A    between atoms: C_16  and  C_17
REMARK    6  A    between atoms: C_17  and  N_18
REMARK                            x       y       z     vdW  Elec       q    Type
REMARK                         _______ _______ _______ _____ _____    ______ ____
ROOT
ATOM      1  C   UNL     1      -0.657  13.147  22.311  0.00  0.00    +0.000 C 
ATOM      2  N   UNL     1      -1.906  13.304  21.570  0.00  0.00    +0.000 N 
ATOM      3  C   UNL     1      -1.868  13.211  20.188  0.00  0.00    +0.000 C 
ATOM      4  N   UNL     1      -0.867  13.666  19.489  0.00  0.00    +0.000 NA
ATOM      5  C   UNL     1      -0.596  12.513  18.599  0.00  0.00    +0.000 C 
ATOM      6  C   UNL     1       0.860  12.276  18.890  0.00  0.00    +0.000 C 
ATOM      7  C   UNL     1       1.257  11.375  19.805  0.00  0.00    +0.000 C 
ATOM      8  C   UNL     1       0.327  10.501  20.468  0.00  0.00    +0.000 C 
ATOM      9 BR   UNL     1       1.031   9.392  21.803  0.00  0.00    +0.000 Br
ATOM     10  C   UNL     1      -1.012  10.495  20.157  0.00  0.00    +0.000 C 
ATOM     11  C   UNL     1      -1.605  11.393  19.067  0.00  0.00    +0.000 C 
ATOM     12  C   UNL     1      -2.801  12.328  19.386  0.00  0.00    +0.000 C 
ATOM     13  C   UNL     1      -4.037  12.490  19.952  0.00  0.00    +0.000 C 
ATOM     14  C   UNL     1      -4.219  12.693  21.447  0.00  0.00    +0.000 A 
ATOM     15  C   UNL     1      -5.480  12.763  22.060  0.00  0.00    +0.000 A 
ATOM     16  C   UNL     1      -5.586  12.873  23.447  0.00  0.00    +0.000 A 
ATOM     17 CL   UNL     1      -7.123  13.068  24.189  0.00  0.00    +0.000 Cl
ATOM     18  C   UNL     1      -4.441  12.860  24.240  0.00  0.00    +0.000 A 
ATOM     19  C   UNL     1      -3.200  12.883  23.636  0.00  0.00    +0.000 A 
ATOM     20  C   UNL     1      -3.090  12.918  22.247  0.00  0.00    +0.000 A 
ENDROOT
BRANCH  13  21
ATOM     21  N   UNL     1      -5.038  13.210  19.239  0.00  0.00    +0.000 N 
ATOM     22  H   UNL     1      -4.623  14.046  18.813  0.00  0.00    +0.000 HD
BRANCH  21  23
ATOM     23  C   UNL     1      -5.900  12.560  18.245  0.00  0.00    +0.000 C 
BRANCH  23  24
ATOM     24  C   UNL     1      -5.993  11.035  18.458  0.00  0.00    +0.000 C 
BRANCH  24  25
ATOM     25  C   UNL     1      -7.091  10.608  19.423  0.00  0.00    +0.000 C 
BRANCH  25  26
ATOM     26  N   UNL     1      -7.500   9.223  19.204  0.00  0.00    +0.000 NA
ATOM     27  H   UNL     1      -7.990   9.119  18.318  0.00  0.00    +0.000 HD
ATOM     28  H   UNL     1      -8.165   8.947  19.923  0.00  0.00    +0.000 HD
ENDBRANCH  25  26
ENDBRANCH  24  25
ENDBRANCH  23  24
ENDBRANCH  21  23
ENDBRANCH  13  21
TORSDOF 5
ENDMDL
MODEL 6
REMARK VINA RESULT:      -6.2      2.952      5.244
REMARK  Name = 
REMARK  6 active torsions:
REMARK  status: ('A' for Active; 'I' for Inactive)
REMARK    1  A    between atoms: C_1  and  N_2
REMARK    2  A    between atoms: C_13  and  N_14
REMARK    3  A    between atoms: N_14  and  C_15
REMARK    4  A    between atoms: C_15  and  C_16
REMARK    5  A    between atoms: C_16  and  C_17
REMARK    6  A    between atoms: C_17  and  N_18
REMARK                            x       y       z     vdW  Elec       q    Type
REMARK                         _______ _______ _______ _____ _____    ______ ____
ROOT
ATOM      1  C   UNL     1       2.678   5.037  20.616  0.00  0.00    +0.000 C 
ATOM      2  N   UNL     1       3.494   5.769  19.649  0.00  0.00    +0.000 N 
ATOM      3  C   UNL     1       4.453   5.069  18.934  0.00  0.00    +0.000 C 
ATOM      4  N   UNL     1       5.141   4.097  19.462  0.00  0.00    +0.000 NA
ATOM      5  C   UNL     1       5.007   3.056  18.417  0.00  0.00    +0.000 C 
ATOM      6  C   UNL     1       4.446   1.921  19.228  0.00  0.00    +0.000 C 
ATOM      7  C   UNL     1       3.123   1.697  19.302  0.00  0.00    +0.000 C 
ATOM      8  C   UNL     1       2.177   2.445  18.519  0.00  0.00    +0.000 C 
ATOM      9 BR   UNL     1       0.365   2.089  18.836  0.00  0.00    +0.000 Br
ATOM     10  C   UNL     1       2.577   3.389  17.604  0.00  0.00    +0.000 C 
ATOM     11  C   UNL     1       4.054   3.691  17.330  0.00  0.00    +0.000 C 
ATOM     12  C   UNL     1       4.588   5.144  17.428  0.00  0.00    +0.000 C 
ATOM     13  C   UNL     1       4.436   6.468  17.110  0.00  0.00    +0.000 C 
ATOM     14  C   UNL     1       3.484   7.375  17.873  0.00  0.00    +0.000 A 
ATOM     15  C   UNL     1       3.239   8.707  17.503  0.00  0.00    +0.000 A 
ATOM     16  C   UNL     1       2.297   9.470  18.194  0.00  0.00    +0.000 A 
ATOM     17 CL   UNL     1       2.074  11.130  17.813  0.00  0.00    +0.000 Cl
ATOM     18  C   UNL     1       1.550   8.898  19.223  0.00  0.00    +0.000 A 
ATOM     19  C   UNL     1       1.853   7.620  19.646  0.00  0.00    +0.000 A 
ATOM     20  C   UNL     1       2.892   6.904  19.053  0.00  0.00    +0.000 A 
ENDROOT
BRANCH  13  21
ATOM     21  N   UNL     1       5.568   7.211  16.672  0.00  0.00    +0.000 N 
ATOM     22  H   UNL     1       5.551   8.145  17.095  0.00  0.00    +0.000 HD
BRANCH  21  23
ATOM     23  C   UNL     1       6.932   6.677  16.774  0.00  0.00    +0.000 C 
BRANCH  23  24
ATOM     24  C   UNL     1       7.766   7.403  17.850  0.00  0.00    +0.000 C 
BRANCH  24  25
ATOM     25  C   UNL     1       7.837   8.913  17.667  0.00  0.00    +0.000 C 
BRANCH  25  26
ATOM     26  N   UNL     1       8.755   9.534  18.619  0.00  0.00    +0.000 NA
ATOM     27  H   UNL     1       8.619   9.163  19.557  0.00  0.00    +0.000 HD
ATOM     28  H   UNL     1       8.556  10.530  18.683  0.00  0.00    +0.000 HD
ENDBRANCH  25  26
ENDBRANCH  24  25
ENDBRANCH  23  24
ENDBRANCH  21  23
ENDBRANCH  13  21
TORSDOF 5
ENDMDL
MODEL 7
REMARK VINA RESULT:      -6.1      7.245      9.062
REMARK  Name = 
REMARK  6 active torsions:
REMARK  status: ('A' for Active; 'I' for Inactive)
REMARK    1  A    between atoms: C_1  and  N_2
REMARK    2  A    between atoms: C_13  and  N_14
REMARK    3  A    between atoms: N_14  and  C_15
REMARK    4  A    between atoms: C_15  and  C_16
REMARK    5  A    between atoms: C_16  and  C_17
REMARK    6  A    between atoms: C_17  and  N_18
REMARK                            x       y       z     vdW  Elec       q    Type
REMARK                         _______ _______ _______ _____ _____    ______ ____
ROOT
ATOM      1  C   UNL     1      -1.614  13.026  20.993  0.00  0.00    +0.000 C 
ATOM      2  N   UNL     1      -2.002  12.728  19.616  0.00  0.00    +0.000 N 
ATOM      3  C   UNL     1      -1.039  12.224  18.756  0.00  0.00    +0.000 C 
ATOM      4  N   UNL     1       0.204  12.610  18.802  0.00  0.00    +0.000 NA
ATOM      5  C   UNL     1       0.906  11.305  18.785  0.00  0.00    +0.000 C 
ATOM      6  C   UNL     1       1.743  11.427  20.028  0.00  0.00    +0.000 C 
ATOM      7  C   UNL     1       1.328  10.933  21.207  0.00  0.00    +0.000 C 
ATOM      8  C   UNL     1       0.124  10.157  21.327  0.00  0.00    +0.000 C 
ATOM      9 BR   UNL     1      -0.373   9.651  23.060  0.00  0.00    +0.000 Br
ATOM     10  C   UNL     1      -0.637   9.822  20.232  0.00  0.00    +0.000 C 
ATOM     11  C   UNL     1      -0.245  10.225  18.807  0.00  0.00    +0.000 C 
ATOM     12  C   UNL     1      -1.247  10.989  17.904  0.00  0.00    +0.000 C 
ATOM     13  C   UNL     1      -2.517  11.099  17.402  0.00  0.00    +0.000 C 
ATOM     14  C   UNL     1      -3.650  11.716  18.205  0.00  0.00    +0.000 A 
ATOM     15  C   UNL     1      -4.978  11.749  17.748  0.00  0.00    +0.000 A 
ATOM     16  C   UNL     1      -5.991  12.260  18.561  0.00  0.00    +0.000 A 
ATOM     17 CL   UNL     1      -7.596  12.401  17.965  0.00  0.00    +0.000 Cl
ATOM     18  C   UNL     1      -5.702  12.690  19.854  0.00  0.00    +0.000 A 
ATOM     19  C   UNL     1      -4.387  12.743  20.271  0.00  0.00    +0.000 A 
ATOM     20  C   UNL     1      -3.356  12.368  19.409  0.00  0.00    +0.000 A 
ENDROOT
BRANCH  13  21
ATOM     21  N   UNL     1      -2.694  11.380  16.017  0.00  0.00    +0.000 N 
ATOM     22  H   UNL     1      -1.791  11.313  15.535  0.00  0.00    +0.000 HD
BRANCH  21  23
ATOM     23  C   UNL     1      -3.706  10.689  15.210  0.00  0.00    +0.000 C 
BRANCH  23  24
ATOM     24  C   UNL     1      -3.109  10.058  13.935  0.00  0.00    +0.000 C 
BRANCH  24  25
ATOM     25  C   UNL     1      -4.135   9.771  12.845  0.00  0.00    +0.000 C 
BRANCH  25  26
ATOM     26  N   UNL     1      -3.538   9.813  11.513  0.00  0.00    +0.000 NA
ATOM     27  H   UNL     1      -3.881   9.051  10.931  0.00  0.00    +0.000 HD
ATOM     28  H   UNL     1      -2.533   9.675  11.586  0.00  0.00    +0.000 HD
ENDBRANCH  25  26
ENDBRANCH  24  25
ENDBRANCH  23  24
ENDBRANCH  21  23
ENDBRANCH  13  21
TORSDOF 5
ENDMDL
MODEL 8
REMARK VINA RESULT:      -6.1      7.154     10.414
REMARK  Name = 
REMARK  6 active torsions:
REMARK  status: ('A' for Active; 'I' for Inactive)
REMARK    1  A    between atoms: C_1  and  N_2
REMARK    2  A    between atoms: C_13  and  N_14
REMARK    3  A    between atoms: N_14  and  C_15
REMARK    4  A    between atoms: C_15  and  C_16
REMARK    5  A    between atoms: C_16  and  C_17
REMARK    6  A    between atoms: C_17  and  N_18
REMARK                            x       y       z     vdW  Elec       q    Type
REMARK                         _______ _______ _______ _____ _____    ______ ____
ROOT
ATOM      1  C   UNL     1      -2.904  12.387  23.709  0.00  0.00    +0.000 C 
ATOM      2  N   UNL     1      -2.565  12.049  22.328  0.00  0.00    +0.000 N 
ATOM      3  C   UNL     1      -2.942  12.927  21.325  0.00  0.00    +0.000 C 
ATOM      4  N   UNL     1      -4.065  13.588  21.367  0.00  0.00    +0.000 NA
ATOM      5  C   UNL     1      -3.598  14.957  21.045  0.00  0.00    +0.000 C 
ATOM      6  C   UNL     1      -4.128  15.714  22.230  0.00  0.00    +0.000 C 
ATOM      7  C   UNL     1      -3.366  15.952  23.311  0.00  0.00    +0.000 C 
ATOM      8  C   UNL     1      -1.971  15.607  23.352  0.00  0.00    +0.000 C 
ATOM      9 BR   UNL     1      -1.087  15.894  24.979  0.00  0.00    +0.000 Br
ATOM     10  C   UNL     1      -1.323  15.072  22.264  0.00  0.00    +0.000 C 
ATOM     11  C   UNL     1      -2.028  14.833  20.926  0.00  0.00    +0.000 C 
ATOM     12  C   UNL     1      -1.993  13.433  20.259  0.00  0.00    +0.000 C 
ATOM     13  C   UNL     1      -1.260  12.342  19.872  0.00  0.00    +0.000 C 
ATOM     14  C   UNL     1      -0.853  11.255  20.853  0.00  0.00    +0.000 A 
ATOM     15  C   UNL     1      -0.021  10.182  20.499  0.00  0.00    +0.000 A 
ATOM     16  C   UNL     1       0.382   9.254  21.461  0.00  0.00    +0.000 A 
ATOM     17 CL   UNL     1       1.311   7.881  21.010  0.00  0.00    +0.000 Cl
ATOM     18  C   UNL     1       0.006   9.418  22.793  0.00  0.00    +0.000 A 
ATOM     19  C   UNL     1      -0.884  10.418  23.126  0.00  0.00    +0.000 A 
ATOM     20  C   UNL     1      -1.403  11.260  22.142  0.00  0.00    +0.000 A 
ENDROOT
BRANCH  13  21
ATOM     21  N   UNL     1      -1.486  11.776  18.585  0.00  0.00    +0.000 N 
ATOM     22  H   UNL     1      -0.774  11.063  18.394  0.00  0.00    +0.000 HD
BRANCH  21  23
ATOM     23  C   UNL     1      -2.796  11.243  18.193  0.00  0.00    +0.000 C 
BRANCH  23  24
ATOM     24  C   UNL     1      -2.684   9.893  17.455  0.00  0.00    +0.000 C 
BRANCH  24  25
ATOM     25  C   UNL     1      -2.677  10.014  15.937  0.00  0.00    +0.000 C 
BRANCH  25  26
ATOM     26  N   UNL     1      -2.511  11.398  15.502  0.00  0.00    +0.000 NA
ATOM     27  H   UNL     1      -2.011  11.946  16.200  0.00  0.00    +0.000 HD
ATOM     28  H   UNL     1      -3.425  11.836  15.408  0.00  0.00    +0.000 HD
ENDBRANCH  25  26
ENDBRANCH  24  25
ENDBRANCH  23  24
ENDBRANCH  21  23
ENDBRANCH  13  21
TORSDOF 5
ENDMDL
MODEL 9
REMARK VINA RESULT:      -5.9      8.052     10.571
REMARK  Name = 
REMARK  6 active torsions:
REMARK  status: ('A' for Active; 'I' for Inactive)
REMARK    1  A    between atoms: C_1  and  N_2
REMARK    2  A    between atoms: C_13  and  N_14
REMARK    3  A    between atoms: N_14  and  C_15
REMARK    4  A    between atoms: C_15  and  C_16
REMARK    5  A    between atoms: C_16  and  C_17
REMARK    6  A    between atoms: C_17  and  N_18
REMARK                            x       y       z     vdW  Elec       q    Type
REMARK                         _______ _______ _______ _____ _____    ______ ____
ROOT
ATOM      1  C   UNL     1      -3.931  14.033  20.867  0.00  0.00    +0.000 C 
ATOM      2  N   UNL     1      -2.715  13.395  20.368  0.00  0.00    +0.000 N 
ATOM      3  C   UNL     1      -1.569  13.462  21.145  0.00  0.00    +0.000 C 
ATOM      4  N   UNL     1      -1.271  14.517  21.850  0.00  0.00    +0.000 NA
ATOM      5  C   UNL     1      -0.943  13.900  23.157  0.00  0.00    +0.000 C 
ATOM      6  C   UNL     1      -1.883  14.650  24.059  0.00  0.00    +0.000 C 
ATOM      7  C   UNL     1      -3.090  14.157  24.383  0.00  0.00    +0.000 C 
ATOM      8  C   UNL     1      -3.506  12.837  23.990  0.00  0.00    +0.000 C 
ATOM      9 BR   UNL     1      -5.265  12.354  24.418  0.00  0.00    +0.000 Br
ATOM     10  C   UNL     1      -2.668  11.982  23.316  0.00  0.00    +0.000 C 
ATOM     11  C   UNL     1      -1.226  12.359  22.960  0.00  0.00    +0.000 C 
ATOM     12  C   UNL     1      -0.727  12.254  21.495  0.00  0.00    +0.000 C 
ATOM     13  C   UNL     1      -0.639  11.521  20.341  0.00  0.00    +0.000 C 
ATOM     14  C   UNL     1      -1.790  11.433  19.353  0.00  0.00    +0.000 A 
ATOM     15  C   UNL     1      -1.756  10.610  18.216  0.00  0.00    +0.000 A 
ATOM     16  C   UNL     1      -2.872  10.511  17.383  0.00  0.00    +0.000 A 
ATOM     17 CL   UNL     1      -2.798   9.591  15.935  0.00  0.00    +0.000 Cl
ATOM     18  C   UNL     1      -4.049  11.185  17.705  0.00  0.00    +0.000 A 
ATOM     19  C   UNL     1      -4.054  12.063  18.770  0.00  0.00    +0.000 A 
ATOM     20  C   UNL     1      -2.897  12.275  19.519  0.00  0.00    +0.000 A 
ENDROOT
BRANCH  13  21
ATOM     21  N   UNL     1       0.603  11.466  19.647  0.00  0.00    +0.000 N 
ATOM     22  H   UNL     1       0.436  11.248  18.659  0.00  0.00    +0.000 HD
BRANCH  21  23
ATOM     23  C   UNL     1       1.582  12.558  19.724  0.00  0.00    +0.000 C 
BRANCH  23  24
ATOM     24  C   UNL     1       1.275  13.693  18.726  0.00  0.00    +0.000 C 
BRANCH  24  25
ATOM     25  C   UNL     1       2.495  14.511  18.321  0.00  0.00    +0.000 C 
BRANCH  25  26
ATOM     26  N   UNL     1       3.584  13.662  17.845  0.00  0.00    +0.000 NA
ATOM     27  H   UNL     1       3.974  14.017  16.974  0.00  0.00    +0.000 HD
ATOM     28  H   UNL     1       3.224  12.735  17.631  0.00  0.00    +0.000 HD
ENDBRANCH  25  26
ENDBRANCH  24  25
ENDBRANCH  23  24
ENDBRANCH  21  23
ENDBRANCH  13  21
TORSDOF 5
ENDMDL
