MODEL 1
REMARK VINA RESULT:      -7.9      0.000      0.000
REMARK  Name = 
REMARK  6 active torsions:
REMARK  status: ('A' for Active; 'I' for Inactive)
REMARK    1  A    between atoms: C_1  and  S_2
REMARK    2  A    between atoms: S_2  and  C_5
REMARK    3  A    between atoms: C_9  and  N_10
REMARK    4  A    between atoms: N_16  and  C_17
REMARK    5  A    between atoms: C_17  and  C_18
REMARK    6  A    between atoms: N_22  and  C_23
REMARK                            x       y       z     vdW  Elec       q    Type
REMARK                         _______ _______ _______ _____ _____    ______ ____
ROOT
ATOM      1  N   UNL     1       2.645   6.890  18.965  0.00  0.00    +0.000 N 
ATOM      2  C   UNL     1       2.263   8.090  18.405  0.00  0.00    +0.000 C 
ATOM      3  O   UNL     1       2.394   8.356  17.207  0.00  0.00    +0.000 OA
ATOM      4  N   UNL     1       1.701   9.012  19.271  0.00  0.00    +0.000 N 
ATOM      5  C   UNL     1       1.156  10.261  18.714  0.00  0.00    +0.000 C 
ATOM      6  C   UNL     1      -0.351  10.419  19.047  0.00  0.00    +0.000 C 
ATOM      7  N   UNL     1      -0.730  10.192  20.476  0.00  0.00    +0.000 NA
ATOM      8  C   UNL     1      -0.124   8.910  20.903  0.00  0.00    +0.000 C 
ATOM      9  C   UNL     1       1.401   8.842  20.696  0.00  0.00    +0.000 C 
ATOM     10  H   UNL     1       2.292   6.674  19.879  0.00  0.00    +0.000 HD
ENDROOT
BRANCH   1  15
ATOM     11  C   UNL     1       5.426   4.932  17.528  0.00  0.00    +0.000 A 
ATOM     12  C   UNL     1       4.773   3.812  17.011  0.00  0.00    +0.000 A 
ATOM     13  C   UNL     1       3.399   3.701  17.152  0.00  0.00    +0.000 A 
ATOM     14  C   UNL     1       2.672   4.715  17.792  0.00  0.00    +0.000 A 
ATOM     15  C   UNL     1       3.322   5.835  18.320  0.00  0.00    +0.000 A 
ATOM     16  C   UNL     1       4.709   5.946  18.178  0.00  0.00    +0.000 A 
BRANCH  11  18
ATOM     17  C   UNL     1       7.416   6.872  17.450  0.00  0.00    +0.000 C 
ATOM     18  S   UNL     1       7.171   5.128  17.290  0.00  0.00    +0.000 S 
ATOM     19  O   UNL     1       7.469   4.756  15.919  0.00  0.00    +0.000 OA
ATOM     20  O   UNL     1       7.839   4.473  18.392  0.00  0.00    +0.000 OA
ENDBRANCH  11  18
ENDBRANCH   1  15
BRANCH   7  21
ATOM     21  C   UNL     1      -0.345  11.345  21.330  0.00  0.00    +0.000 C 
BRANCH  21  22
ATOM     22  C   UNL     1      -0.765  12.754  20.807  0.00  0.00    +0.000 C 
ATOM     23  C   UNL     1       0.233  13.893  21.052  0.00  0.00    +0.000 C 
ATOM     24  C   UNL     1       0.106  14.610  22.399  0.00  0.00    +0.000 C 
ATOM     25  C   UNL     1      -1.294  14.637  23.025  0.00  0.00    +0.000 C 
ATOM     26  N   UNL     1      -2.112  13.441  22.767  0.00  0.00    +0.000 NA
ATOM     27  C   UNL     1      -2.144  13.156  21.333  0.00  0.00    +0.000 C 
BRANCH  26  28
ATOM     28  C   UNL     1      -3.476  13.593  23.323  0.00  0.00    +0.000 C 
ATOM     29  C   UNL     1      -4.008  12.619  24.344  0.00  0.00    +0.000 C 
ATOM     30  C   UNL     1      -3.611  13.998  24.766  0.00  0.00    +0.000 C 
ENDBRANCH  26  28
ENDBRANCH  21  22
ENDBRANCH   7  21
TORSDOF 5
ENDMDL
MODEL 2
REMARK VINA RESULT:      -7.7      1.907      3.128
REMARK  Name = 
REMARK  6 active torsions:
REMARK  status: ('A' for Active; 'I' for Inactive)
REMARK    1  A    between atoms: C_1  and  S_2
REMARK    2  A    between atoms: S_2  and  C_5
REMARK    3  A    between atoms: C_9  and  N_10
REMARK    4  A    between atoms: N_16  and  C_17
REMARK    5  A    between atoms: C_17  and  C_18
REMARK    6  A    between atoms: N_22  and  C_23
REMARK                            x       y       z     vdW  Elec       q    Type
REMARK                         _______ _______ _______ _____ _____    ______ ____
ROOT
ATOM      1  N   UNL     1       2.514   7.058  18.801  0.00  0.00    +0.000 N 
ATOM      2  C   UNL     1       1.941   7.052  20.053  0.00  0.00    +0.000 C 
ATOM      3  O   UNL     1       2.135   6.164  20.889  0.00  0.00    +0.000 OA
ATOM      4  N   UNL     1       1.115   8.124  20.349  0.00  0.00    +0.000 N 
ATOM      5  C   UNL     1       0.574   8.243  21.712  0.00  0.00    +0.000 C 
ATOM      6  C   UNL     1       0.997   9.582  22.374  0.00  0.00    +0.000 C 
ATOM      7  N   UNL     1       0.792  10.810  21.545  0.00  0.00    +0.000 NA
ATOM      8  C   UNL     1       1.383  10.555  20.212  0.00  0.00    +0.000 C 
ATOM      9  C   UNL     1       0.831   9.296  19.516  0.00  0.00    +0.000 C 
ATOM     10  H   UNL     1       2.491   7.919  18.286  0.00  0.00    +0.000 HD
ENDROOT
BRANCH   1  15
ATOM     11  C   UNL     1       5.516   5.295  17.572  0.00  0.00    +0.000 A 
ATOM     12  C   UNL     1       4.985   4.105  17.070  0.00  0.00    +0.000 A 
ATOM     13  C   UNL     1       3.620   3.883  17.152  0.00  0.00    +0.000 A 
ATOM     14  C   UNL     1       2.781   4.853  17.718  0.00  0.00    +0.000 A 
ATOM     15  C   UNL     1       3.308   6.042  18.230  0.00  0.00    +0.000 A 
ATOM     16  C   UNL     1       4.686   6.267  18.148  0.00  0.00    +0.000 A 
BRANCH  11  18
ATOM     17  C   UNL     1       7.777   5.901  19.071  0.00  0.00    +0.000 C 
ATOM     18  S   UNL     1       7.248   5.630  17.406  0.00  0.00    +0.000 S 
ATOM     19  O   UNL     1       7.384   6.882  16.682  0.00  0.00    +0.000 OA
ATOM     20  O   UNL     1       7.882   4.426  16.918  0.00  0.00    +0.000 OA
ENDBRANCH  11  18
ENDBRANCH   1  15
BRANCH   7  21
ATOM     21  C   UNL     1      -0.639  11.201  21.497  0.00  0.00    +0.000 C 
BRANCH  21  22
ATOM     22  C   UNL     1      -0.951  12.582  20.840  0.00  0.00    +0.000 C 
ATOM     23  C   UNL     1      -1.934  13.486  21.595  0.00  0.00    +0.000 C 
ATOM     24  C   UNL     1      -3.416  13.263  21.282  0.00  0.00    +0.000 C 
ATOM     25  C   UNL     1      -3.743  12.736  19.879  0.00  0.00    +0.000 C 
ATOM     26  N   UNL     1      -2.743  11.818  19.312  0.00  0.00    +0.000 NA
ATOM     27  C   UNL     1      -1.412  12.417  19.390  0.00  0.00    +0.000 C 
BRANCH  26  28
ATOM     28  C   UNL     1      -3.089  11.437  17.924  0.00  0.00    +0.000 C 
ATOM     29  C   UNL     1      -3.227   9.988  17.530  0.00  0.00    +0.000 C 
ATOM     30  C   UNL     1      -4.448  10.841  17.671  0.00  0.00    +0.000 C 
ENDBRANCH  26  28
ENDBRANCH  21  22
ENDBRANCH   7  21
TORSDOF 5
ENDMDL
MODEL 3
REMARK VINA RESULT:      -7.6      1.973      3.348
REMARK  Name = 
REMARK  6 active torsions:
REMARK  status: ('A' for Active; 'I' for Inactive)
REMARK    1  A    between atoms: C_1  and  S_2
REMARK    2  A    between atoms: S_2  and  C_5
REMARK    3  A    between atoms: C_9  and  N_10
REMARK    4  A    between atoms: N_16  and  C_17
REMARK    5  A    between atoms: C_17  and  C_18
REMARK    6  A    between atoms: N_22  and  C_23
REMARK                            x       y       z     vdW  Elec       q    Type
REMARK                         _______ _______ _______ _____ _____    ______ ____
ROOT
ATOM      1  N   UNL     1       2.444   6.883  18.617  0.00  0.00    +0.000 N 
ATOM      2  C   UNL     1       1.999   6.933  19.920  0.00  0.00    +0.000 C 
ATOM      3  O   UNL     1       2.276   6.082  20.770  0.00  0.00    +0.000 OA
ATOM      4  N   UNL     1       1.205   8.020  20.249  0.00  0.00    +0.000 N 
ATOM      5  C   UNL     1       0.802   8.199  21.652  0.00  0.00    +0.000 C 
ATOM      6  C   UNL     1       1.287   9.564  22.210  0.00  0.00    +0.000 C 
ATOM      7  N   UNL     1       0.999  10.756  21.353  0.00  0.00    +0.000 NA
ATOM      8  C   UNL     1       1.454  10.442  19.980  0.00  0.00    +0.000 C 
ATOM      9  C   UNL     1       0.838   9.155  19.398  0.00  0.00    +0.000 C 
ATOM     10  H   UNL     1       2.369   7.721  18.070  0.00  0.00    +0.000 HD
ENDROOT
BRANCH   1  15
ATOM     11  C   UNL     1       5.274   5.106  17.048  0.00  0.00    +0.000 A 
ATOM     12  C   UNL     1       4.728   3.852  16.768  0.00  0.00    +0.000 A 
ATOM     13  C   UNL     1       3.411   3.593  17.114  0.00  0.00    +0.000 A 
ATOM     14  C   UNL     1       2.634   4.587  17.723  0.00  0.00    +0.000 A 
ATOM     15  C   UNL     1       3.179   5.841  18.015  0.00  0.00    +0.000 A 
ATOM     16  C   UNL     1       4.508   6.103  17.666  0.00  0.00    +0.000 A 
BRANCH  11  18
ATOM     17  C   UNL     1       6.973   4.966  14.852  0.00  0.00    +0.000 C 
ATOM     18  S   UNL     1       6.931   5.482  16.543  0.00  0.00    +0.000 S 
ATOM     19  O   UNL     1       7.824   4.621  17.297  0.00  0.00    +0.000 OA
ATOM     20  O   UNL     1       7.086   6.918  16.584  0.00  0.00    +0.000 OA
ENDBRANCH  11  18
ENDBRANCH   1  15
BRANCH   7  21
ATOM     21  C   UNL     1      -0.431  11.149  21.431  0.00  0.00    +0.000 C 
BRANCH  21  22
ATOM     22  C   UNL     1      -0.800  12.522  20.788  0.00  0.00    +0.000 C 
ATOM     23  C   UNL     1      -1.940  13.300  21.458  0.00  0.00    +0.000 C 
ATOM     24  C   UNL     1      -3.352  12.956  20.975  0.00  0.00    +0.000 C 
ATOM     25  C   UNL     1      -3.474  12.463  19.528  0.00  0.00    +0.000 C 
ATOM     26  N   UNL     1      -2.336  11.664  19.047  0.00  0.00    +0.000 NA
ATOM     27  C   UNL     1      -1.084  12.379  19.292  0.00  0.00    +0.000 C 
BRANCH  26  28
ATOM     28  C   UNL     1      -2.493  11.314  17.617  0.00  0.00    +0.000 C 
ATOM     29  C   UNL     1      -2.080   9.957  17.103  0.00  0.00    +0.000 C 
ATOM     30  C   UNL     1      -3.532  10.289  17.249  0.00  0.00    +0.000 C 
ENDBRANCH  26  28
ENDBRANCH  21  22
ENDBRANCH   7  21
TORSDOF 5
ENDMDL
MODEL 4
REMARK VINA RESULT:      -7.6      1.179      1.546
REMARK  Name = 
REMARK  6 active torsions:
REMARK  status: ('A' for Active; 'I' for Inactive)
REMARK    1  A    between atoms: C_1  and  S_2
REMARK    2  A    between atoms: S_2  and  C_5
REMARK    3  A    between atoms: C_9  and  N_10
REMARK    4  A    between atoms: N_16  and  C_17
REMARK    5  A    between atoms: C_17  and  C_18
REMARK    6  A    between atoms: N_22  and  C_23
REMARK                            x       y       z     vdW  Elec       q    Type
REMARK                         _______ _______ _______ _____ _____    ______ ____
ROOT
ATOM      1  N   UNL     1       2.574   7.423  18.179  0.00  0.00    +0.000 N 
ATOM      2  C   UNL     1       1.934   7.801  19.340  0.00  0.00    +0.000 C 
ATOM      3  O   UNL     1       1.984   7.153  20.389  0.00  0.00    +0.000 OA
ATOM      4  N   UNL     1       1.215   8.983  19.279  0.00  0.00    +0.000 N 
ATOM      5  C   UNL     1       0.615   9.507  20.516  0.00  0.00    +0.000 C 
ATOM      6  C   UNL     1       1.142  10.930  20.841  0.00  0.00    +0.000 C 
ATOM      7  N   UNL     1       1.119  11.908  19.710  0.00  0.00    +0.000 NA
ATOM      8  C   UNL     1       1.751  11.256  18.541  0.00  0.00    +0.000 C 
ATOM      9  C   UNL     1       1.106   9.913  18.151  0.00  0.00    +0.000 C 
ATOM     10  H   UNL     1       2.672   8.115  17.459  0.00  0.00    +0.000 HD
ENDROOT
BRANCH   1  15
ATOM     11  C   UNL     1       5.425   5.146  17.616  0.00  0.00    +0.000 A 
ATOM     12  C   UNL     1       4.799   3.907  17.472  0.00  0.00    +0.000 A 
ATOM     13  C   UNL     1       3.420   3.826  17.574  0.00  0.00    +0.000 A 
ATOM     14  C   UNL     1       2.662   4.982  17.802  0.00  0.00    +0.000 A 
ATOM     15  C   UNL     1       3.284   6.224  17.958  0.00  0.00    +0.000 A 
ATOM     16  C   UNL     1       4.675   6.306  17.855  0.00  0.00    +0.000 A 
BRANCH  11  18
ATOM     17  C   UNL     1       7.475   7.021  17.519  0.00  0.00    +0.000 C 
ATOM     18  S   UNL     1       7.180   5.281  17.412  0.00  0.00    +0.000 S 
ATOM     19  O   UNL     1       7.497   4.853  16.062  0.00  0.00    +0.000 OA
ATOM     20  O   UNL     1       7.803   4.644  18.551  0.00  0.00    +0.000 OA
ENDBRANCH  11  18
ENDBRANCH   1  15
BRANCH   7  21
ATOM     21  C   UNL     1      -0.257  12.399  19.445  0.00  0.00    +0.000 C 
BRANCH  21  22
ATOM     22  C   UNL     1      -0.511  13.912  19.731  0.00  0.00    +0.000 C 
ATOM     23  C   UNL     1       0.638  14.678  20.399  0.00  0.00    +0.000 C 
ATOM     24  C   UNL     1       0.666  14.631  21.929  0.00  0.00    +0.000 C 
ATOM     25  C   UNL     1      -0.688  14.468  22.630  0.00  0.00    +0.000 C 
ATOM     26  N   UNL     1      -1.667  13.642  21.904  0.00  0.00    +0.000 NA
ATOM     27  C   UNL     1      -1.801  14.120  20.529  0.00  0.00    +0.000 C 
BRANCH  26  28
ATOM     28  C   UNL     1      -2.972  13.619  22.603  0.00  0.00    +0.000 C 
ATOM     29  C   UNL     1      -3.363  12.449  23.472  0.00  0.00    +0.000 C 
ATOM     30  C   UNL     1      -2.975  13.750  24.102  0.00  0.00    +0.000 C 
ENDBRANCH  26  28
ENDBRANCH  21  22
ENDBRANCH   7  21
TORSDOF 5
ENDMDL
MODEL 5
REMARK VINA RESULT:      -7.5      1.651      2.189
REMARK  Name = 
REMARK  6 active torsions:
REMARK  status: ('A' for Active; 'I' for Inactive)
REMARK    1  A    between atoms: C_1  and  S_2
REMARK    2  A    between atoms: S_2  and  C_5
REMARK    3  A    between atoms: C_9  and  N_10
REMARK    4  A    between atoms: N_16  and  C_17
REMARK    5  A    between atoms: C_17  and  C_18
REMARK    6  A    between atoms: N_22  and  C_23
REMARK                            x       y       z     vdW  Elec       q    Type
REMARK                         _______ _______ _______ _____ _____    ______ ____
ROOT
ATOM      1  N   UNL     1       2.451   7.274  18.285  0.00  0.00    +0.000 N 
ATOM      2  C   UNL     1       1.897   7.568  19.512  0.00  0.00    +0.000 C 
ATOM      3  O   UNL     1       2.081   6.888  20.525  0.00  0.00    +0.000 OA
ATOM      4  N   UNL     1       1.105   8.703  19.563  0.00  0.00    +0.000 N 
ATOM      5  C   UNL     1       0.588   9.143  20.868  0.00  0.00    +0.000 C 
ATOM      6  C   UNL     1       1.055  10.584  21.205  0.00  0.00    +0.000 C 
ATOM      7  N   UNL     1       0.870  11.598  20.121  0.00  0.00    +0.000 NA
ATOM      8  C   UNL     1       1.434  11.031  18.875  0.00  0.00    +0.000 C 
ATOM      9  C   UNL     1       0.839   9.664  18.488  0.00  0.00    +0.000 C 
ATOM     10  H   UNL     1       2.442   7.997  17.588  0.00  0.00    +0.000 HD
ENDROOT
BRANCH   1  15
ATOM     11  C   UNL     1       5.370   5.210  17.363  0.00  0.00    +0.000 A 
ATOM     12  C   UNL     1       4.813   3.935  17.239  0.00  0.00    +0.000 A 
ATOM     13  C   UNL     1       3.459   3.759  17.475  0.00  0.00    +0.000 A 
ATOM     14  C   UNL     1       2.656   4.856  17.818  0.00  0.00    +0.000 A 
ATOM     15  C   UNL     1       3.210   6.132  17.953  0.00  0.00    +0.000 A 
ATOM     16  C   UNL     1       4.576   6.310  17.715  0.00  0.00    +0.000 A 
BRANCH  11  18
ATOM     17  C   UNL     1       7.459   6.987  17.810  0.00  0.00    +0.000 C 
ATOM     18  S   UNL     1       7.083   5.467  16.989  0.00  0.00    +0.000 S 
ATOM     19  O   UNL     1       7.190   5.690  15.559  0.00  0.00    +0.000 OA
ATOM     20  O   UNL     1       7.833   4.409  17.627  0.00  0.00    +0.000 OA
ENDBRANCH  11  18
ENDBRANCH   1  15
BRANCH   7  21
ATOM     21  C   UNL     1      -0.551  12.010  19.998  0.00  0.00    +0.000 C 
BRANCH  21  22
ATOM     22  C   UNL     1      -0.992  13.222  20.876  0.00  0.00    +0.000 C 
ATOM     23  C   UNL     1      -0.876  13.038  22.395  0.00  0.00    +0.000 C 
ATOM     24  C   UNL     1      -2.087  12.398  23.080  0.00  0.00    +0.000 C 
ATOM     25  C   UNL     1      -3.448  12.631  22.413  0.00  0.00    +0.000 C 
ATOM     26  N   UNL     1      -3.413  12.712  20.944  0.00  0.00    +0.000 NA
ATOM     27  C   UNL     1      -2.407  13.683  20.520  0.00  0.00    +0.000 C 
BRANCH  26  28
ATOM     28  C   UNL     1      -4.749  13.034  20.393  0.00  0.00    +0.000 C 
ATOM     29  C   UNL     1      -5.670  11.942  19.909  0.00  0.00    +0.000 C 
ATOM     30  C   UNL     1      -5.960  12.645  21.198  0.00  0.00    +0.000 C 
ENDBRANCH  26  28
ENDBRANCH  21  22
ENDBRANCH   7  21
TORSDOF 5
ENDMDL
MODEL 6
REMARK VINA RESULT:      -7.5      1.389      2.391
REMARK  Name = 
REMARK  6 active torsions:
REMARK  status: ('A' for Active; 'I' for Inactive)
REMARK    1  A    between atoms: C_1  and  S_2
REMARK    2  A    between atoms: S_2  and  C_5
REMARK    3  A    between atoms: C_9  and  N_10
REMARK    4  A    between atoms: N_16  and  C_17
REMARK    5  A    between atoms: C_17  and  C_18
REMARK    6  A    between atoms: N_22  and  C_23
REMARK                            x       y       z     vdW  Elec       q    Type
REMARK                         _______ _______ _______ _____ _____    ______ ____
ROOT
ATOM      1  N   UNL     1       2.565   6.898  19.002  0.00  0.00    +0.000 N 
ATOM      2  C   UNL     1       2.168   8.134  18.542  0.00  0.00    +0.000 C 
ATOM      3  O   UNL     1       2.244   8.480  17.360  0.00  0.00    +0.000 OA
ATOM      4  N   UNL     1       1.656   8.999  19.494  0.00  0.00    +0.000 N 
ATOM      5  C   UNL     1       1.096  10.285  19.050  0.00  0.00    +0.000 C 
ATOM      6  C   UNL     1      -0.392  10.429  19.465  0.00  0.00    +0.000 C 
ATOM      7  N   UNL     1      -0.704  10.108  20.892  0.00  0.00    +0.000 NA
ATOM      8  C   UNL     1      -0.089   8.798  21.202  0.00  0.00    +0.000 C 
ATOM      9  C   UNL     1       1.424   8.736  20.917  0.00  0.00    +0.000 C 
ATOM     10  H   UNL     1       2.255   6.622  19.915  0.00  0.00    +0.000 HD
ENDROOT
BRANCH   1  15
ATOM     11  C   UNL     1       5.204   5.125  17.123  0.00  0.00    +0.000 A 
ATOM     12  C   UNL     1       4.559   3.952  16.728  0.00  0.00    +0.000 A 
ATOM     13  C   UNL     1       3.241   3.743  17.100  0.00  0.00    +0.000 A 
ATOM     14  C   UNL     1       2.559   4.711  17.850  0.00  0.00    +0.000 A 
ATOM     15  C   UNL     1       3.202   5.884  18.256  0.00  0.00    +0.000 A 
ATOM     16  C   UNL     1       4.532   6.095  17.881  0.00  0.00    +0.000 A 
BRANCH  11  18
ATOM     17  C   UNL     1       6.882   4.857  14.924  0.00  0.00    +0.000 C 
ATOM     18  S   UNL     1       6.864   5.444  16.591  0.00  0.00    +0.000 S 
ATOM     19  O   UNL     1       7.745   4.598  17.376  0.00  0.00    +0.000 OA
ATOM     20  O   UNL     1       7.049   6.878  16.570  0.00  0.00    +0.000 OA
ENDBRANCH  11  18
ENDBRANCH   1  15
BRANCH   7  21
ATOM     21  C   UNL     1      -0.269  11.199  21.801  0.00  0.00    +0.000 C 
BRANCH  21  22
ATOM     22  C   UNL     1      -1.404  12.093  22.391  0.00  0.00    +0.000 C 
ATOM     23  C   UNL     1      -2.583  12.396  21.457  0.00  0.00    +0.000 C 
ATOM     24  C   UNL     1      -2.412  13.616  20.547  0.00  0.00    +0.000 C 
ATOM     25  C   UNL     1      -1.514  14.740  21.078  0.00  0.00    +0.000 C 
ATOM     26  N   UNL     1      -0.378  14.291  21.898  0.00  0.00    +0.000 NA
ATOM     27  C   UNL     1      -0.847  13.400  22.958  0.00  0.00    +0.000 C 
BRANCH  26  28
ATOM     28  C   UNL     1       0.376  15.441  22.446  0.00  0.00    +0.000 C 
ATOM     29  C   UNL     1       1.817  15.675  22.066  0.00  0.00    +0.000 C 
ATOM     30  C   UNL     1       0.745  16.558  21.507  0.00  0.00    +0.000 C 
ENDBRANCH  26  28
ENDBRANCH  21  22
ENDBRANCH   7  21
TORSDOF 5
ENDMDL
MODEL 7
REMARK VINA RESULT:      -7.4      1.292      2.145
REMARK  Name = 
REMARK  6 active torsions:
REMARK  status: ('A' for Active; 'I' for Inactive)
REMARK    1  A    between atoms: C_1  and  S_2
REMARK    2  A    between atoms: S_2  and  C_5
REMARK    3  A    between atoms: C_9  and  N_10
REMARK    4  A    between atoms: N_16  and  C_17
REMARK    5  A    between atoms: C_17  and  C_18
REMARK    6  A    between atoms: N_22  and  C_23
REMARK                            x       y       z     vdW  Elec       q    Type
REMARK                         _______ _______ _______ _____ _____    ______ ____
ROOT
ATOM      1  N   UNL     1       2.267   7.399  19.064  0.00  0.00    +0.000 N 
ATOM      2  C   UNL     1       1.895   8.605  18.512  0.00  0.00    +0.000 C 
ATOM      3  O   UNL     1       1.927   8.842  17.302  0.00  0.00    +0.000 OA
ATOM      4  N   UNL     1       1.460   9.572  19.404  0.00  0.00    +0.000 N 
ATOM      5  C   UNL     1       0.929  10.835  18.870  0.00  0.00    +0.000 C 
ATOM      6  C   UNL     1      -0.532  11.076  19.335  0.00  0.00    +0.000 C 
ATOM      7  N   UNL     1      -0.788  10.896  20.798  0.00  0.00    +0.000 NA
ATOM      8  C   UNL     1      -0.209   9.594  21.198  0.00  0.00    +0.000 C 
ATOM      9  C   UNL     1       1.286   9.444  20.854  0.00  0.00    +0.000 C 
ATOM     10  H   UNL     1       1.990   7.218  20.011  0.00  0.00    +0.000 HD
ENDROOT
BRANCH   1  15
ATOM     11  C   UNL     1       4.741   5.366  17.226  0.00  0.00    +0.000 A 
ATOM     12  C   UNL     1       4.040   4.185  16.979  0.00  0.00    +0.000 A 
ATOM     13  C   UNL     1       2.739   4.058  17.438  0.00  0.00    +0.000 A 
ATOM     14  C   UNL     1       2.129   5.116  18.127  0.00  0.00    +0.000 A 
ATOM     15  C   UNL     1       2.830   6.298  18.385  0.00  0.00    +0.000 A 
ATOM     16  C   UNL     1       4.143   6.425  17.922  0.00  0.00    +0.000 A 
BRANCH  11  18
ATOM     17  C   UNL     1       6.963   7.028  17.401  0.00  0.00    +0.000 C 
ATOM     18  S   UNL     1       6.379   5.575  16.580  0.00  0.00    +0.000 S 
ATOM     19  O   UNL     1       6.256   5.877  15.165  0.00  0.00    +0.000 OA
ATOM     20  O   UNL     1       7.171   4.452  17.027  0.00  0.00    +0.000 OA
ENDBRANCH  11  18
ENDBRANCH   1  15
BRANCH   7  21
ATOM     21  C   UNL     1      -0.271  12.044  21.585  0.00  0.00    +0.000 C 
BRANCH  21  22
ATOM     22  C   UNL     1      -1.067  12.401  22.879  0.00  0.00    +0.000 C 
ATOM     23  C   UNL     1      -2.514  11.898  22.946  0.00  0.00    +0.000 C 
ATOM     24  C   UNL     1      -3.567  12.818  22.322  0.00  0.00    +0.000 C 
ATOM     25  C   UNL     1      -3.250  14.319  22.333  0.00  0.00    +0.000 C 
ATOM     26  N   UNL     1      -1.824  14.653  22.184  0.00  0.00    +0.000 NA
ATOM     27  C   UNL     1      -1.031  13.905  23.158  0.00  0.00    +0.000 C 
BRANCH  26  28
ATOM     28  C   UNL     1      -1.600  16.112  22.303  0.00  0.00    +0.000 C 
ATOM     29  C   UNL     1      -0.960  16.890  21.180  0.00  0.00    +0.000 C 
ATOM     30  C   UNL     1      -2.427  17.027  21.441  0.00  0.00    +0.000 C 
ENDBRANCH  26  28
ENDBRANCH  21  22
ENDBRANCH   7  21
TORSDOF 5
ENDMDL
MODEL 8
REMARK VINA RESULT:      -7.4      1.425      2.353
REMARK  Name = 
REMARK  6 active torsions:
REMARK  status: ('A' for Active; 'I' for Inactive)
REMARK    1  A    between atoms: C_1  and  S_2
REMARK    2  A    between atoms: S_2  and  C_5
REMARK    3  A    between atoms: C_9  and  N_10
REMARK    4  A    between atoms: N_16  and  C_17
REMARK    5  A    between atoms: C_17  and  C_18
REMARK    6  A    between atoms: N_22  and  C_23
REMARK                            x       y       z     vdW  Elec       q    Type
REMARK                         _______ _______ _______ _____ _____    ______ ____
ROOT
ATOM      1  N   UNL     1       2.288   7.202  19.249  0.00  0.00    +0.000 N 
ATOM      2  C   UNL     1       1.835   8.391  18.722  0.00  0.00    +0.000 C 
ATOM      3  O   UNL     1       1.770   8.620  17.511  0.00  0.00    +0.000 OA
ATOM      4  N   UNL     1       1.432   9.347  19.639  0.00  0.00    +0.000 N 
ATOM      5  C   UNL     1       0.818  10.588  19.141  0.00  0.00    +0.000 C 
ATOM      6  C   UNL     1      -0.613  10.780  19.710  0.00  0.00    +0.000 C 
ATOM      7  N   UNL     1      -0.755  10.600  21.188  0.00  0.00    +0.000 NA
ATOM      8  C   UNL     1      -0.102   9.322  21.549  0.00  0.00    +0.000 C 
ATOM      9  C   UNL     1       1.368   9.223  21.098  0.00  0.00    +0.000 C 
ATOM     10  H   UNL     1       2.087   7.017  20.215  0.00  0.00    +0.000 HD
ENDROOT
BRANCH   1  15
ATOM     11  C   UNL     1       4.768   5.167  17.421  0.00  0.00    +0.000 A 
ATOM     12  C   UNL     1       4.031   4.035  17.069  0.00  0.00    +0.000 A 
ATOM     13  C   UNL     1       2.703   3.942  17.453  0.00  0.00    +0.000 A 
ATOM     14  C   UNL     1       2.104   4.985  18.172  0.00  0.00    +0.000 A 
ATOM     15  C   UNL     1       2.839   6.117  18.535  0.00  0.00    +0.000 A 
ATOM     16  C   UNL     1       4.180   6.210  18.149  0.00  0.00    +0.000 A 
BRANCH  11  18
ATOM     17  C   UNL     1       6.436   4.574  15.278  0.00  0.00    +0.000 C 
ATOM     18  S   UNL     1       6.445   5.337  16.873  0.00  0.00    +0.000 S 
ATOM     19  O   UNL     1       7.276   4.533  17.751  0.00  0.00    +0.000 OA
ATOM     20  O   UNL     1       6.708   6.748  16.700  0.00  0.00    +0.000 OA
ENDBRANCH  11  18
ENDBRANCH   1  15
BRANCH   7  21
ATOM     21  C   UNL     1      -0.223  11.771  21.931  0.00  0.00    +0.000 C 
BRANCH  21  22
ATOM     22  C   UNL     1      -1.167  12.381  23.014  0.00  0.00    +0.000 C 
ATOM     23  C   UNL     1      -2.617  11.881  23.009  0.00  0.00    +0.000 C 
ATOM     24  C   UNL     1      -3.575  12.634  22.082  0.00  0.00    +0.000 C 
ATOM     25  C   UNL     1      -3.246  14.107  21.814  0.00  0.00    +0.000 C 
ATOM     26  N   UNL     1      -1.809  14.424  21.772  0.00  0.00    +0.000 NA
ATOM     27  C   UNL     1      -1.149  13.910  22.971  0.00  0.00    +0.000 C 
BRANCH  26  28
ATOM     28  C   UNL     1      -1.585  15.878  21.606  0.00  0.00    +0.000 C 
ATOM     29  C   UNL     1      -0.889  16.418  20.382  0.00  0.00    +0.000 C 
ATOM     30  C   UNL     1      -2.366  16.597  20.540  0.00  0.00    +0.000 C 
ENDBRANCH  26  28
ENDBRANCH  21  22
ENDBRANCH   7  21
TORSDOF 5
ENDMDL
MODEL 9
REMARK VINA RESULT:      -7.4      1.088      1.241
REMARK  Name = 
REMARK  6 active torsions:
REMARK  status: ('A' for Active; 'I' for Inactive)
REMARK    1  A    between atoms: C_1  and  S_2
REMARK    2  A    between atoms: S_2  and  C_5
REMARK    3  A    between atoms: C_9  and  N_10
REMARK    4  A    between atoms: N_16  and  C_17
REMARK    5  A    between atoms: C_17  and  C_18
REMARK    6  A    between atoms: N_22  and  C_23
REMARK                            x       y       z     vdW  Elec       q    Type
REMARK                         _______ _______ _______ _____ _____    ______ ____
ROOT
ATOM      1  N   UNL     1       2.276   7.408  18.927  0.00  0.00    +0.000 N 
ATOM      2  C   UNL     1       1.975   8.643  18.395  0.00  0.00    +0.000 C 
ATOM      3  O   UNL     1       2.143   8.934  17.208  0.00  0.00    +0.000 OA
ATOM      4  N   UNL     1       1.451   9.573  19.277  0.00  0.00    +0.000 N 
ATOM      5  C   UNL     1       0.990  10.866  18.748  0.00  0.00    +0.000 C 
ATOM      6  C   UNL     1      -0.512  11.102  19.059  0.00  0.00    +0.000 C 
ATOM      7  N   UNL     1      -0.929  10.858  20.475  0.00  0.00    +0.000 NA
ATOM      8  C   UNL     1      -0.407   9.532  20.875  0.00  0.00    +0.000 C 
ATOM      9  C   UNL     1       1.116   9.381  20.691  0.00  0.00    +0.000 C 
ATOM     10  H   UNL     1       1.894   7.188  19.829  0.00  0.00    +0.000 HD
ENDROOT
BRANCH   1  15
ATOM     11  C   UNL     1       4.866   5.500  17.117  0.00  0.00    +0.000 A 
ATOM     12  C   UNL     1       4.236   4.275  16.888  0.00  0.00    +0.000 A 
ATOM     13  C   UNL     1       2.945   4.078  17.350  0.00  0.00    +0.000 A 
ATOM     14  C   UNL     1       2.274   5.108  18.024  0.00  0.00    +0.000 A 
ATOM     15  C   UNL     1       2.903   6.333  18.264  0.00  0.00    +0.000 A 
ATOM     16  C   UNL     1       4.206   6.531  17.798  0.00  0.00    +0.000 A 
BRANCH  11  18
ATOM     17  C   UNL     1       7.487   4.589  17.286  0.00  0.00    +0.000 C 
ATOM     18  S   UNL     1       6.488   5.796  16.466  0.00  0.00    +0.000 S 
ATOM     19  O   UNL     1       6.908   7.109  16.919  0.00  0.00    +0.000 OA
ATOM     20  O   UNL     1       6.458   5.478  15.056  0.00  0.00    +0.000 OA
ENDBRANCH  11  18
ENDBRANCH   1  15
BRANCH   7  21
ATOM     21  C   UNL     1      -0.495  11.963  21.367  0.00  0.00    +0.000 C 
BRANCH  21  22
ATOM     22  C   UNL     1      -0.740  13.410  20.836  0.00  0.00    +0.000 C 
ATOM     23  C   UNL     1       0.456  14.368  20.901  0.00  0.00    +0.000 C 
ATOM     24  C   UNL     1       0.626  15.129  22.219  0.00  0.00    +0.000 C 
ATOM     25  C   UNL     1      -0.657  15.409  23.012  0.00  0.00    +0.000 C 
ATOM     26  N   UNL     1      -1.688  14.364  22.914  0.00  0.00    +0.000 NA
ATOM     27  C   UNL     1      -1.953  14.053  21.510  0.00  0.00    +0.000 C 
BRANCH  26  28
ATOM     28  C   UNL     1      -2.923  14.759  23.628  0.00  0.00    +0.000 C 
ATOM     29  C   UNL     1      -3.574  13.829  24.621  0.00  0.00    +0.000 C 
ATOM     30  C   UNL     1      -2.829  15.034  25.105  0.00  0.00    +0.000 C 
ENDBRANCH  26  28
ENDBRANCH  21  22
ENDBRANCH   7  21
TORSDOF 5
ENDMDL
