MODEL 1
REMARK VINA RESULT:      -6.5      0.000      0.000
REMARK  Name = 
REMARK  3 active torsions:
REMARK  status: ('A' for Active; 'I' for Inactive)
REMARK    1  A    between atoms: C_1  and  S_2
REMARK    2  A    between atoms: S_2  and  C_3
REMARK    3  A    between atoms: N_16  and  C_17
REMARK                            x       y       z     vdW  Elec       q    Type
REMARK                         _______ _______ _______ _____ _____    ______ ____
ROOT
ATOM      1  C   UNL     1       0.933   9.433  19.666  0.00  0.00    +0.000 A 
ATOM      2  C   UNL     1       1.943   9.461  18.675  0.00  0.00    +0.000 A 
ATOM      3 CL   UNL     1       2.248  10.873  17.707  0.00  0.00    +0.000 Cl
ATOM      4  C   UNL     1       2.770   8.349  18.418  0.00  0.00    +0.000 A 
ATOM      5  C   UNL     1       2.612   7.201  19.170  0.00  0.00    +0.000 A 
ATOM      6  C   UNL     1       1.631   7.175  20.174  0.00  0.00    +0.000 A 
ATOM      7  C   UNL     1       0.783   8.256  20.421  0.00  0.00    +0.000 A 
ATOM      8 CL   UNL     1      -0.432   8.085  21.644  0.00  0.00    +0.000 Cl
ATOM      9  C   UNL     1       1.594   5.838  20.853  0.00  0.00    +0.000 C 
ATOM     10  C   UNL     1       2.879   5.206  20.341  0.00  0.00    +0.000 C 
ATOM     11  N   UNL     1       3.295   5.965  19.150  0.00  0.00    +0.000 N 
ATOM     12  C   UNL     1       4.224   5.361  18.320  0.00  0.00    +0.000 C 
ATOM     13  O   UNL     1       4.663   4.248  18.617  0.00  0.00    +0.000 OA
ATOM     14  N   UNL     1       4.588   6.016  17.174  0.00  0.00    +0.000 N 
ATOM     15  H   UNL     1       4.553   7.015  17.201  0.00  0.00    +0.000 HD
ENDROOT
BRANCH  14  16
ATOM     16  C   UNL     1       5.356   5.462  16.118  0.00  0.00    +0.000 A 
ATOM     17  C   UNL     1       4.834   4.633  15.127  0.00  0.00    +0.000 A 
ATOM     18  C   UNL     1       5.671   4.107  14.142  0.00  0.00    +0.000 A 
ATOM     19  C   UNL     1       7.011   4.447  14.165  0.00  0.00    +0.000 A 
ATOM     20  N   UNL     1       7.554   5.275  15.081  0.00  0.00    +0.000 NA
ATOM     21  C   UNL     1       6.715   5.763  16.028  0.00  0.00    +0.000 A 
ENDBRANCH  14  16
BRANCH   1  23
ATOM     22  C   UNL     1      -1.368  10.579  18.705  0.00  0.00    +0.000 C 
ATOM     23  S   UNL     1      -0.109  10.872  19.974  0.00  0.00    +0.000 S 
ENDBRANCH   1  23
TORSDOF 2
ENDMDL
MODEL 2
REMARK VINA RESULT:      -6.5      3.873      7.473
REMARK  Name = 
REMARK  3 active torsions:
REMARK  status: ('A' for Active; 'I' for Inactive)
REMARK    1  A    between atoms: C_1  and  S_2
REMARK    2  A    between atoms: S_2  and  C_3
REMARK    3  A    between atoms: N_16  and  C_17
REMARK                            x       y       z     vdW  Elec       q    Type
REMARK                         _______ _______ _______ _____ _____    ______ ____
ROOT
ATOM      1  C   UNL     1       2.976   3.785  18.616  0.00  0.00    +0.000 A 
ATOM      2  C   UNL     1       2.002   4.552  19.297  0.00  0.00    +0.000 A 
ATOM      3 CL   UNL     1       0.909   3.843  20.448  0.00  0.00    +0.000 Cl
ATOM      4  C   UNL     1       1.863   5.939  19.092  0.00  0.00    +0.000 A 
ATOM      5  C   UNL     1       2.718   6.582  18.218  0.00  0.00    +0.000 A 
ATOM      6  C   UNL     1       3.706   5.833  17.559  0.00  0.00    +0.000 A 
ATOM      7  C   UNL     1       3.837   4.454  17.727  0.00  0.00    +0.000 A 
ATOM      8 CL   UNL     1       5.053   3.625  16.812  0.00  0.00    +0.000 Cl
ATOM      9  C   UNL     1       4.508   6.700  16.634  0.00  0.00    +0.000 C 
ATOM     10  C   UNL     1       4.077   8.090  17.076  0.00  0.00    +0.000 C 
ATOM     11  N   UNL     1       2.826   7.938  17.837  0.00  0.00    +0.000 N 
ATOM     12  C   UNL     1       2.070   9.082  18.028  0.00  0.00    +0.000 C 
ATOM     13  O   UNL     1       2.478  10.154  17.577  0.00  0.00    +0.000 OA
ATOM     14  N   UNL     1       0.873   8.964  18.680  0.00  0.00    +0.000 N 
ATOM     15  H   UNL     1       0.804   8.230  19.357  0.00  0.00    +0.000 HD
ENDROOT
BRANCH  14  16
ATOM     16  C   UNL     1      -0.115   9.977  18.779  0.00  0.00    +0.000 A 
ATOM     17  C   UNL     1      -1.110  10.191  17.827  0.00  0.00    +0.000 A 
ATOM     18  C   UNL     1      -2.023  11.232  17.991  0.00  0.00    +0.000 A 
ATOM     19  C   UNL     1      -1.926  12.023  19.122  0.00  0.00    +0.000 A 
ATOM     20  N   UNL     1      -1.005  11.831  20.087  0.00  0.00    +0.000 NA
ATOM     21  C   UNL     1      -0.128  10.814  19.895  0.00  0.00    +0.000 A 
ENDBRANCH  14  16
BRANCH   1  23
ATOM     22  C   UNL     1       4.459   2.044  20.132  0.00  0.00    +0.000 C 
ATOM     23  S   UNL     1       3.131   2.012  18.900  0.00  0.00    +0.000 S 
ENDBRANCH   1  23
TORSDOF 2
ENDMDL
MODEL 3
REMARK VINA RESULT:      -6.4      3.431      4.818
REMARK  Name = 
REMARK  3 active torsions:
REMARK  status: ('A' for Active; 'I' for Inactive)
REMARK    1  A    between atoms: C_1  and  S_2
REMARK    2  A    between atoms: S_2  and  C_3
REMARK    3  A    between atoms: N_16  and  C_17
REMARK                            x       y       z     vdW  Elec       q    Type
REMARK                         _______ _______ _______ _____ _____    ______ ____
ROOT
ATOM      1  C   UNL     1       0.216  11.168  21.217  0.00  0.00    +0.000 A 
ATOM      2  C   UNL     1       0.177   9.860  21.753  0.00  0.00    +0.000 A 
ATOM      3 CL   UNL     1      -0.558   9.513  23.290  0.00  0.00    +0.000 Cl
ATOM      4  C   UNL     1       0.724   8.754  21.070  0.00  0.00    +0.000 A 
ATOM      5  C   UNL     1       1.295   8.944  19.826  0.00  0.00    +0.000 A 
ATOM      6  C   UNL     1       1.312  10.235  19.275  0.00  0.00    +0.000 A 
ATOM      7  C   UNL     1       0.803  11.345  19.951  0.00  0.00    +0.000 A 
ATOM      8 CL   UNL     1       0.937  12.900  19.197  0.00  0.00    +0.000 Cl
ATOM      9  C   UNL     1       1.999  10.239  17.942  0.00  0.00    +0.000 C 
ATOM     10  C   UNL     1       2.091   8.751  17.646  0.00  0.00    +0.000 C 
ATOM     11  N   UNL     1       1.890   8.039  18.920  0.00  0.00    +0.000 N 
ATOM     12  C   UNL     1       2.283   6.712  18.960  0.00  0.00    +0.000 C 
ATOM     13  O   UNL     1       2.755   6.194  17.947  0.00  0.00    +0.000 OA
ATOM     14  N   UNL     1       2.164   6.040  20.147  0.00  0.00    +0.000 N 
ATOM     15  H   UNL     1       1.428   6.337  20.756  0.00  0.00    +0.000 HD
ENDROOT
BRANCH  14  16
ATOM     16  C   UNL     1       2.702   4.757  20.424  0.00  0.00    +0.000 A 
ATOM     17  C   UNL     1       3.751   4.181  19.710  0.00  0.00    +0.000 A 
ATOM     18  C   UNL     1       4.197   2.900  20.032  0.00  0.00    +0.000 A 
ATOM     19  C   UNL     1       3.590   2.234  21.081  0.00  0.00    +0.000 A 
ATOM     20  N   UNL     1       2.598   2.765  21.825  0.00  0.00    +0.000 NA
ATOM     21  C   UNL     1       2.183   4.009  21.481  0.00  0.00    +0.000 A 
ENDBRANCH  14  16
BRANCH   1  23
ATOM     22  C   UNL     1      -2.148  12.554  21.373  0.00  0.00    +0.000 C 
ATOM     23  S   UNL     1      -0.494  12.563  22.113  0.00  0.00    +0.000 S 
ENDBRANCH   1  23
TORSDOF 2
ENDMDL
MODEL 4
REMARK VINA RESULT:      -6.4      3.880      7.530
REMARK  Name = 
REMARK  3 active torsions:
REMARK  status: ('A' for Active; 'I' for Inactive)
REMARK    1  A    between atoms: C_1  and  S_2
REMARK    2  A    between atoms: S_2  and  C_3
REMARK    3  A    between atoms: N_16  and  C_17
REMARK                            x       y       z     vdW  Elec       q    Type
REMARK                         _______ _______ _______ _____ _____    ______ ____
ROOT
ATOM      1  C   UNL     1       2.997   3.788  18.692  0.00  0.00    +0.000 A 
ATOM      2  C   UNL     1       2.066   4.563  19.422  0.00  0.00    +0.000 A 
ATOM      3 CL   UNL     1       1.026   3.864  20.627  0.00  0.00    +0.000 Cl
ATOM      4  C   UNL     1       1.929   5.952  19.223  0.00  0.00    +0.000 A 
ATOM      5  C   UNL     1       2.744   6.587  18.307  0.00  0.00    +0.000 A 
ATOM      6  C   UNL     1       3.691   5.829  17.598  0.00  0.00    +0.000 A 
ATOM      7  C   UNL     1       3.817   4.448  17.760  0.00  0.00    +0.000 A 
ATOM      8 CL   UNL     1       4.979   3.609  16.785  0.00  0.00    +0.000 Cl
ATOM      9  C   UNL     1       4.453   6.689  16.634  0.00  0.00    +0.000 C 
ATOM     10  C   UNL     1       4.057   8.082  17.096  0.00  0.00    +0.000 C 
ATOM     11  N   UNL     1       2.844   7.941  17.920  0.00  0.00    +0.000 N 
ATOM     12  C   UNL     1       2.109   9.092  18.148  0.00  0.00    +0.000 C 
ATOM     13  O   UNL     1       2.503  10.161  17.676  0.00  0.00    +0.000 OA
ATOM     14  N   UNL     1       0.945   8.984  18.860  0.00  0.00    +0.000 N 
ATOM     15  H   UNL     1       0.905   8.252  19.541  0.00  0.00    +0.000 HD
ENDROOT
BRANCH  14  16
ATOM     16  C   UNL     1      -0.027  10.006  19.008  0.00  0.00    +0.000 A 
ATOM     17  C   UNL     1      -0.104  10.855  20.111  0.00  0.00    +0.000 A 
ATOM     18  C   UNL     1      -1.114  11.814  20.188  0.00  0.00    +0.000 A 
ATOM     19  C   UNL     1      -2.012  11.910  19.141  0.00  0.00    +0.000 A 
ATOM     20  N   UNL     1      -1.956  11.137  18.038  0.00  0.00    +0.000 NA
ATOM     21  C   UNL     1      -0.966  10.211  17.997  0.00  0.00    +0.000 A 
ENDBRANCH  14  16
BRANCH   1  23
ATOM     22  C   UNL     1       4.485   2.039  20.195  0.00  0.00    +0.000 C 
ATOM     23  S   UNL     1       3.151   2.013  18.969  0.00  0.00    +0.000 S 
ENDBRANCH   1  23
TORSDOF 2
ENDMDL
MODEL 5
REMARK VINA RESULT:      -6.3      3.240      4.695
REMARK  Name = 
REMARK  3 active torsions:
REMARK  status: ('A' for Active; 'I' for Inactive)
REMARK    1  A    between atoms: C_1  and  S_2
REMARK    2  A    between atoms: S_2  and  C_3
REMARK    3  A    between atoms: N_16  and  C_17
REMARK                            x       y       z     vdW  Elec       q    Type
REMARK                         _______ _______ _______ _____ _____    ______ ____
ROOT
ATOM      1  C   UNL     1       0.093  11.247  21.328  0.00  0.00    +0.000 A 
ATOM      2  C   UNL     1       0.035   9.904  21.768  0.00  0.00    +0.000 A 
ATOM      3 CL   UNL     1      -0.783   9.447  23.232  0.00  0.00    +0.000 Cl
ATOM      4  C   UNL     1       0.630   8.852  21.042  0.00  0.00    +0.000 A 
ATOM      5  C   UNL     1       1.269   9.132  19.849  0.00  0.00    +0.000 A 
ATOM      6  C   UNL     1       1.306  10.459  19.391  0.00  0.00    +0.000 A 
ATOM      7  C   UNL     1       0.750  11.515  20.114  0.00  0.00    +0.000 A 
ATOM      8 CL   UNL     1       0.912  13.120  19.479  0.00  0.00    +0.000 Cl
ATOM      9  C   UNL     1       2.068  10.560  18.103  0.00  0.00    +0.000 C 
ATOM     10  C   UNL     1       2.190   9.096  17.711  0.00  0.00    +0.000 C 
ATOM     11  N   UNL     1       1.923   8.296  18.917  0.00  0.00    +0.000 N 
ATOM     12  C   UNL     1       2.325   6.971  18.888  0.00  0.00    +0.000 C 
ATOM     13  O   UNL     1       2.859   6.528  17.869  0.00  0.00    +0.000 OA
ATOM     14  N   UNL     1       2.144   6.217  20.015  0.00  0.00    +0.000 N 
ATOM     15  H   UNL     1       1.373   6.467  20.601  0.00  0.00    +0.000 HD
ENDROOT
BRANCH  14  16
ATOM     16  C   UNL     1       2.677   4.921  20.232  0.00  0.00    +0.000 A 
ATOM     17  C   UNL     1       2.097   3.969  21.069  0.00  0.00    +0.000 A 
ATOM     18  C   UNL     1       2.708   2.728  21.247  0.00  0.00    +0.000 A 
ATOM     19  C   UNL     1       3.880   2.465  20.563  0.00  0.00    +0.000 A 
ATOM     20  N   UNL     1       4.459   3.339  19.714  0.00  0.00    +0.000 NA
ATOM     21  C   UNL     1       3.843   4.538  19.568  0.00  0.00    +0.000 A 
ENDBRANCH  14  16
BRANCH   1  23
ATOM     22  C   UNL     1      -2.316  12.550  21.501  0.00  0.00    +0.000 C 
ATOM     23  S   UNL     1      -0.679  12.572  22.276  0.00  0.00    +0.000 S 
ENDBRANCH   1  23
TORSDOF 2
ENDMDL
MODEL 6
REMARK VINA RESULT:      -6.2      4.134      7.926
REMARK  Name = 
REMARK  3 active torsions:
REMARK  status: ('A' for Active; 'I' for Inactive)
REMARK    1  A    between atoms: C_1  and  S_2
REMARK    2  A    between atoms: S_2  and  C_3
REMARK    3  A    between atoms: N_16  and  C_17
REMARK                            x       y       z     vdW  Elec       q    Type
REMARK                         _______ _______ _______ _____ _____    ______ ____
ROOT
ATOM      1  C   UNL     1       2.858   3.718  19.234  0.00  0.00    +0.000 A 
ATOM      2  C   UNL     1       2.267   4.369  20.341  0.00  0.00    +0.000 A 
ATOM      3 CL   UNL     1       1.802   3.508  21.778  0.00  0.00    +0.000 Cl
ATOM      4  C   UNL     1       2.025   5.758  20.352  0.00  0.00    +0.000 A 
ATOM      5  C   UNL     1       2.398   6.517  19.260  0.00  0.00    +0.000 A 
ATOM      6  C   UNL     1       3.012   5.882  18.168  0.00  0.00    +0.000 A 
ATOM      7  C   UNL     1       3.230   4.504  18.129  0.00  0.00    +0.000 A 
ATOM      8 CL   UNL     1       3.939   3.824  16.701  0.00  0.00    +0.000 Cl
ATOM      9  C   UNL     1       3.312   6.866  17.075  0.00  0.00    +0.000 C 
ATOM     10  C   UNL     1       3.091   8.188  17.792  0.00  0.00    +0.000 C 
ATOM     11  N   UNL     1       2.302   7.902  19.003  0.00  0.00    +0.000 N 
ATOM     12  C   UNL     1       1.684   8.981  19.612  0.00  0.00    +0.000 C 
ATOM     13  O   UNL     1       1.832  10.108  19.135  0.00  0.00    +0.000 OA
ATOM     14  N   UNL     1       0.895   8.741  20.705  0.00  0.00    +0.000 N 
ATOM     15  H   UNL     1       1.145   7.954  21.270  0.00  0.00    +0.000 HD
ENDROOT
BRANCH  14  16
ATOM     16  C   UNL     1       0.031   9.682  21.320  0.00  0.00    +0.000 A 
ATOM     17  C   UNL     1      -0.691  10.649  20.623  0.00  0.00    +0.000 A 
ATOM     18  C   UNL     1      -1.494  11.556  21.313  0.00  0.00    +0.000 A 
ATOM     19  C   UNL     1      -1.569  11.456  22.690  0.00  0.00    +0.000 A 
ATOM     20  N   UNL     1      -0.920  10.514  23.404  0.00  0.00    +0.000 NA
ATOM     21  C   UNL     1      -0.142   9.652  22.704  0.00  0.00    +0.000 A 
ENDBRANCH  14  16
BRANCH   1  23
ATOM     22  C   UNL     1       4.668   1.922  20.249  0.00  0.00    +0.000 C 
ATOM     23  S   UNL     1       3.157   1.940  19.250  0.00  0.00    +0.000 S 
ENDBRANCH   1  23
TORSDOF 2
ENDMDL
MODEL 7
REMARK VINA RESULT:      -6.1      4.000      7.122
REMARK  Name = 
REMARK  3 active torsions:
REMARK  status: ('A' for Active; 'I' for Inactive)
REMARK    1  A    between atoms: C_1  and  S_2
REMARK    2  A    between atoms: S_2  and  C_3
REMARK    3  A    between atoms: N_16  and  C_17
REMARK                            x       y       z     vdW  Elec       q    Type
REMARK                         _______ _______ _______ _____ _____    ______ ____
ROOT
ATOM      1  C   UNL     1       4.703   5.071  17.724  0.00  0.00    +0.000 A 
ATOM      2  C   UNL     1       4.217   6.329  17.299  0.00  0.00    +0.000 A 
ATOM      3 CL   UNL     1       4.771   7.087  15.836  0.00  0.00    +0.000 Cl
ATOM      4  C   UNL     1       3.247   7.043  18.032  0.00  0.00    +0.000 A 
ATOM      5  C   UNL     1       2.732   6.491  19.188  0.00  0.00    +0.000 A 
ATOM      6  C   UNL     1       3.189   5.229  19.602  0.00  0.00    +0.000 A 
ATOM      7  C   UNL     1       4.172   4.523  18.905  0.00  0.00    +0.000 A 
ATOM      8 CL   UNL     1       4.702   3.002  19.545  0.00  0.00    +0.000 Cl
ATOM      9  C   UNL     1       2.537   4.818  20.888  0.00  0.00    +0.000 C 
ATOM     10  C   UNL     1       1.420   5.843  21.000  0.00  0.00    +0.000 C 
ATOM     11  N   UNL     1       1.756   6.956  20.097  0.00  0.00    +0.000 N 
ATOM     12  C   UNL     1       1.079   8.147  20.297  0.00  0.00    +0.000 C 
ATOM     13  O   UNL     1       0.232   8.214  21.190  0.00  0.00    +0.000 OA
ATOM     14  N   UNL     1       1.410   9.218  19.512  0.00  0.00    +0.000 N 
ATOM     15  H   UNL     1       1.746   9.011  18.593  0.00  0.00    +0.000 HD
ENDROOT
BRANCH  14  16
ATOM     16  C   UNL     1       0.975  10.552  19.714  0.00  0.00    +0.000 A 
ATOM     17  C   UNL     1       0.212  11.271  18.796  0.00  0.00    +0.000 A 
ATOM     18  C   UNL     1      -0.147  12.591  19.064  0.00  0.00    +0.000 A 
ATOM     19  C   UNL     1       0.254  13.154  20.262  0.00  0.00    +0.000 A 
ATOM     20  N   UNL     1       0.961  12.487  21.197  0.00  0.00    +0.000 NA
ATOM     21  C   UNL     1       1.299  11.207  20.903  0.00  0.00    +0.000 A 
ENDBRANCH  14  16
BRANCH   1  23
ATOM     22  C   UNL     1       7.424   4.715  17.662  0.00  0.00    +0.000 C 
ATOM     23  S   UNL     1       5.943   4.180  16.765  0.00  0.00    +0.000 S 
ENDBRANCH   1  23
TORSDOF 2
ENDMDL
MODEL 8
REMARK VINA RESULT:      -6.0      4.028      7.066
REMARK  Name = 
REMARK  3 active torsions:
REMARK  status: ('A' for Active; 'I' for Inactive)
REMARK    1  A    between atoms: C_1  and  S_2
REMARK    2  A    between atoms: S_2  and  C_3
REMARK    3  A    between atoms: N_16  and  C_17
REMARK                            x       y       z     vdW  Elec       q    Type
REMARK                         _______ _______ _______ _____ _____    ______ ____
ROOT
ATOM      1  C   UNL     1       4.786   5.238  17.486  0.00  0.00    +0.000 A 
ATOM      2  C   UNL     1       4.378   6.450  16.883  0.00  0.00    +0.000 A 
ATOM      3 CL   UNL     1       4.985   6.961  15.336  0.00  0.00    +0.000 Cl
ATOM      4  C   UNL     1       3.448   7.315  17.494  0.00  0.00    +0.000 A 
ATOM      5  C   UNL     1       2.894   6.961  18.709  0.00  0.00    +0.000 A 
ATOM      6  C   UNL     1       3.273   5.745  19.302  0.00  0.00    +0.000 A 
ATOM      7  C   UNL     1       4.216   4.893  18.725  0.00  0.00    +0.000 A 
ATOM      8 CL   UNL     1       4.651   3.450  19.580  0.00  0.00    +0.000 Cl
ATOM      9  C   UNL     1       2.590   5.558  20.624  0.00  0.00    +0.000 C 
ATOM     10  C   UNL     1       1.535   6.652  20.575  0.00  0.00    +0.000 C 
ATOM     11  N   UNL     1       1.942   7.605  19.529  0.00  0.00    +0.000 N 
ATOM     12  C   UNL     1       1.335   8.850  19.551  0.00  0.00    +0.000 C 
ATOM     13  O   UNL     1       0.489   9.091  20.414  0.00  0.00    +0.000 OA
ATOM     14  N   UNL     1       1.735   9.779  18.629  0.00  0.00    +0.000 N 
ATOM     15  H   UNL     1       2.063   9.425  17.752  0.00  0.00    +0.000 HD
ENDROOT
BRANCH  14  16
ATOM     16  C   UNL     1       1.378  11.151  18.635  0.00  0.00    +0.000 A 
ATOM     17  C   UNL     1       2.291  12.195  18.494  0.00  0.00    +0.000 A 
ATOM     18  C   UNL     1       1.855  13.518  18.543  0.00  0.00    +0.000 A 
ATOM     19  C   UNL     1       0.504  13.762  18.713  0.00  0.00    +0.000 A 
ATOM     20  N   UNL     1      -0.421  12.787  18.816  0.00  0.00    +0.000 NA
ATOM     21  C   UNL     1       0.037  11.511  18.771  0.00  0.00    +0.000 A 
ENDBRANCH  14  16
BRANCH   1  23
ATOM     22  C   UNL     1       7.465   4.649  17.585  0.00  0.00    +0.000 C 
ATOM     23  S   UNL     1       5.977   4.150  16.680  0.00  0.00    +0.000 S 
ENDBRANCH   1  23
TORSDOF 2
ENDMDL
MODEL 9
REMARK VINA RESULT:      -6.0      3.990      7.164
REMARK  Name = 
REMARK  3 active torsions:
REMARK  status: ('A' for Active; 'I' for Inactive)
REMARK    1  A    between atoms: C_1  and  S_2
REMARK    2  A    between atoms: S_2  and  C_3
REMARK    3  A    between atoms: N_16  and  C_17
REMARK                            x       y       z     vdW  Elec       q    Type
REMARK                         _______ _______ _______ _____ _____    ______ ____
ROOT
ATOM      1  C   UNL     1       4.712   5.080  17.704  0.00  0.00    +0.000 A 
ATOM      2  C   UNL     1       4.219   6.334  17.275  0.00  0.00    +0.000 A 
ATOM      3 CL   UNL     1       4.766   7.089  15.808  0.00  0.00    +0.000 Cl
ATOM      4  C   UNL     1       3.247   7.046  18.007  0.00  0.00    +0.000 A 
ATOM      5  C   UNL     1       2.738   6.496  19.167  0.00  0.00    +0.000 A 
ATOM      6  C   UNL     1       3.201   5.237  19.585  0.00  0.00    +0.000 A 
ATOM      7  C   UNL     1       4.186   4.534  18.888  0.00  0.00    +0.000 A 
ATOM      8 CL   UNL     1       4.725   3.018  19.533  0.00  0.00    +0.000 Cl
ATOM      9  C   UNL     1       2.555   4.828  20.875  0.00  0.00    +0.000 C 
ATOM     10  C   UNL     1       1.433   5.849  20.985  0.00  0.00    +0.000 C 
ATOM     11  N   UNL     1       1.762   6.960  20.076  0.00  0.00    +0.000 N 
ATOM     12  C   UNL     1       1.079   8.148  20.274  0.00  0.00    +0.000 C 
ATOM     13  O   UNL     1       0.234   8.215  21.169  0.00  0.00    +0.000 OA
ATOM     14  N   UNL     1       1.404   9.218  19.484  0.00  0.00    +0.000 N 
ATOM     15  H   UNL     1       1.738   9.009  18.565  0.00  0.00    +0.000 HD
ENDROOT
BRANCH  14  16
ATOM     16  C   UNL     1       0.963  10.551  19.682  0.00  0.00    +0.000 A 
ATOM     17  C   UNL     1       1.374  11.360  20.740  0.00  0.00    +0.000 A 
ATOM     18  C   UNL     1       0.864  12.651  20.873  0.00  0.00    +0.000 A 
ATOM     19  C   UNL     1      -0.034  13.107  19.926  0.00  0.00    +0.000 A 
ATOM     20  N   UNL     1      -0.432  12.376  18.865  0.00  0.00    +0.000 NA
ATOM     21  C   UNL     1       0.077  11.123  18.768  0.00  0.00    +0.000 A 
ENDBRANCH  14  16
BRANCH   1  23
ATOM     22  C   UNL     1       7.436   4.759  17.619  0.00  0.00    +0.000 C 
ATOM     23  S   UNL     1       5.954   4.191  16.746  0.00  0.00    +0.000 S 
ENDBRANCH   1  23
TORSDOF 2
ENDMDL
