MODEL 1
REMARK VINA RESULT:      -8.4      0.000      0.000
REMARK  Name = 
REMARK  10 active torsions:
REMARK  status: ('A' for Active; 'I' for Inactive)
REMARK    1  A    between atoms: C_2  and  C_3
REMARK    2  A    between atoms: C_4  and  C_5
REMARK    3  A    between atoms: C_10  and  N_11
REMARK    4  A    between atoms: N_14  and  C_15
REMARK    5  A    between atoms: C_20  and  C_21
REMARK    6  A    between atoms: N_23  and  CA_24
REMARK    7  A    between atoms: CA_24  and  CB_25
REMARK    8  A    between atoms: CA_24  and  C_32
REMARK    9  A    between atoms: CB_25  and  CG_26
REMARK   10  A    between atoms: C_32  and  OXT_34
REMARK                            x       y       z     vdW  Elec       q    Type
REMARK                         _______ _______ _______ _____ _____    ______ ____
ROOT
ATOM      1  C   UNK A   0       0.438  10.937  19.664  0.00  0.00    +0.000 A 
ATOM      2  C   UNK A   0       1.149  11.665  20.627  0.00  0.00    +0.000 A 
ATOM      3  C   UNK A   0       0.747  12.959  20.991  0.00  0.00    +0.000 A 
ATOM      4  C   UNK A   0      -0.373  13.542  20.403  0.00  0.00    +0.000 A 
ATOM      5  C   UNK A   0      -1.109  12.818  19.468  0.00  0.00    +0.000 A 
ATOM      6  C   UNK A   0      -0.728  11.511  19.113  0.00  0.00    +0.000 A 
ENDROOT
BRANCH   1   9
ATOM      7  O   UNK A   0       2.415  10.503  17.579  0.00  0.00    +0.000 OA
ATOM      8  C   UNK A   0       1.822   9.573  18.113  0.00  0.00    +0.000 C 
ATOM      9  N   UNK A   0       0.962   9.702  19.189  0.00  0.00    +0.000 N 
ATOM     10  H   UNK A   0       0.797   8.883  19.765  0.00  0.00    +0.000 HD
BRANCH   8  11
ATOM     11  C   UNK A   0       2.066   8.153  17.717  0.00  0.00    +0.000 C 
ATOM     12  C   UNK A   0       2.912   7.370  18.408  0.00  0.00    +0.000 C 
BRANCH  12  13
ATOM     13  C   UNK A   0       3.184   5.977  18.009  0.00  0.00    +0.000 A 
ATOM     14  C   UNK A   0       2.324   4.978  18.486  0.00  0.00    +0.000 A 
ATOM     15  C   UNK A   0       2.483   3.636  18.103  0.00  0.00    +0.000 A 
ATOM     16  C   UNK A   0       3.515   3.263  17.245  0.00  0.00    +0.000 A 
ATOM     17  C   UNK A   0       4.411   4.225  16.790  0.00  0.00    +0.000 A 
ATOM     18  C   UNK A   0       4.238   5.566  17.176  0.00  0.00    +0.000 A 
BRANCH  18  19
ATOM     19  N   UNK A   0       5.224   6.516  16.693  0.00  0.00    +0.000 N 
ATOM     20  O   UNK A   0       6.098   6.888  17.491  0.00  0.00    +0.000 OA
ATOM     21  O   UNK A   0       5.083   6.928  15.537  0.00  0.00    +0.000 OA
ENDBRANCH  18  19
ENDBRANCH  12  13
ENDBRANCH   8  11
ENDBRANCH   1   9
BRANCH   6  22
ATOM     22  C   UNK A   0      -1.709  10.752  18.282  0.00  0.00    +0.000 C 
ATOM     23  O   UNK A   0      -1.382   9.768  17.626  0.00  0.00    +0.000 OA
ATOM     24  N   PHE A   1      -2.966  11.287  18.162  0.00  0.00    +0.000 N 
ATOM     25  H   PHE A   1      -3.096  12.259  18.434  0.00  0.00    +0.000 HD
BRANCH  24  26
ATOM     26  CA  PHE A   1      -4.006  10.674  17.326  0.00  0.00    +0.000 C 
BRANCH  26  27
ATOM     27  C   PHE A   1      -3.528  10.651  15.863  0.00  0.00    +0.000 C 
ATOM     28  O   PHE A   1      -3.491  11.625  15.127  0.00  0.00    +0.000 OA
BRANCH  27  29
ATOM     29  OXT PHE A   1      -3.192   9.412  15.426  0.00  0.00    +0.000 OA
ATOM     30  HXT PHE A   1      -3.864   8.733  15.667  0.00  0.00    +0.000 HD
ENDBRANCH  27  29
ENDBRANCH  26  27
BRANCH  26  31
ATOM     31  CB  PHE A   1      -5.343  11.426  17.430  0.00  0.00    +0.000 C 
BRANCH  31  32
ATOM     32  CG  PHE A   1      -6.075  11.421  18.759  0.00  0.00    +0.000 A 
ATOM     33  CD1 PHE A   1      -6.113  12.504  19.646  0.00  0.00    +0.000 A 
ATOM     34  CE1 PHE A   1      -6.871  12.442  20.819  0.00  0.00    +0.000 A 
ATOM     35  CZ  PHE A   1      -7.567  11.281  21.143  0.00  0.00    +0.000 A 
ATOM     36  CE2 PHE A   1      -7.496  10.177  20.301  0.00  0.00    +0.000 A 
ATOM     37  CD2 PHE A   1      -6.765  10.250  19.114  0.00  0.00    +0.000 A 
ENDBRANCH  31  32
ENDBRANCH  26  31
ENDBRANCH  24  26
ENDBRANCH   6  22
TORSDOF 10
ENDMDL
MODEL 2
REMARK VINA RESULT:      -8.1      1.768      2.055
REMARK  Name = 
REMARK  10 active torsions:
REMARK  status: ('A' for Active; 'I' for Inactive)
REMARK    1  A    between atoms: C_2  and  C_3
REMARK    2  A    between atoms: C_4  and  C_5
REMARK    3  A    between atoms: C_10  and  N_11
REMARK    4  A    between atoms: N_14  and  C_15
REMARK    5  A    between atoms: C_20  and  C_21
REMARK    6  A    between atoms: N_23  and  CA_24
REMARK    7  A    between atoms: CA_24  and  CB_25
REMARK    8  A    between atoms: CA_24  and  C_32
REMARK    9  A    between atoms: CB_25  and  CG_26
REMARK   10  A    between atoms: C_32  and  OXT_34
REMARK                            x       y       z     vdW  Elec       q    Type
REMARK                         _______ _______ _______ _____ _____    ______ ____
ROOT
ATOM      1  C   UNK A   0       0.352  10.597  19.736  0.00  0.00    +0.000 A 
ATOM      2  C   UNK A   0       1.002  11.135  20.854  0.00  0.00    +0.000 A 
ATOM      3  C   UNK A   0       0.447  12.214  21.558  0.00  0.00    +0.000 A 
ATOM      4  C   UNK A   0      -0.768  12.768  21.158  0.00  0.00    +0.000 A 
ATOM      5  C   UNK A   0      -1.441  12.223  20.068  0.00  0.00    +0.000 A 
ATOM      6  C   UNK A   0      -0.905  11.126  19.369  0.00  0.00    +0.000 A 
ENDROOT
BRANCH   1   9
ATOM      7  O   UNK A   0       1.643   8.143  20.605  0.00  0.00    +0.000 OA
ATOM      8  C   UNK A   0       1.703   8.531  19.444  0.00  0.00    +0.000 C 
ATOM      9  N   UNK A   0       1.015   9.621  18.940  0.00  0.00    +0.000 N 
ATOM     10  H   UNK A   0       0.854   9.658  17.939  0.00  0.00    +0.000 HD
BRANCH   8  11
ATOM     11  C   UNK A   0       2.457   7.773  18.400  0.00  0.00    +0.000 C 
ATOM     12  C   UNK A   0       3.014   6.579  18.667  0.00  0.00    +0.000 C 
BRANCH  12  13
ATOM     13  C   UNK A   0       3.785   5.836  17.654  0.00  0.00    +0.000 A 
ATOM     14  C   UNK A   0       4.734   6.544  16.903  0.00  0.00    +0.000 A 
ATOM     15  C   UNK A   0       5.549   5.894  15.961  0.00  0.00    +0.000 A 
ATOM     16  C   UNK A   0       5.422   4.525  15.741  0.00  0.00    +0.000 A 
ATOM     17  C   UNK A   0       4.459   3.803  16.440  0.00  0.00    +0.000 A 
ATOM     18  C   UNK A   0       3.654   4.464  17.384  0.00  0.00    +0.000 A 
BRANCH  18  19
ATOM     19  N   UNK A   0       2.649   3.662  18.058  0.00  0.00    +0.000 N 
ATOM     20  O   UNK A   0       2.990   3.071  19.095  0.00  0.00    +0.000 OA
ATOM     21  O   UNK A   0       1.543   3.579  17.514  0.00  0.00    +0.000 OA
ENDBRANCH  18  19
ENDBRANCH  12  13
ENDBRANCH   8  11
ENDBRANCH   1   9
BRANCH   6  22
ATOM     22  C   UNK A   0      -1.812  10.485  18.372  0.00  0.00    +0.000 C 
ATOM     23  O   UNK A   0      -1.458   9.526  17.692  0.00  0.00    +0.000 OA
ATOM     24  N   PHE A   1      -3.012  11.104  18.136  0.00  0.00    +0.000 N 
ATOM     25  H   PHE A   1      -3.122  12.063  18.459  0.00  0.00    +0.000 HD
BRANCH  24  26
ATOM     26  CA  PHE A   1      -3.969  10.614  17.136  0.00  0.00    +0.000 C 
BRANCH  26  27
ATOM     27  C   PHE A   1      -3.356  10.769  15.733  0.00  0.00    +0.000 C 
ATOM     28  O   PHE A   1      -3.669  10.102  14.758  0.00  0.00    +0.000 OA
BRANCH  27  29
ATOM     29  OXT PHE A   1      -2.372  11.700  15.675  0.00  0.00    +0.000 OA
ATOM     30  HXT PHE A   1      -1.515  11.323  15.364  0.00  0.00    +0.000 HD
ENDBRANCH  27  29
ENDBRANCH  26  27
BRANCH  26  31
ATOM     31  CB  PHE A   1      -5.310  11.360  17.210  0.00  0.00    +0.000 C 
BRANCH  31  32
ATOM     32  CG  PHE A   1      -6.035  11.418  18.542  0.00  0.00    +0.000 A 
ATOM     33  CD1 PHE A   1      -5.985  12.505  19.424  0.00  0.00    +0.000 A 
ATOM     34  CE1 PHE A   1      -6.740  12.507  20.600  0.00  0.00    +0.000 A 
ATOM     35  CZ  PHE A   1      -7.522  11.406  20.933  0.00  0.00    +0.000 A 
ATOM     36  CE2 PHE A   1      -7.540  10.295  20.096  0.00  0.00    +0.000 A 
ATOM     37  CD2 PHE A   1      -6.811  10.305  18.906  0.00  0.00    +0.000 A 
ENDBRANCH  31  32
ENDBRANCH  26  31
ENDBRANCH  24  26
ENDBRANCH   6  22
TORSDOF 10
ENDMDL
MODEL 3
REMARK VINA RESULT:      -8.0      5.945      9.795
REMARK  Name = 
REMARK  10 active torsions:
REMARK  status: ('A' for Active; 'I' for Inactive)
REMARK    1  A    between atoms: C_2  and  C_3
REMARK    2  A    between atoms: C_4  and  C_5
REMARK    3  A    between atoms: C_10  and  N_11
REMARK    4  A    between atoms: N_14  and  C_15
REMARK    5  A    between atoms: C_20  and  C_21
REMARK    6  A    between atoms: N_23  and  CA_24
REMARK    7  A    between atoms: CA_24  and  CB_25
REMARK    8  A    between atoms: CA_24  and  C_32
REMARK    9  A    between atoms: CB_25  and  CG_26
REMARK   10  A    between atoms: C_32  and  OXT_34
REMARK                            x       y       z     vdW  Elec       q    Type
REMARK                         _______ _______ _______ _____ _____    ______ ____
ROOT
ATOM      1  C   UNK A   0       6.987   5.601  16.276  0.00  0.00    +0.000 A 
ATOM      2  C   UNK A   0       7.153   5.542  14.887  0.00  0.00    +0.000 A 
ATOM      3  C   UNK A   0       6.622   4.477  14.145  0.00  0.00    +0.000 A 
ATOM      4  C   UNK A   0       5.913   3.458  14.779  0.00  0.00    +0.000 A 
ATOM      5  C   UNK A   0       5.712   3.520  16.155  0.00  0.00    +0.000 A 
ATOM      6  C   UNK A   0       6.219   4.597  16.906  0.00  0.00    +0.000 A 
ENDROOT
BRANCH   1   9
ATOM      7  O   UNK A   0       5.967   8.135  17.271  0.00  0.00    +0.000 OA
ATOM      8  C   UNK A   0       7.150   7.830  17.367  0.00  0.00    +0.000 C 
ATOM      9  N   UNK A   0       7.677   6.596  17.025  0.00  0.00    +0.000 N 
ATOM     10  H   UNK A   0       8.559   6.325  17.445  0.00  0.00    +0.000 HD
BRANCH   8  11
ATOM     11  C   UNK A   0       8.151   8.748  17.990  0.00  0.00    +0.000 C 
ATOM     12  C   UNK A   0       8.039  10.083  17.881  0.00  0.00    +0.000 C 
BRANCH  12  13
ATOM     13  C   UNK A   0       9.036  10.998  18.466  0.00  0.00    +0.000 A 
ATOM     14  C   UNK A   0      10.105  10.435  19.177  0.00  0.00    +0.000 A 
ATOM     15  C   UNK A   0      11.126  11.238  19.713  0.00  0.00    +0.000 A 
ATOM     16  C   UNK A   0      11.092  12.622  19.560  0.00  0.00    +0.000 A 
ATOM     17  C   UNK A   0      10.021  13.213  18.897  0.00  0.00    +0.000 A 
ATOM     18  C   UNK A   0       9.008  12.398  18.360  0.00  0.00    +0.000 A 
BRANCH  18  19
ATOM     19  N   UNK A   0       7.904  13.077  17.707  0.00  0.00    +0.000 N 
ATOM     20  O   UNK A   0       7.453  12.568  16.669  0.00  0.00    +0.000 OA
ATOM     21  O   UNK A   0       7.533  14.146  18.203  0.00  0.00    +0.000 OA
ENDBRANCH  18  19
ENDBRANCH  12  13
ENDBRANCH   8  11
ENDBRANCH   1   9
BRANCH   6  22
ATOM     22  C   UNK A   0       5.753   4.679  18.321  0.00  0.00    +0.000 C 
ATOM     23  O   UNK A   0       6.493   5.041  19.231  0.00  0.00    +0.000 OA
ATOM     24  N   PHE A   1       4.501   4.189  18.591  0.00  0.00    +0.000 N 
ATOM     25  H   PHE A   1       4.062   3.597  17.890  0.00  0.00    +0.000 HD
BRANCH  24  26
ATOM     26  CA  PHE A   1       3.945   4.153  19.950  0.00  0.00    +0.000 C 
BRANCH  26  27
ATOM     27  C   PHE A   1       4.057   2.721  20.502  0.00  0.00    +0.000 C 
ATOM     28  O   PHE A   1       4.811   1.863  20.068  0.00  0.00    +0.000 OA
BRANCH  27  29
ATOM     29  OXT PHE A   1       3.183   2.461  21.507  0.00  0.00    +0.000 OA
ATOM     30  HXT PHE A   1       2.275   2.790  21.310  0.00  0.00    +0.000 HD
ENDBRANCH  27  29
ENDBRANCH  26  27
BRANCH  26  31
ATOM     31  CB  PHE A   1       2.480   4.616  19.984  0.00  0.00    +0.000 C 
BRANCH  31  32
ATOM     32  CG  PHE A   1       2.178   6.081  19.727  0.00  0.00    +0.000 A 
ATOM     33  CD1 PHE A   1       1.662   6.962  20.686  0.00  0.00    +0.000 A 
ATOM     34  CE1 PHE A   1       1.478   8.316  20.388  0.00  0.00    +0.000 A 
ATOM     35  CZ  PHE A   1       1.766   8.799  19.115  0.00  0.00    +0.000 A 
ATOM     36  CE2 PHE A   1       2.226   7.926  18.135  0.00  0.00    +0.000 A 
ATOM     37  CD2 PHE A   1       2.440   6.581  18.441  0.00  0.00    +0.000 A 
ENDBRANCH  31  32
ENDBRANCH  26  31
ENDBRANCH  24  26
ENDBRANCH   6  22
TORSDOF 10
ENDMDL
MODEL 4
REMARK VINA RESULT:      -8.0      1.728      1.984
REMARK  Name = 
REMARK  10 active torsions:
REMARK  status: ('A' for Active; 'I' for Inactive)
REMARK    1  A    between atoms: C_2  and  C_3
REMARK    2  A    between atoms: C_4  and  C_5
REMARK    3  A    between atoms: C_10  and  N_11
REMARK    4  A    between atoms: N_14  and  C_15
REMARK    5  A    between atoms: C_20  and  C_21
REMARK    6  A    between atoms: N_23  and  CA_24
REMARK    7  A    between atoms: CA_24  and  CB_25
REMARK    8  A    between atoms: CA_24  and  C_32
REMARK    9  A    between atoms: CB_25  and  CG_26
REMARK   10  A    between atoms: C_32  and  OXT_34
REMARK                            x       y       z     vdW  Elec       q    Type
REMARK                         _______ _______ _______ _____ _____    ______ ____
ROOT
ATOM      1  C   UNK A   0       0.610  11.178  19.438  0.00  0.00    +0.000 A 
ATOM      2  C   UNK A   0       1.626  12.025  19.899  0.00  0.00    +0.000 A 
ATOM      3  C   UNK A   0       1.671  13.372  19.512  0.00  0.00    +0.000 A 
ATOM      4  C   UNK A   0       0.697  13.894  18.663  0.00  0.00    +0.000 A 
ATOM      5  C   UNK A   0      -0.338  13.074  18.223  0.00  0.00    +0.000 A 
ATOM      6  C   UNK A   0      -0.405  11.727  18.624  0.00  0.00    +0.000 A 
ENDROOT
BRANCH   1   9
ATOM      7  O   UNK A   0       1.093   9.856  21.980  0.00  0.00    +0.000 OA
ATOM      8  C   UNK A   0       1.028   9.232  20.928  0.00  0.00    +0.000 C 
ATOM      9  N   UNK A   0       0.682   9.782  19.706  0.00  0.00    +0.000 N 
ATOM     10  H   UNK A   0       0.326   9.159  18.989  0.00  0.00    +0.000 HD
BRANCH   8  11
ATOM     11  C   UNK A   0       1.206   7.749  20.880  0.00  0.00    +0.000 C 
ATOM     12  C   UNK A   0       2.116   7.179  20.071  0.00  0.00    +0.000 C 
BRANCH  12  13
ATOM     13  C   UNK A   0       2.280   5.716  19.993  0.00  0.00    +0.000 A 
ATOM     14  C   UNK A   0       1.355   4.915  20.678  0.00  0.00    +0.000 A 
ATOM     15  C   UNK A   0       1.411   3.513  20.603  0.00  0.00    +0.000 A 
ATOM     16  C   UNK A   0       2.401   2.884  19.852  0.00  0.00    +0.000 A 
ATOM     17  C   UNK A   0       3.358   3.652  19.196  0.00  0.00    +0.000 A 
ATOM     18  C   UNK A   0       3.288   5.054  19.274  0.00  0.00    +0.000 A 
BRANCH  18  19
ATOM     19  N   UNK A   0       4.333   5.796  18.593  0.00  0.00    +0.000 N 
ATOM     20  O   UNK A   0       4.036   6.349  17.523  0.00  0.00    +0.000 OA
ATOM     21  O   UNK A   0       5.458   5.774  19.103  0.00  0.00    +0.000 OA
ENDBRANCH  18  19
ENDBRANCH  12  13
ENDBRANCH   8  11
ENDBRANCH   1   9
BRANCH   6  22
ATOM     22  C   UNK A   0      -1.668  11.010  18.282  0.00  0.00    +0.000 C 
ATOM     23  O   UNK A   0      -1.960   9.929  18.786  0.00  0.00    +0.000 OA
ATOM     24  N   PHE A   1      -2.425  11.535  17.267  0.00  0.00    +0.000 N 
ATOM     25  H   PHE A   1      -1.988  12.223  16.657  0.00  0.00    +0.000 HD
BRANCH  24  26
ATOM     26  CA  PHE A   1      -3.657  10.895  16.790  0.00  0.00    +0.000 C 
BRANCH  26  27
ATOM     27  C   PHE A   1      -3.511  10.572  15.292  0.00  0.00    +0.000 C 
ATOM     28  O   PHE A   1      -2.523  10.825  14.618  0.00  0.00    +0.000 OA
BRANCH  27  29
ATOM     29  OXT PHE A   1      -4.622  10.016  14.749  0.00  0.00    +0.000 OA
ATOM     30  HXT PHE A   1      -5.416  10.123  15.324  0.00  0.00    +0.000 HD
ENDBRANCH  27  29
ENDBRANCH  26  27
BRANCH  26  31
ATOM     31  CB  PHE A   1      -4.891  11.782  17.017  0.00  0.00    +0.000 C 
BRANCH  31  32
ATOM     32  CG  PHE A   1      -5.524  11.803  18.396  0.00  0.00    +0.000 A 
ATOM     33  CD1 PHE A   1      -4.993  12.481  19.501  0.00  0.00    +0.000 A 
ATOM     34  CE1 PHE A   1      -5.677  12.508  20.720  0.00  0.00    +0.000 A 
ATOM     35  CZ  PHE A   1      -6.879  11.823  20.864  0.00  0.00    +0.000 A 
ATOM     36  CE2 PHE A   1      -7.393  11.099  19.794  0.00  0.00    +0.000 A 
ATOM     37  CD2 PHE A   1      -6.727  11.097  18.568  0.00  0.00    +0.000 A 
ENDBRANCH  31  32
ENDBRANCH  26  31
ENDBRANCH  24  26
ENDBRANCH   6  22
TORSDOF 10
ENDMDL
MODEL 5
REMARK VINA RESULT:      -8.0      1.629      2.157
REMARK  Name = 
REMARK  10 active torsions:
REMARK  status: ('A' for Active; 'I' for Inactive)
REMARK    1  A    between atoms: C_2  and  C_3
REMARK    2  A    between atoms: C_4  and  C_5
REMARK    3  A    between atoms: C_10  and  N_11
REMARK    4  A    between atoms: N_14  and  C_15
REMARK    5  A    between atoms: C_20  and  C_21
REMARK    6  A    between atoms: N_23  and  CA_24
REMARK    7  A    between atoms: CA_24  and  CB_25
REMARK    8  A    between atoms: CA_24  and  C_32
REMARK    9  A    between atoms: CB_25  and  CG_26
REMARK   10  A    between atoms: C_32  and  OXT_34
REMARK                            x       y       z     vdW  Elec       q    Type
REMARK                         _______ _______ _______ _____ _____    ______ ____
ROOT
ATOM      1  C   UNK A   0       0.308  10.905  19.944  0.00  0.00    +0.000 A 
ATOM      2  C   UNK A   0       1.095  11.771  20.714  0.00  0.00    +0.000 A 
ATOM      3  C   UNK A   0       1.138  13.144  20.433  0.00  0.00    +0.000 A 
ATOM      4  C   UNK A   0       0.392  13.673  19.382  0.00  0.00    +0.000 A 
ATOM      5  C   UNK A   0      -0.421  12.831  18.628  0.00  0.00    +0.000 A 
ATOM      6  C   UNK A   0      -0.490  11.455  18.917  0.00  0.00    +0.000 A 
ENDROOT
BRANCH   1   9
ATOM      7  O   UNK A   0       1.550   9.482  22.152  0.00  0.00    +0.000 OA
ATOM      8  C   UNK A   0       1.120   8.898  21.166  0.00  0.00    +0.000 C 
ATOM      9  N   UNK A   0       0.412   9.499  20.139  0.00  0.00    +0.000 N 
ATOM     10  H   UNK A   0      -0.182   8.911  19.565  0.00  0.00    +0.000 HD
BRANCH   8  11
ATOM     11  C   UNK A   0       1.217   7.413  21.026  0.00  0.00    +0.000 C 
ATOM     12  C   UNK A   0       2.118   6.845  20.205  0.00  0.00    +0.000 C 
BRANCH  12  13
ATOM     13  C   UNK A   0       2.203   5.383  20.036  0.00  0.00    +0.000 A 
ATOM     14  C   UNK A   0       1.190   4.597  20.603  0.00  0.00    +0.000 A 
ATOM     15  C   UNK A   0       1.170   3.202  20.435  0.00  0.00    +0.000 A 
ATOM     16  C   UNK A   0       2.172   2.563  19.708  0.00  0.00    +0.000 A 
ATOM     17  C   UNK A   0       3.214   3.312  19.170  0.00  0.00    +0.000 A 
ATOM     18  C   UNK A   0       3.219   4.708  19.341  0.00  0.00    +0.000 A 
BRANCH  18  19
ATOM     19  N   UNK A   0       4.349   5.428  18.783  0.00  0.00    +0.000 N 
ATOM     20  O   UNK A   0       4.236   5.860  17.625  0.00  0.00    +0.000 OA
ATOM     21  O   UNK A   0       5.364   5.505  19.482  0.00  0.00    +0.000 OA
ENDBRANCH  18  19
ENDBRANCH  12  13
ENDBRANCH   8  11
ENDBRANCH   1   9
BRANCH   6  22
ATOM     22  C   UNK A   0      -1.555  10.695  18.201  0.00  0.00    +0.000 C 
ATOM     23  O   UNK A   0      -1.336   9.610  17.670  0.00  0.00    +0.000 OA
ATOM     24  N   PHE A   1      -2.760  11.326  18.029  0.00  0.00    +0.000 N 
ATOM     25  H   PHE A   1      -2.794  12.332  18.177  0.00  0.00    +0.000 HD
BRANCH  24  26
ATOM     26  CA  PHE A   1      -3.872  10.715  17.289  0.00  0.00    +0.000 C 
BRANCH  26  27
ATOM     27  C   PHE A   1      -3.466  10.550  15.814  0.00  0.00    +0.000 C 
ATOM     28  O   PHE A   1      -3.342   9.478  15.240  0.00  0.00    +0.000 OA
BRANCH  27  29
ATOM     29  OXT PHE A   1      -3.194  11.726  15.195  0.00  0.00    +0.000 OA
ATOM     30  HXT PHE A   1      -4.012  12.214  14.939  0.00  0.00    +0.000 HD
ENDBRANCH  27  29
ENDBRANCH  26  27
BRANCH  26  31
ATOM     31  CB  PHE A   1      -5.157  11.551  17.390  0.00  0.00    +0.000 C 
BRANCH  31  32
ATOM     32  CG  PHE A   1      -5.915  11.559  18.704  0.00  0.00    +0.000 A 
ATOM     33  CD1 PHE A   1      -6.810  10.560  19.108  0.00  0.00    +0.000 A 
ATOM     34  CE1 PHE A   1      -7.415  10.608  20.368  0.00  0.00    +0.000 A 
ATOM     35  CZ  PHE A   1      -7.167  11.676  21.224  0.00  0.00    +0.000 A 
ATOM     36  CE2 PHE A   1      -6.324  12.704  20.817  0.00  0.00    +0.000 A 
ATOM     37  CD2 PHE A   1      -5.696  12.641  19.573  0.00  0.00    +0.000 A 
ENDBRANCH  31  32
ENDBRANCH  26  31
ENDBRANCH  24  26
ENDBRANCH   6  22
TORSDOF 10
ENDMDL
MODEL 6
REMARK VINA RESULT:      -7.9      1.743      2.258
REMARK  Name = 
REMARK  10 active torsions:
REMARK  status: ('A' for Active; 'I' for Inactive)
REMARK    1  A    between atoms: C_2  and  C_3
REMARK    2  A    between atoms: C_4  and  C_5
REMARK    3  A    between atoms: C_10  and  N_11
REMARK    4  A    between atoms: N_14  and  C_15
REMARK    5  A    between atoms: C_20  and  C_21
REMARK    6  A    between atoms: N_23  and  CA_24
REMARK    7  A    between atoms: CA_24  and  CB_25
REMARK    8  A    between atoms: CA_24  and  C_32
REMARK    9  A    between atoms: CB_25  and  CG_26
REMARK   10  A    between atoms: C_32  and  OXT_34
REMARK                            x       y       z     vdW  Elec       q    Type
REMARK                         _______ _______ _______ _____ _____    ______ ____
ROOT
ATOM      1  C   UNK A   0       0.282  10.767  19.887  0.00  0.00    +0.000 A 
ATOM      2  C   UNK A   0       0.922  11.494  20.899  0.00  0.00    +0.000 A 
ATOM      3  C   UNK A   0       0.460  12.764  21.274  0.00  0.00    +0.000 A 
ATOM      4  C   UNK A   0      -0.651  13.324  20.647  0.00  0.00    +0.000 A 
ATOM      5  C   UNK A   0      -1.318  12.600  19.662  0.00  0.00    +0.000 A 
ATOM      6  C   UNK A   0      -0.877  11.315  19.296  0.00  0.00    +0.000 A 
ENDROOT
BRANCH   1   9
ATOM      7  O   UNK A   0       2.321  10.445  17.842  0.00  0.00    +0.000 OA
ATOM      8  C   UNK A   0       1.757   9.484  18.351  0.00  0.00    +0.000 C 
ATOM      9  N   UNK A   0       0.869   9.561  19.410  0.00  0.00    +0.000 N 
ATOM     10  H   UNK A   0       0.727   8.728  19.971  0.00  0.00    +0.000 HD
BRANCH   8  11
ATOM     11  C   UNK A   0       2.071   8.081  17.944  0.00  0.00    +0.000 C 
ATOM     12  C   UNK A   0       2.662   7.222  18.792  0.00  0.00    +0.000 C 
BRANCH  12  13
ATOM     13  C   UNK A   0       3.005   5.845  18.392  0.00  0.00    +0.000 A 
ATOM     14  C   UNK A   0       3.799   5.672  17.249  0.00  0.00    +0.000 A 
ATOM     15  C   UNK A   0       4.215   4.394  16.839  0.00  0.00    +0.000 A 
ATOM     16  C   UNK A   0       3.834   3.262  17.555  0.00  0.00    +0.000 A 
ATOM     17  C   UNK A   0       3.011   3.399  18.668  0.00  0.00    +0.000 A 
ATOM     18  C   UNK A   0       2.605   4.683  19.072  0.00  0.00    +0.000 A 
BRANCH  18  19
ATOM     19  N   UNK A   0       1.722   4.755  20.222  0.00  0.00    +0.000 N 
ATOM     20  O   UNK A   0       0.606   4.222  20.119  0.00  0.00    +0.000 OA
ATOM     21  O   UNK A   0       2.127   5.394  21.199  0.00  0.00    +0.000 OA
ENDBRANCH  18  19
ENDBRANCH  12  13
ENDBRANCH   8  11
ENDBRANCH   1   9
BRANCH   6  22
ATOM     22  C   UNK A   0      -1.792  10.545  18.403  0.00  0.00    +0.000 C 
ATOM     23  O   UNK A   0      -1.425   9.534  17.810  0.00  0.00    +0.000 OA
ATOM     24  N   PHE A   1      -3.022  11.095  18.151  0.00  0.00    +0.000 N 
ATOM     25  H   PHE A   1      -3.158  12.077  18.379  0.00  0.00    +0.000 HD
BRANCH  24  26
ATOM     26  CA  PHE A   1      -3.993  10.472  17.243  0.00  0.00    +0.000 C 
BRANCH  26  27
ATOM     27  C   PHE A   1      -3.420  10.473  15.814  0.00  0.00    +0.000 C 
ATOM     28  O   PHE A   1      -3.174   9.470  15.161  0.00  0.00    +0.000 OA
BRANCH  27  29
ATOM     29  OXT PHE A   1      -3.151  11.716  15.342  0.00  0.00    +0.000 OA
ATOM     30  HXT PHE A   1      -2.641  11.696  14.499  0.00  0.00    +0.000 HD
ENDBRANCH  27  29
ENDBRANCH  26  27
BRANCH  26  31
ATOM     31  CB  PHE A   1      -5.348  11.196  17.265  0.00  0.00    +0.000 C 
BRANCH  31  32
ATOM     32  CG  PHE A   1      -6.167  11.161  18.543  0.00  0.00    +0.000 A 
ATOM     33  CD1 PHE A   1      -6.760  10.008  19.071  0.00  0.00    +0.000 A 
ATOM     34  CE1 PHE A   1      -7.440  10.048  20.292  0.00  0.00    +0.000 A 
ATOM     35  CZ  PHE A   1      -7.573  11.250  20.981  0.00  0.00    +0.000 A 
ATOM     36  CE2 PHE A   1      -7.038  12.415  20.443  0.00  0.00    +0.000 A 
ATOM     37  CD2 PHE A   1      -6.332  12.370  19.240  0.00  0.00    +0.000 A 
ENDBRANCH  31  32
ENDBRANCH  26  31
ENDBRANCH  24  26
ENDBRANCH   6  22
TORSDOF 10
ENDMDL
MODEL 7
REMARK VINA RESULT:      -7.8      1.337      1.663
REMARK  Name = 
REMARK  10 active torsions:
REMARK  status: ('A' for Active; 'I' for Inactive)
REMARK    1  A    between atoms: C_2  and  C_3
REMARK    2  A    between atoms: C_4  and  C_5
REMARK    3  A    between atoms: C_10  and  N_11
REMARK    4  A    between atoms: N_14  and  C_15
REMARK    5  A    between atoms: C_20  and  C_21
REMARK    6  A    between atoms: N_23  and  CA_24
REMARK    7  A    between atoms: CA_24  and  CB_25
REMARK    8  A    between atoms: CA_24  and  C_32
REMARK    9  A    between atoms: CB_25  and  CG_26
REMARK   10  A    between atoms: C_32  and  OXT_34
REMARK                            x       y       z     vdW  Elec       q    Type
REMARK                         _______ _______ _______ _____ _____    ______ ____
ROOT
ATOM      1  C   UNK A   0       1.430  11.815  18.316  0.00  0.00    +0.000 A 
ATOM      2  C   UNK A   0       2.620  12.538  18.472  0.00  0.00    +0.000 A 
ATOM      3  C   UNK A   0       2.598  13.928  18.653  0.00  0.00    +0.000 A 
ATOM      4  C   UNK A   0       1.387  14.617  18.687  0.00  0.00    +0.000 A 
ATOM      5  C   UNK A   0       0.195  13.908  18.566  0.00  0.00    +0.000 A 
ATOM      6  C   UNK A   0       0.205  12.510  18.407  0.00  0.00    +0.000 A 
ENDROOT
BRANCH   1   9
ATOM      7  O   UNK A   0       1.290   9.502  20.069  0.00  0.00    +0.000 OA
ATOM      8  C   UNK A   0       1.524   9.394  18.872  0.00  0.00    +0.000 C 
ATOM      9  N   UNK A   0       1.486  10.437  17.963  0.00  0.00    +0.000 N 
ATOM     10  H   UNK A   0       1.353  10.208  16.984  0.00  0.00    +0.000 HD
BRANCH   8  11
ATOM     11  C   UNK A   0       1.767   8.064  18.235  0.00  0.00    +0.000 C 
ATOM     12  C   UNK A   0       2.704   7.223  18.706  0.00  0.00    +0.000 C 
BRANCH  12  13
ATOM     13  C   UNK A   0       2.973   5.922  18.068  0.00  0.00    +0.000 A 
ATOM     14  C   UNK A   0       2.034   4.896  18.248  0.00  0.00    +0.000 A 
ATOM     15  C   UNK A   0       2.191   3.648  17.623  0.00  0.00    +0.000 A 
ATOM     16  C   UNK A   0       3.298   3.394  16.817  0.00  0.00    +0.000 A 
ATOM     17  C   UNK A   0       4.269   4.378  16.655  0.00  0.00    +0.000 A 
ATOM     18  C   UNK A   0       4.098   5.625  17.281  0.00  0.00    +0.000 A 
BRANCH  18  19
ATOM     19  N   UNK A   0       5.160   6.597  17.097  0.00  0.00    +0.000 N 
ATOM     20  O   UNK A   0       5.970   6.740  18.027  0.00  0.00    +0.000 OA
ATOM     21  O   UNK A   0       5.145   7.252  16.051  0.00  0.00    +0.000 OA
ENDBRANCH  18  19
ENDBRANCH  12  13
ENDBRANCH   8  11
ENDBRANCH   1   9
BRANCH   6  22
ATOM     22  C   UNK A   0      -1.122  11.835  18.517  0.00  0.00    +0.000 C 
ATOM     23  O   UNK A   0      -1.425  11.149  19.489  0.00  0.00    +0.000 OA
ATOM     24  N   PHE A   1      -1.939  11.889  17.417  0.00  0.00    +0.000 N 
ATOM     25  H   PHE A   1      -1.523  12.166  16.531  0.00  0.00    +0.000 HD
BRANCH  24  26
ATOM     26  CA  PHE A   1      -3.243  11.215  17.371  0.00  0.00    +0.000 C 
BRANCH  26  27
ATOM     27  C   PHE A   1      -3.450  10.615  15.968  0.00  0.00    +0.000 C 
ATOM     28  O   PHE A   1      -3.498   9.420  15.722  0.00  0.00    +0.000 OA
BRANCH  27  29
ATOM     29  OXT PHE A   1      -3.524  11.549  14.988  0.00  0.00    +0.000 OA
ATOM     30  HXT PHE A   1      -2.699  12.084  14.915  0.00  0.00    +0.000 HD
ENDBRANCH  27  29
ENDBRANCH  26  27
BRANCH  26  31
ATOM     31  CB  PHE A   1      -4.396  12.173  17.708  0.00  0.00    +0.000 C 
BRANCH  31  32
ATOM     32  CG  PHE A   1      -5.458  11.712  18.690  0.00  0.00    +0.000 A 
ATOM     33  CD1 PHE A   1      -6.168  10.510  18.580  0.00  0.00    +0.000 A 
ATOM     34  CE1 PHE A   1      -7.081  10.126  19.568  0.00  0.00    +0.000 A 
ATOM     35  CZ  PHE A   1      -7.326  10.957  20.656  0.00  0.00    +0.000 A 
ATOM     36  CE2 PHE A   1      -6.670  12.179  20.752  0.00  0.00    +0.000 A 
ATOM     37  CD2 PHE A   1      -5.737  12.549  19.783  0.00  0.00    +0.000 A 
ENDBRANCH  31  32
ENDBRANCH  26  31
ENDBRANCH  24  26
ENDBRANCH   6  22
TORSDOF 10
ENDMDL
MODEL 8
REMARK VINA RESULT:      -7.8      3.737     10.912
REMARK  Name = 
REMARK  10 active torsions:
REMARK  status: ('A' for Active; 'I' for Inactive)
REMARK    1  A    between atoms: C_2  and  C_3
REMARK    2  A    between atoms: C_4  and  C_5
REMARK    3  A    between atoms: C_10  and  N_11
REMARK    4  A    between atoms: N_14  and  C_15
REMARK    5  A    between atoms: C_20  and  C_21
REMARK    6  A    between atoms: N_23  and  CA_24
REMARK    7  A    between atoms: CA_24  and  CB_25
REMARK    8  A    between atoms: CA_24  and  C_32
REMARK    9  A    between atoms: CB_25  and  CG_26
REMARK   10  A    between atoms: C_32  and  OXT_34
REMARK                            x       y       z     vdW  Elec       q    Type
REMARK                         _______ _______ _______ _____ _____    ______ ____
ROOT
ATOM      1  C   UNK A   0       2.382   5.405  19.824  0.00  0.00    +0.000 A 
ATOM      2  C   UNK A   0       1.468   4.873  20.742  0.00  0.00    +0.000 A 
ATOM      3  C   UNK A   0       1.394   3.490  20.964  0.00  0.00    +0.000 A 
ATOM      4  C   UNK A   0       2.236   2.619  20.275  0.00  0.00    +0.000 A 
ATOM      5  C   UNK A   0       3.173   3.136  19.384  0.00  0.00    +0.000 A 
ATOM      6  C   UNK A   0       3.271   4.523  19.172  0.00  0.00    +0.000 A 
ENDROOT
BRANCH   1   9
ATOM      7  O   UNK A   0       1.153   7.565  21.330  0.00  0.00    +0.000 OA
ATOM      8  C   UNK A   0       1.618   7.739  20.210  0.00  0.00    +0.000 C 
ATOM      9  N   UNK A   0       2.321   6.788  19.492  0.00  0.00    +0.000 N 
ATOM     10  H   UNK A   0       2.944   7.112  18.759  0.00  0.00    +0.000 HD
BRANCH   8  11
ATOM     11  C   UNK A   0       1.572   9.074  19.538  0.00  0.00    +0.000 C 
ATOM     12  C   UNK A   0       0.890  10.102  20.071  0.00  0.00    +0.000 C 
BRANCH  12  13
ATOM     13  C   UNK A   0       0.812  11.414  19.402  0.00  0.00    +0.000 A 
ATOM     14  C   UNK A   0       2.007  11.993  18.953  0.00  0.00    +0.000 A 
ATOM     15  C   UNK A   0       2.008  13.212  18.255  0.00  0.00    +0.000 A 
ATOM     16  C   UNK A   0       0.814  13.884  18.004  0.00  0.00    +0.000 A 
ATOM     17  C   UNK A   0      -0.383  13.356  18.475  0.00  0.00    +0.000 A 
ATOM     18  C   UNK A   0      -0.372  12.132  19.168  0.00  0.00    +0.000 A 
BRANCH  18  19
ATOM     19  N   UNK A   0      -1.649  11.650  19.660  0.00  0.00    +0.000 N 
ATOM     20  O   UNK A   0      -2.333  10.957  18.890  0.00  0.00    +0.000 OA
ATOM     21  O   UNK A   0      -1.988  12.016  20.790  0.00  0.00    +0.000 OA
ENDBRANCH  18  19
ENDBRANCH  12  13
ENDBRANCH   8  11
ENDBRANCH   1   9
BRANCH   6  22
ATOM     22  C   UNK A   0       4.450   4.976  18.376  0.00  0.00    +0.000 C 
ATOM     23  O   UNK A   0       4.685   6.165  18.179  0.00  0.00    +0.000 OA
ATOM     24  N   PHE A   1       5.184   4.005  17.746  0.00  0.00    +0.000 N 
ATOM     25  H   PHE A   1       4.768   3.081  17.653  0.00  0.00    +0.000 HD
BRANCH  24  26
ATOM     26  CA  PHE A   1       6.330   4.319  16.883  0.00  0.00    +0.000 C 
BRANCH  26  27
ATOM     27  C   PHE A   1       7.391   5.069  17.708  0.00  0.00    +0.000 C 
ATOM     28  O   PHE A   1       7.946   4.623  18.701  0.00  0.00    +0.000 OA
BRANCH  27  29
ATOM     29  OXT PHE A   1       7.630   6.328  17.262  0.00  0.00    +0.000 OA
ATOM     30  HXT PHE A   1       7.372   6.447  16.318  0.00  0.00    +0.000 HD
ENDBRANCH  27  29
ENDBRANCH  26  27
BRANCH  26  31
ATOM     31  CB  PHE A   1       5.919   5.161  15.666  0.00  0.00    +0.000 C 
BRANCH  31  32
ATOM     32  CG  PHE A   1       6.280   4.657  14.281  0.00  0.00    +0.000 A 
ATOM     33  CD1 PHE A   1       5.554   3.687  13.578  0.00  0.00    +0.000 A 
ATOM     34  CE1 PHE A   1       5.913   3.329  12.275  0.00  0.00    +0.000 A 
ATOM     35  CZ  PHE A   1       7.029   3.903  11.673  0.00  0.00    +0.000 A 
ATOM     36  CE2 PHE A   1       7.793   4.826  12.377  0.00  0.00    +0.000 A 
ATOM     37  CD2 PHE A   1       7.416   5.207  13.666  0.00  0.00    +0.000 A 
ENDBRANCH  31  32
ENDBRANCH  26  31
ENDBRANCH  24  26
ENDBRANCH   6  22
TORSDOF 10
ENDMDL
MODEL 9
REMARK VINA RESULT:      -7.8      4.600     11.049
REMARK  Name = 
REMARK  10 active torsions:
REMARK  status: ('A' for Active; 'I' for Inactive)
REMARK    1  A    between atoms: C_2  and  C_3
REMARK    2  A    between atoms: C_4  and  C_5
REMARK    3  A    between atoms: C_10  and  N_11
REMARK    4  A    between atoms: N_14  and  C_15
REMARK    5  A    between atoms: C_20  and  C_21
REMARK    6  A    between atoms: N_23  and  CA_24
REMARK    7  A    between atoms: CA_24  and  CB_25
REMARK    8  A    between atoms: CA_24  and  C_32
REMARK    9  A    between atoms: CB_25  and  CG_26
REMARK   10  A    between atoms: C_32  and  OXT_34
REMARK                            x       y       z     vdW  Elec       q    Type
REMARK                         _______ _______ _______ _____ _____    ______ ____
ROOT
ATOM      1  C   UNK A   0       2.733   4.682  19.400  0.00  0.00    +0.000 A 
ATOM      2  C   UNK A   0       1.786   3.779  19.901  0.00  0.00    +0.000 A 
ATOM      3  C   UNK A   0       1.765   2.445  19.468  0.00  0.00    +0.000 A 
ATOM      4  C   UNK A   0       2.692   1.993  18.531  0.00  0.00    +0.000 A 
ATOM      5  C   UNK A   0       3.660   2.869  18.048  0.00  0.00    +0.000 A 
ATOM      6  C   UNK A   0       3.705   4.203  18.494  0.00  0.00    +0.000 A 
ENDROOT
BRANCH   1   9
ATOM      7  O   UNK A   0       0.842   5.970  21.192  0.00  0.00    +0.000 OA
ATOM      8  C   UNK A   0       1.624   6.614  20.504  0.00  0.00    +0.000 C 
ATOM      9  N   UNK A   0       2.627   6.063  19.724  0.00  0.00    +0.000 N 
ATOM     10  H   UNK A   0       3.413   6.654  19.477  0.00  0.00    +0.000 HD
BRANCH   8  11
ATOM     11  C   UNK A   0       1.649   8.108  20.531  0.00  0.00    +0.000 C 
ATOM     12  C   UNK A   0       0.517   8.825  20.636  0.00  0.00    +0.000 C 
BRANCH  12  13
ATOM     13  C   UNK A   0       0.526  10.299  20.633  0.00  0.00    +0.000 A 
ATOM     14  C   UNK A   0       1.016  10.950  19.491  0.00  0.00    +0.000 A 
ATOM     15  C   UNK A   0       1.002  12.351  19.390  0.00  0.00    +0.000 A 
ATOM     16  C   UNK A   0       0.511  13.131  20.434  0.00  0.00    +0.000 A 
ATOM     17  C   UNK A   0       0.059  12.515  21.597  0.00  0.00    +0.000 A 
ATOM     18  C   UNK A   0       0.072  11.112  21.684  0.00  0.00    +0.000 A 
BRANCH  18  19
ATOM     19  N   UNK A   0      -0.384  10.533  22.934  0.00  0.00    +0.000 N 
ATOM     20  O   UNK A   0       0.415   9.816  23.557  0.00  0.00    +0.000 OA
ATOM     21  O   UNK A   0      -1.556  10.750  23.257  0.00  0.00    +0.000 OA
ENDBRANCH  18  19
ENDBRANCH  12  13
ENDBRANCH   8  11
ENDBRANCH   1   9
BRANCH   6  22
ATOM     22  C   UNK A   0       4.911   4.983  18.088  0.00  0.00    +0.000 C 
ATOM     23  O   UNK A   0       4.873   6.198  17.917  0.00  0.00    +0.000 OA
ATOM     24  N   PHE A   1       6.035   4.266  17.768  0.00  0.00    +0.000 N 
ATOM     25  H   PHE A   1       5.928   3.269  17.594  0.00  0.00    +0.000 HD
BRANCH  24  26
ATOM     26  CA  PHE A   1       7.269   4.906  17.294  0.00  0.00    +0.000 C 
BRANCH  26  27
ATOM     27  C   PHE A   1       7.828   5.809  18.409  0.00  0.00    +0.000 C 
ATOM     28  O   PHE A   1       8.042   7.006  18.294  0.00  0.00    +0.000 OA
BRANCH  27  29
ATOM     29  OXT PHE A   1       8.125   5.137  19.549  0.00  0.00    +0.000 OA
ATOM     30  HXT PHE A   1       7.447   5.270  20.251  0.00  0.00    +0.000 HD
ENDBRANCH  27  29
ENDBRANCH  26  27
BRANCH  26  31
ATOM     31  CB  PHE A   1       7.036   5.730  16.018  0.00  0.00    +0.000 C 
BRANCH  31  32
ATOM     32  CG  PHE A   1       6.818   4.993  14.710  0.00  0.00    +0.000 A 
ATOM     33  CD1 PHE A   1       5.775   4.088  14.476  0.00  0.00    +0.000 A 
ATOM     34  CE1 PHE A   1       5.604   3.504  13.216  0.00  0.00    +0.000 A 
ATOM     35  CZ  PHE A   1       6.497   3.785  12.187  0.00  0.00    +0.000 A 
ATOM     36  CE2 PHE A   1       7.570   4.638  12.419  0.00  0.00    +0.000 A 
ATOM     37  CD2 PHE A   1       7.723   5.245  13.666  0.00  0.00    +0.000 A 
ENDBRANCH  31  32
ENDBRANCH  26  31
ENDBRANCH  24  26
ENDBRANCH   6  22
TORSDOF 10
ENDMDL
