MODEL 1
REMARK VINA RESULT:      -7.0      0.000      0.000
REMARK  Name = 
REMARK  11 active torsions:
REMARK  status: ('A' for Active; 'I' for Inactive)
REMARK    1  A    between atoms: C_1  and  O_2
REMARK    2  A    between atoms: O_2  and  C_3
REMARK    3  A    between atoms: C_3  and  C_4
REMARK    4  A    between atoms: C_4  and  N_5
REMARK    5  A    between atoms: C_6  and  C_8
REMARK    6  A    between atoms: C_8  and  N_9
REMARK    7  A    between atoms: N_9  and  C_10
REMARK    8  A    between atoms: N_9  and  S_19
REMARK    9  A    between atoms: C_16  and  O_17
REMARK   10  A    between atoms: O_17  and  C_18
REMARK   11  A    between atoms: S_19  and  C_20
REMARK                            x       y       z     vdW  Elec       q    Type
REMARK                         _______ _______ _______ _____ _____    ______ ____
ROOT
ATOM      1  N   UNL     1       5.660   5.093  16.839  0.00  0.00    +0.000 N 
ENDROOT
BRANCH   1   2
ATOM      2  C   UNL     1       4.366   4.957  17.465  0.00  0.00    +0.000 A 
ATOM      3  C   UNL     1       3.889   3.637  17.538  0.00  0.00    +0.000 A 
ATOM      4  C   UNL     1       2.635   3.357  18.083  0.00  0.00    +0.000 A 
ATOM      5 CL   UNL     1       2.058   1.738  18.092  0.00  0.00    +0.000 Cl
ATOM      6  C   UNL     1       1.847   4.381  18.581  0.00  0.00    +0.000 A 
ATOM      7  C   UNL     1       2.300   5.700  18.500  0.00  0.00    +0.000 A 
ATOM      8  C   UNL     1       3.552   6.006  17.935  0.00  0.00    +0.000 A 
BRANCH   8   9
ATOM      9  O   UNL     1       3.718   7.341  17.674  0.00  0.00    +0.000 OA
ATOM     10  C   UNL     1       2.578   8.176  17.806  0.00  0.00    +0.000 C 
ENDBRANCH   8   9
ENDBRANCH   1   2
BRANCH   1  11
ATOM     11  S   UNL     1       7.038   5.121  17.832  0.00  0.00    +0.000 S 
ATOM     12  C   UNL     1       7.619   6.797  17.698  0.00  0.00    +0.000 C 
ATOM     13  O   UNL     1       6.582   4.933  19.197  0.00  0.00    +0.000 OA
ATOM     14  O   UNL     1       8.051   4.250  17.276  0.00  0.00    +0.000 OA
ENDBRANCH   1  11
BRANCH   1  15
ATOM     15  C   UNL     1       5.718   5.853  15.562  0.00  0.00    +0.000 C 
BRANCH  15  17
ATOM     16  N   UNL     1       5.783   4.204  13.743  0.00  0.00    +0.000 N 
ATOM     17  C   UNL     1       6.498   5.117  14.482  0.00  0.00    +0.000 C 
ATOM     18  O   UNL     1       7.703   5.307  14.306  0.00  0.00    +0.000 OA
ATOM     19  H   UNL     1       4.820   3.998  14.016  0.00  0.00    +0.000 HD
BRANCH  16  20
ATOM     20  C   UNL     1       6.410   3.317  12.776  0.00  0.00    +0.000 C 
BRANCH  20  21
ATOM     21  C   UNL     1       5.405   2.700  11.799  0.00  0.00    +0.000 C 
BRANCH  21  23
ATOM     22  C   UNL     1       3.456   3.322  10.616  0.00  0.00    +0.000 C 
ATOM     23  O   UNL     1       4.188   3.455  11.830  0.00  0.00    +0.000 OA
ENDBRANCH  21  23
ENDBRANCH  20  21
ENDBRANCH  16  20
ENDBRANCH  15  17
ENDBRANCH   1  15
TORSDOF 8
ENDMDL
MODEL 2
REMARK VINA RESULT:      -6.7      1.836      2.544
REMARK  Name = 
REMARK  11 active torsions:
REMARK  status: ('A' for Active; 'I' for Inactive)
REMARK    1  A    between atoms: C_1  and  O_2
REMARK    2  A    between atoms: O_2  and  C_3
REMARK    3  A    between atoms: C_3  and  C_4
REMARK    4  A    between atoms: C_4  and  N_5
REMARK    5  A    between atoms: C_6  and  C_8
REMARK    6  A    between atoms: C_8  and  N_9
REMARK    7  A    between atoms: N_9  and  C_10
REMARK    8  A    between atoms: N_9  and  S_19
REMARK    9  A    between atoms: C_16  and  O_17
REMARK   10  A    between atoms: O_17  and  C_18
REMARK   11  A    between atoms: S_19  and  C_20
REMARK                            x       y       z     vdW  Elec       q    Type
REMARK                         _______ _______ _______ _____ _____    ______ ____
ROOT
ATOM      1  N   UNL     1       5.646   5.274  17.415  0.00  0.00    +0.000 N 
ENDROOT
BRANCH   1   2
ATOM      2  C   UNL     1       4.372   5.145  18.082  0.00  0.00    +0.000 A 
ATOM      3  C   UNL     1       3.803   6.361  18.495  0.00  0.00    +0.000 A 
ATOM      4  C   UNL     1       2.591   6.389  19.186  0.00  0.00    +0.000 A 
ATOM      5 CL   UNL     1       1.962   7.891  19.735  0.00  0.00    +0.000 Cl
ATOM      6  C   UNL     1       1.918   5.210  19.458  0.00  0.00    +0.000 A 
ATOM      7  C   UNL     1       2.478   3.991  19.069  0.00  0.00    +0.000 A 
ATOM      8  C   UNL     1       3.710   3.940  18.390  0.00  0.00    +0.000 A 
BRANCH   8   9
ATOM      9  O   UNL     1       4.249   2.682  18.337  0.00  0.00    +0.000 OA
ATOM     10  C   UNL     1       3.358   1.586  18.478  0.00  0.00    +0.000 C 
ENDBRANCH   8   9
ENDBRANCH   1   2
BRANCH   1  11
ATOM     11  S   UNL     1       7.052   5.336  18.367  0.00  0.00    +0.000 S 
ATOM     12  C   UNL     1       7.681   6.975  18.081  0.00  0.00    +0.000 C 
ATOM     13  O   UNL     1       6.629   5.274  19.754  0.00  0.00    +0.000 OA
ATOM     14  O   UNL     1       8.021   4.389  17.858  0.00  0.00    +0.000 OA
ENDBRANCH   1  11
BRANCH   1  15
ATOM     15  C   UNL     1       5.661   6.000  16.118  0.00  0.00    +0.000 C 
BRANCH  15  17
ATOM     16  N   UNL     1       5.717   4.219  14.426  0.00  0.00    +0.000 N 
ATOM     17  C   UNL     1       6.412   5.238  15.034  0.00  0.00    +0.000 C 
ATOM     18  O   UNL     1       7.580   5.502  14.745  0.00  0.00    +0.000 OA
ATOM     19  H   UNL     1       4.797   3.966  14.793  0.00  0.00    +0.000 HD
BRANCH  16  20
ATOM     20  C   UNL     1       6.336   3.306  13.479  0.00  0.00    +0.000 C 
BRANCH  20  21
ATOM     21  C   UNL     1       5.937   3.597  12.029  0.00  0.00    +0.000 C 
BRANCH  21  23
ATOM     22  C   UNL     1       3.821   3.203  11.053  0.00  0.00    +0.000 C 
ATOM     23  O   UNL     1       4.999   2.609  11.587  0.00  0.00    +0.000 OA
ENDBRANCH  21  23
ENDBRANCH  20  21
ENDBRANCH  16  20
ENDBRANCH  15  17
ENDBRANCH   1  15
TORSDOF 8
ENDMDL
MODEL 3
REMARK VINA RESULT:      -6.7      2.002      2.724
REMARK  Name = 
REMARK  11 active torsions:
REMARK  status: ('A' for Active; 'I' for Inactive)
REMARK    1  A    between atoms: C_1  and  O_2
REMARK    2  A    between atoms: O_2  and  C_3
REMARK    3  A    between atoms: C_3  and  C_4
REMARK    4  A    between atoms: C_4  and  N_5
REMARK    5  A    between atoms: C_6  and  C_8
REMARK    6  A    between atoms: C_8  and  N_9
REMARK    7  A    between atoms: N_9  and  C_10
REMARK    8  A    between atoms: N_9  and  S_19
REMARK    9  A    between atoms: C_16  and  O_17
REMARK   10  A    between atoms: O_17  and  C_18
REMARK   11  A    between atoms: S_19  and  C_20
REMARK                            x       y       z     vdW  Elec       q    Type
REMARK                         _______ _______ _______ _____ _____    ______ ____
ROOT
ATOM      1  N   UNL     1       5.958   4.950  16.977  0.00  0.00    +0.000 N 
ENDROOT
BRANCH   1   2
ATOM      2  C   UNL     1       4.585   5.104  17.397  0.00  0.00    +0.000 A 
ATOM      3  C   UNL     1       4.169   6.436  17.558  0.00  0.00    +0.000 A 
ATOM      4  C   UNL     1       2.879   6.738  17.997  0.00  0.00    +0.000 A 
ATOM      5 CL   UNL     1       2.431   8.378  18.247  0.00  0.00    +0.000 Cl
ATOM      6  C   UNL     1       1.979   5.720  18.263  0.00  0.00    +0.000 A 
ATOM      7  C   UNL     1       2.382   4.390  18.125  0.00  0.00    +0.000 A 
ATOM      8  C   UNL     1       3.685   4.064  17.704  0.00  0.00    +0.000 A 
BRANCH   8   9
ATOM      9  O   UNL     1       4.003   2.745  17.893  0.00  0.00    +0.000 OA
ATOM     10  C   UNL     1       3.004   1.909  18.457  0.00  0.00    +0.000 C 
ENDBRANCH   8   9
ENDBRANCH   1   2
BRANCH   1  11
ATOM     11  S   UNL     1       7.176   5.020  18.158  0.00  0.00    +0.000 S 
ATOM     12  C   UNL     1       7.717   6.713  18.105  0.00  0.00    +0.000 C 
ATOM     13  O   UNL     1       6.534   4.813  19.443  0.00  0.00    +0.000 OA
ATOM     14  O   UNL     1       8.286   4.182  17.756  0.00  0.00    +0.000 OA
ENDBRANCH   1  11
BRANCH   1  15
ATOM     15  C   UNL     1       6.302   5.411  15.606  0.00  0.00    +0.000 C 
BRANCH  15  17
ATOM     16  N   UNL     1       6.785   4.604  13.337  0.00  0.00    +0.000 N 
ATOM     17  C   UNL     1       6.411   4.261  14.615  0.00  0.00    +0.000 C 
ATOM     18  O   UNL     1       6.149   3.100  14.935  0.00  0.00    +0.000 OA
ATOM     19  H   UNL     1       6.867   5.594  13.099  0.00  0.00    +0.000 HD
BRANCH  16  20
ATOM     20  C   UNL     1       6.793   3.648  12.241  0.00  0.00    +0.000 C 
BRANCH  20  21
ATOM     21  C   UNL     1       5.387   3.194  11.840  0.00  0.00    +0.000 C 
BRANCH  21  23
ATOM     22  C   UNL     1       6.722   1.414  11.047  0.00  0.00    +0.000 C 
ATOM     23  O   UNL     1       5.422   1.812  11.467  0.00  0.00    +0.000 OA
ENDBRANCH  21  23
ENDBRANCH  20  21
ENDBRANCH  16  20
ENDBRANCH  15  17
ENDBRANCH   1  15
TORSDOF 8
ENDMDL
MODEL 4
REMARK VINA RESULT:      -6.7      3.320      6.279
REMARK  Name = 
REMARK  11 active torsions:
REMARK  status: ('A' for Active; 'I' for Inactive)
REMARK    1  A    between atoms: C_1  and  O_2
REMARK    2  A    between atoms: O_2  and  C_3
REMARK    3  A    between atoms: C_3  and  C_4
REMARK    4  A    between atoms: C_4  and  N_5
REMARK    5  A    between atoms: C_6  and  C_8
REMARK    6  A    between atoms: C_8  and  N_9
REMARK    7  A    between atoms: N_9  and  C_10
REMARK    8  A    between atoms: N_9  and  S_19
REMARK    9  A    between atoms: C_16  and  O_17
REMARK   10  A    between atoms: O_17  and  C_18
REMARK   11  A    between atoms: S_19  and  C_20
REMARK                            x       y       z     vdW  Elec       q    Type
REMARK                         _______ _______ _______ _____ _____    ______ ____
ROOT
ATOM      1  N   UNL     1       3.819   4.109  18.540  0.00  0.00    +0.000 N 
ENDROOT
BRANCH   1   2
ATOM      2  C   UNL     1       4.944   4.413  17.689  0.00  0.00    +0.000 A 
ATOM      3  C   UNL     1       4.754   4.100  16.333  0.00  0.00    +0.000 A 
ATOM      4  C   UNL     1       5.770   4.305  15.399  0.00  0.00    +0.000 A 
ATOM      5 CL   UNL     1       5.522   3.846  13.762  0.00  0.00    +0.000 Cl
ATOM      6  C   UNL     1       6.983   4.842  15.796  0.00  0.00    +0.000 A 
ATOM      7  C   UNL     1       7.194   5.143  17.144  0.00  0.00    +0.000 A 
ATOM      8  C   UNL     1       6.190   4.924  18.105  0.00  0.00    +0.000 A 
BRANCH   8   9
ATOM      9  O   UNL     1       6.647   4.998  19.394  0.00  0.00    +0.000 OA
ATOM     10  C   UNL     1       7.873   5.680  19.612  0.00  0.00    +0.000 C 
ENDBRANCH   8   9
ENDBRANCH   1   2
BRANCH   1  11
ATOM     11  S   UNL     1       3.735   2.565  19.245  0.00  0.00    +0.000 S 
ATOM     12  C   UNL     1       2.308   2.663  20.303  0.00  0.00    +0.000 C 
ATOM     13  O   UNL     1       3.419   1.629  18.182  0.00  0.00    +0.000 OA
ATOM     14  O   UNL     1       4.898   2.353  20.080  0.00  0.00    +0.000 OA
ENDBRANCH   1  11
BRANCH   1  15
ATOM     15  C   UNL     1       2.536   4.797  18.239  0.00  0.00    +0.000 C 
BRANCH  15  17
ATOM     16  N   UNL     1       2.470   7.197  17.715  0.00  0.00    +0.000 N 
ATOM     17  C   UNL     1       2.530   6.246  18.707  0.00  0.00    +0.000 C 
ATOM     18  O   UNL     1       2.607   6.544  19.900  0.00  0.00    +0.000 OA
ATOM     19  H   UNL     1       2.536   6.894  16.741  0.00  0.00    +0.000 HD
BRANCH  16  20
ATOM     20  C   UNL     1       2.603   8.619  17.985  0.00  0.00    +0.000 C 
BRANCH  20  21
ATOM     21  C   UNL     1       1.255   9.345  18.015  0.00  0.00    +0.000 C 
BRANCH  21  23
ATOM     22  C   UNL     1       0.556   9.544  20.263  0.00  0.00    +0.000 C 
ATOM     23  O   UNL     1       1.196  10.191  19.169  0.00  0.00    +0.000 OA
ENDBRANCH  21  23
ENDBRANCH  20  21
ENDBRANCH  16  20
ENDBRANCH  15  17
ENDBRANCH   1  15
TORSDOF 8
ENDMDL
MODEL 5
REMARK VINA RESULT:      -6.4      2.245      3.082
REMARK  Name = 
REMARK  11 active torsions:
REMARK  status: ('A' for Active; 'I' for Inactive)
REMARK    1  A    between atoms: C_1  and  O_2
REMARK    2  A    between atoms: O_2  and  C_3
REMARK    3  A    between atoms: C_3  and  C_4
REMARK    4  A    between atoms: C_4  and  N_5
REMARK    5  A    between atoms: C_6  and  C_8
REMARK    6  A    between atoms: C_8  and  N_9
REMARK    7  A    between atoms: N_9  and  C_10
REMARK    8  A    between atoms: N_9  and  S_19
REMARK    9  A    between atoms: C_16  and  O_17
REMARK   10  A    between atoms: O_17  and  C_18
REMARK   11  A    between atoms: S_19  and  C_20
REMARK                            x       y       z     vdW  Elec       q    Type
REMARK                         _______ _______ _______ _____ _____    ______ ____
ROOT
ATOM      1  N   UNL     1       5.327   5.641  18.067  0.00  0.00    +0.000 N 
ENDROOT
BRANCH   1   2
ATOM      2  C   UNL     1       4.182   5.336  18.892  0.00  0.00    +0.000 A 
ATOM      3  C   UNL     1       3.459   6.459  19.328  0.00  0.00    +0.000 A 
ATOM      4  C   UNL     1       2.349   6.319  20.162  0.00  0.00    +0.000 A 
ATOM      5 CL   UNL     1       1.533   7.721  20.729  0.00  0.00    +0.000 Cl
ATOM      6  C   UNL     1       1.931   5.060  20.560  0.00  0.00    +0.000 A 
ATOM      7  C   UNL     1       2.650   3.934  20.150  0.00  0.00    +0.000 A 
ATOM      8  C   UNL     1       3.784   4.055  19.325  0.00  0.00    +0.000 A 
BRANCH   8   9
ATOM      9  O   UNL     1       4.527   2.907  19.252  0.00  0.00    +0.000 OA
ATOM     10  C   UNL     1       3.827   1.692  19.031  0.00  0.00    +0.000 C 
ENDBRANCH   8   9
ENDBRANCH   1   2
BRANCH   1  11
ATOM     11  S   UNL     1       6.876   5.350  18.700  0.00  0.00    +0.000 S 
ATOM     12  C   UNL     1       7.775   6.835  18.313  0.00  0.00    +0.000 C 
ATOM     13  O   UNL     1       6.743   5.292  20.144  0.00  0.00    +0.000 OA
ATOM     14  O   UNL     1       7.492   4.254  17.980  0.00  0.00    +0.000 OA
ENDBRANCH   1  11
BRANCH   1  15
ATOM     15  C   UNL     1       5.181   6.752  17.090  0.00  0.00    +0.000 C 
BRANCH  15  17
ATOM     16  N   UNL     1       5.343   4.908  15.475  0.00  0.00    +0.000 N 
ATOM     17  C   UNL     1       5.178   6.262  15.649  0.00  0.00    +0.000 C 
ATOM     18  O   UNL     1       5.066   7.039  14.699  0.00  0.00    +0.000 OA
ATOM     19  H   UNL     1       5.557   4.331  16.291  0.00  0.00    +0.000 HD
BRANCH  16  20
ATOM     20  C   UNL     1       5.509   4.302  14.163  0.00  0.00    +0.000 C 
BRANCH  20  21
ATOM     21  C   UNL     1       6.913   4.508  13.589  0.00  0.00    +0.000 C 
BRANCH  21  23
ATOM     22  C   UNL     1       5.862   3.078  12.029  0.00  0.00    +0.000 C 
ATOM     23  O   UNL     1       6.988   3.909  12.290  0.00  0.00    +0.000 OA
ENDBRANCH  21  23
ENDBRANCH  20  21
ENDBRANCH  16  20
ENDBRANCH  15  17
ENDBRANCH   1  15
TORSDOF 8
ENDMDL
MODEL 6
REMARK VINA RESULT:      -6.4      3.279      6.156
REMARK  Name = 
REMARK  11 active torsions:
REMARK  status: ('A' for Active; 'I' for Inactive)
REMARK    1  A    between atoms: C_1  and  O_2
REMARK    2  A    between atoms: O_2  and  C_3
REMARK    3  A    between atoms: C_3  and  C_4
REMARK    4  A    between atoms: C_4  and  N_5
REMARK    5  A    between atoms: C_6  and  C_8
REMARK    6  A    between atoms: C_8  and  N_9
REMARK    7  A    between atoms: N_9  and  C_10
REMARK    8  A    between atoms: N_9  and  S_19
REMARK    9  A    between atoms: C_16  and  O_17
REMARK   10  A    between atoms: O_17  and  C_18
REMARK   11  A    between atoms: S_19  and  C_20
REMARK                            x       y       z     vdW  Elec       q    Type
REMARK                         _______ _______ _______ _____ _____    ______ ____
ROOT
ATOM      1  N   UNL     1       6.201   5.651  17.521  0.00  0.00    +0.000 N 
ENDROOT
BRANCH   1   2
ATOM      2  C   UNL     1       4.872   5.649  18.085  0.00  0.00    +0.000 A 
ATOM      3  C   UNL     1       4.079   6.749  17.716  0.00  0.00    +0.000 A 
ATOM      4  C   UNL     1       2.784   6.900  18.215  0.00  0.00    +0.000 A 
ATOM      5 CL   UNL     1       1.872   8.294  17.794  0.00  0.00    +0.000 Cl
ATOM      6  C   UNL     1       2.253   5.951  19.071  0.00  0.00    +0.000 A 
ATOM      7  C   UNL     1       3.034   4.860  19.461  0.00  0.00    +0.000 A 
ATOM      8  C   UNL     1       4.350   4.700  18.986  0.00  0.00    +0.000 A 
BRANCH   8   9
ATOM      9  O   UNL     1       5.064   3.756  19.674  0.00  0.00    +0.000 OA
ATOM     10  C   UNL     1       4.457   2.487  19.858  0.00  0.00    +0.000 C 
ENDBRANCH   8   9
ENDBRANCH   1   2
BRANCH   1  11
ATOM     11  S   UNL     1       6.602   4.444  16.395  0.00  0.00    +0.000 S 
ATOM     12  C   UNL     1       6.497   5.279  14.828  0.00  0.00    +0.000 C 
ATOM     13  O   UNL     1       7.998   4.108  16.611  0.00  0.00    +0.000 OA
ATOM     14  O   UNL     1       5.591   3.409  16.419  0.00  0.00    +0.000 OA
ENDBRANCH   1  11
BRANCH   1  15
ATOM     15  C   UNL     1       7.296   6.189  18.371  0.00  0.00    +0.000 C 
BRANCH  15  17
ATOM     16  N   UNL     1       8.521   8.269  18.828  0.00  0.00    +0.000 N 
ATOM     17  C   UNL     1       7.753   7.571  17.926  0.00  0.00    +0.000 C 
ATOM     18  O   UNL     1       7.424   8.044  16.836  0.00  0.00    +0.000 OA
ATOM     19  H   UNL     1       8.656   7.879  19.763  0.00  0.00    +0.000 HD
BRANCH  16  20
ATOM     20  C   UNL     1       8.913   9.653  18.617  0.00  0.00    +0.000 C 
BRANCH  20  21
ATOM     21  C   UNL     1       9.531  10.291  19.865  0.00  0.00    +0.000 C 
BRANCH  21  23
ATOM     22  C   UNL     1      11.022  11.731  18.731  0.00  0.00    +0.000 C 
ATOM     23  O   UNL     1       9.882  11.650  19.580  0.00  0.00    +0.000 OA
ENDBRANCH  21  23
ENDBRANCH  20  21
ENDBRANCH  16  20
ENDBRANCH  15  17
ENDBRANCH   1  15
TORSDOF 8
ENDMDL
MODEL 7
REMARK VINA RESULT:      -6.3      2.955      4.320
REMARK  Name = 
REMARK  11 active torsions:
REMARK  status: ('A' for Active; 'I' for Inactive)
REMARK    1  A    between atoms: C_1  and  O_2
REMARK    2  A    between atoms: O_2  and  C_3
REMARK    3  A    between atoms: C_3  and  C_4
REMARK    4  A    between atoms: C_4  and  N_5
REMARK    5  A    between atoms: C_6  and  C_8
REMARK    6  A    between atoms: C_8  and  N_9
REMARK    7  A    between atoms: N_9  and  C_10
REMARK    8  A    between atoms: N_9  and  S_19
REMARK    9  A    between atoms: C_16  and  O_17
REMARK   10  A    between atoms: O_17  and  C_18
REMARK   11  A    between atoms: S_19  and  C_20
REMARK                            x       y       z     vdW  Elec       q    Type
REMARK                         _______ _______ _______ _____ _____    ______ ____
ROOT
ATOM      1  N   UNL     1       3.661   4.789  18.425  0.00  0.00    +0.000 N 
ENDROOT
BRANCH   1   2
ATOM      2  C   UNL     1       2.869   5.827  19.041  0.00  0.00    +0.000 A 
ATOM      3  C   UNL     1       2.817   7.031  18.317  0.00  0.00    +0.000 A 
ATOM      4  C   UNL     1       2.119   8.135  18.808  0.00  0.00    +0.000 A 
ATOM      5 CL   UNL     1       2.137   9.610  17.926  0.00  0.00    +0.000 Cl
ATOM      6  C   UNL     1       1.447   8.053  20.016  0.00  0.00    +0.000 A 
ATOM      7  C   UNL     1       1.503   6.869  20.756  0.00  0.00    +0.000 A 
ATOM      8  C   UNL     1       2.218   5.751  20.288  0.00  0.00    +0.000 A 
BRANCH   8   9
ATOM      9  O   UNL     1       2.410   4.790  21.245  0.00  0.00    +0.000 OA
ATOM     10  C   UNL     1       1.522   3.682  21.241  0.00  0.00    +0.000 C 
ENDBRANCH   8   9
ENDBRANCH   1   2
BRANCH   1  11
ATOM     11  S   UNL     1       2.855   3.526  17.626  0.00  0.00    +0.000 S 
ATOM     12  C   UNL     1       3.236   2.095  18.612  0.00  0.00    +0.000 C 
ATOM     13  O   UNL     1       1.432   3.776  17.763  0.00  0.00    +0.000 OA
ATOM     14  O   UNL     1       3.439   3.334  16.316  0.00  0.00    +0.000 OA
ENDBRANCH   1  11
BRANCH   1  15
ATOM     15  C   UNL     1       4.975   4.481  19.049  0.00  0.00    +0.000 C 
BRANCH  15  17
ATOM     16  N   UNL     1       5.812   5.190  16.851  0.00  0.00    +0.000 N 
ATOM     17  C   UNL     1       6.138   4.683  18.087  0.00  0.00    +0.000 C 
ATOM     18  O   UNL     1       7.293   4.379  18.391  0.00  0.00    +0.000 OA
ATOM     19  H   UNL     1       4.825   5.305  16.612  0.00  0.00    +0.000 HD
BRANCH  16  20
ATOM     20  C   UNL     1       6.781   5.305  15.772  0.00  0.00    +0.000 C 
BRANCH  20  21
ATOM     21  C   UNL     1       6.777   4.088  14.842  0.00  0.00    +0.000 C 
BRANCH  21  23
ATOM     22  C   UNL     1       5.965   3.531  12.694  0.00  0.00    +0.000 C 
ATOM     23  O   UNL     1       5.687   4.199  13.919  0.00  0.00    +0.000 OA
ENDBRANCH  21  23
ENDBRANCH  20  21
ENDBRANCH  16  20
ENDBRANCH  15  17
ENDBRANCH   1  15
TORSDOF 8
ENDMDL
MODEL 8
REMARK VINA RESULT:      -6.3      1.975      2.810
REMARK  Name = 
REMARK  11 active torsions:
REMARK  status: ('A' for Active; 'I' for Inactive)
REMARK    1  A    between atoms: C_1  and  O_2
REMARK    2  A    between atoms: O_2  and  C_3
REMARK    3  A    between atoms: C_3  and  C_4
REMARK    4  A    between atoms: C_4  and  N_5
REMARK    5  A    between atoms: C_6  and  C_8
REMARK    6  A    between atoms: C_8  and  N_9
REMARK    7  A    between atoms: N_9  and  C_10
REMARK    8  A    between atoms: N_9  and  S_19
REMARK    9  A    between atoms: C_16  and  O_17
REMARK   10  A    between atoms: O_17  and  C_18
REMARK   11  A    between atoms: S_19  and  C_20
REMARK                            x       y       z     vdW  Elec       q    Type
REMARK                         _______ _______ _______ _____ _____    ______ ____
ROOT
ATOM      1  N   UNL     1       5.632   5.321  16.774  0.00  0.00    +0.000 N 
ENDROOT
BRANCH   1   2
ATOM      2  C   UNL     1       4.407   5.225  17.532  0.00  0.00    +0.000 A 
ATOM      3  C   UNL     1       3.859   6.460  17.917  0.00  0.00    +0.000 A 
ATOM      4  C   UNL     1       2.697   6.522  18.686  0.00  0.00    +0.000 A 
ATOM      5 CL   UNL     1       2.097   8.050  19.195  0.00  0.00    +0.000 Cl
ATOM      6  C   UNL     1       2.051   5.357  19.066  0.00  0.00    +0.000 A 
ATOM      7  C   UNL     1       2.591   4.121  18.705  0.00  0.00    +0.000 A 
ATOM      8  C   UNL     1       3.775   4.036  17.948  0.00  0.00    +0.000 A 
BRANCH   8   9
ATOM      9  O   UNL     1       4.317   2.779  17.925  0.00  0.00    +0.000 OA
ATOM     10  C   UNL     1       3.460   1.695  18.253  0.00  0.00    +0.000 C 
ENDBRANCH   8   9
ENDBRANCH   1   2
BRANCH   1  11
ATOM     11  S   UNL     1       7.092   5.505  17.623  0.00  0.00    +0.000 S 
ATOM     12  C   UNL     1       6.610   5.349  19.328  0.00  0.00    +0.000 C 
ATOM     13  O   UNL     1       7.918   4.355  17.302  0.00  0.00    +0.000 OA
ATOM     14  O   UNL     1       7.600   6.845  17.422  0.00  0.00    +0.000 OA
ENDBRANCH   1  11
BRANCH   1  15
ATOM     15  C   UNL     1       5.545   5.923  15.418  0.00  0.00    +0.000 C 
BRANCH  15  17
ATOM     16  N   UNL     1       5.594   4.258  13.612  0.00  0.00    +0.000 N 
ATOM     17  C   UNL     1       6.328   5.133  14.379  0.00  0.00    +0.000 C 
ATOM     18  O   UNL     1       7.549   5.250  14.258  0.00  0.00    +0.000 OA
ATOM     19  H   UNL     1       4.609   4.112  13.842  0.00  0.00    +0.000 HD
BRANCH  16  20
ATOM     20  C   UNL     1       6.211   3.327  12.680  0.00  0.00    +0.000 C 
BRANCH  20  21
ATOM     21  C   UNL     1       5.212   2.748  11.674  0.00  0.00    +0.000 C 
BRANCH  21  23
ATOM     22  C   UNL     1       7.039   1.403  11.015  0.00  0.00    +0.000 C 
ATOM     23  O   UNL     1       5.641   1.440  11.279  0.00  0.00    +0.000 OA
ENDBRANCH  21  23
ENDBRANCH  20  21
ENDBRANCH  16  20
ENDBRANCH  15  17
ENDBRANCH   1  15
TORSDOF 8
ENDMDL
MODEL 9
REMARK VINA RESULT:      -6.3      1.096      1.433
REMARK  Name = 
REMARK  11 active torsions:
REMARK  status: ('A' for Active; 'I' for Inactive)
REMARK    1  A    between atoms: C_1  and  O_2
REMARK    2  A    between atoms: O_2  and  C_3
REMARK    3  A    between atoms: C_3  and  C_4
REMARK    4  A    between atoms: C_4  and  N_5
REMARK    5  A    between atoms: C_6  and  C_8
REMARK    6  A    between atoms: C_8  and  N_9
REMARK    7  A    between atoms: N_9  and  C_10
REMARK    8  A    between atoms: N_9  and  S_19
REMARK    9  A    between atoms: C_16  and  O_17
REMARK   10  A    between atoms: O_17  and  C_18
REMARK   11  A    between atoms: S_19  and  C_20
REMARK                            x       y       z     vdW  Elec       q    Type
REMARK                         _______ _______ _______ _____ _____    ______ ____
ROOT
ATOM      1  N   UNL     1       5.523   5.465  17.084  0.00  0.00    +0.000 N 
ENDROOT
BRANCH   1   2
ATOM      2  C   UNL     1       4.201   5.205  17.605  0.00  0.00    +0.000 A 
ATOM      3  C   UNL     1       3.822   3.852  17.590  0.00  0.00    +0.000 A 
ATOM      4  C   UNL     1       2.558   3.457  18.028  0.00  0.00    +0.000 A 
ATOM      5 CL   UNL     1       2.107   1.801  17.929  0.00  0.00    +0.000 Cl
ATOM      6  C   UNL     1       1.659   4.397  18.504  0.00  0.00    +0.000 A 
ATOM      7  C   UNL     1       2.015   5.748  18.509  0.00  0.00    +0.000 A 
ATOM      8  C   UNL     1       3.277   6.170  18.053  0.00  0.00    +0.000 A 
BRANCH   8   9
ATOM      9  O   UNL     1       3.359   7.524  17.857  0.00  0.00    +0.000 OA
ATOM     10  C   UNL     1       2.139   8.242  17.763  0.00  0.00    +0.000 C 
ENDBRANCH   8   9
ENDBRANCH   1   2
BRANCH   1  11
ATOM     11  S   UNL     1       6.785   5.739  18.188  0.00  0.00    +0.000 S 
ATOM     12  C   UNL     1       7.941   4.434  17.837  0.00  0.00    +0.000 C 
ATOM     13  O   UNL     1       7.418   6.989  17.808  0.00  0.00    +0.000 OA
ATOM     14  O   UNL     1       6.294   5.552  19.537  0.00  0.00    +0.000 OA
ENDBRANCH   1  11
BRANCH   1  15
ATOM     15  C   UNL     1       5.609   6.135  15.760  0.00  0.00    +0.000 C 
BRANCH  15  17
ATOM     16  N   UNL     1       5.569   4.484  13.942  0.00  0.00    +0.000 N 
ATOM     17  C   UNL     1       6.351   5.295  14.730  0.00  0.00    +0.000 C 
ATOM     18  O   UNL     1       7.580   5.319  14.635  0.00  0.00    +0.000 OA
ATOM     19  H   UNL     1       4.572   4.412  14.150  0.00  0.00    +0.000 HD
BRANCH  16  20
ATOM     20  C   UNL     1       6.132   3.516  13.014  0.00  0.00    +0.000 C 
BRANCH  20  21
ATOM     21  C   UNL     1       5.132   3.071  11.943  0.00  0.00    +0.000 C 
BRANCH  21  23
ATOM     22  C   UNL     1       6.980   1.739  11.315  0.00  0.00    +0.000 C 
ATOM     23  O   UNL     1       5.561   1.825  11.381  0.00  0.00    +0.000 OA
ENDBRANCH  21  23
ENDBRANCH  20  21
ENDBRANCH  16  20
ENDBRANCH  15  17
ENDBRANCH   1  15
TORSDOF 8
ENDMDL
