MODEL 1
REMARK VINA RESULT:      -7.1      0.000      0.000
REMARK  Name = 
REMARK  18 active torsions:
REMARK  status: ('A' for Active; 'I' for Inactive)
REMARK    1  A    between atoms: C_1  and  C_2
REMARK    2  A    between atoms: C_4  and  C_5
REMARK    3  A    between atoms: C_6  and  O_7
REMARK    4  A    between atoms: O_7  and  C_8
REMARK    5  A    between atoms: C_8  and  C_9
REMARK    6  A    between atoms: C_9  and  O_10
REMARK    7  A    between atoms: C_9  and  C_11
REMARK    8  A    between atoms: C_11  and  C_12
REMARK    9  A    between atoms: C_12  and  O_13
REMARK   10  A    between atoms: C_12  and  C_14
REMARK   11  A    between atoms: C_14  and  C_15
REMARK   12  A    between atoms: C_15  and  O_17
REMARK   13  A    between atoms: C_18  and  C_19
REMARK   14  A    between atoms: C_19  and  C_20
REMARK   15  A    between atoms: C_19  and  C_24
REMARK   16  A    between atoms: C_20  and  C_21
REMARK   17  A    between atoms: C_21  and  C_22
REMARK   18  A    between atoms: C_21  and  C_23
REMARK                            x       y       z     vdW  Elec       q    Type
REMARK                         _______ _______ _______ _____ _____    ______ ____
ROOT
ATOM      1  C   UNL     1       1.983   1.423  18.645  0.00  0.00    +0.000 C 
ATOM      2  C   UNL     1       2.494   2.831  18.553  0.00  0.00    +0.000 A 
ATOM      3  C   UNL     1       1.945   3.855  19.319  0.00  0.00    +0.000 A 
ATOM      4  C   UNL     1       2.424   5.175  19.206  0.00  0.00    +0.000 A 
ATOM      5  C   UNL     1       1.887   6.208  20.164  0.00  0.00    +0.000 C 
ATOM      6  C   UNL     1       3.448   5.499  18.283  0.00  0.00    +0.000 A 
ATOM      7  C   UNL     1       4.093   4.451  17.592  0.00  0.00    +0.000 A 
ATOM      8  C   UNL     1       3.569   3.136  17.717  0.00  0.00    +0.000 A 
ENDROOT
BRANCH   6   9
ATOM      9  O   UNL     1       3.777   6.835  18.252  0.00  0.00    +0.000 OA
BRANCH   9  10
ATOM     10  C   UNL     1       3.054   7.709  17.368  0.00  0.00    +0.000 C 
BRANCH  10  11
ATOM     11  C   UNL     1       2.311   8.834  18.145  0.00  0.00    +0.000 C 
BRANCH  11  12
ATOM     12  O   UNL     1       3.000  10.076  17.955  0.00  0.00    +0.000 OA
ATOM     13  H   UNL     1       2.384  10.783  18.239  0.00  0.00    +0.000 HD
ENDBRANCH  11  12
BRANCH  11  14
ATOM     14  C   UNL     1       0.862   8.995  17.623  0.00  0.00    +0.000 C 
BRANCH  14  15
ATOM     15  C   UNL     1       0.039  10.082  18.348  0.00  0.00    +0.000 C 
BRANCH  15  16
ATOM     16  O   UNL     1       0.602  11.375  18.074  0.00  0.00    +0.000 OA
ATOM     17  H   UNL     1      -0.124  12.003  17.903  0.00  0.00    +0.000 HD
ENDBRANCH  15  16
BRANCH  15  18
ATOM     18  C   UNL     1      -1.437  10.103  17.922  0.00  0.00    +0.000 C 
BRANCH  18  19
ATOM     19  C   UNL     1      -2.036  11.480  17.996  0.00  0.00    +0.000 C 
ATOM     20  O   UNL     1      -2.724  11.892  18.916  0.00  0.00    +0.000 OA
BRANCH  19  21
ATOM     21  O   UNL     1      -1.709  12.264  16.936  0.00  0.00    +0.000 OA
ATOM     22  H   UNL     1      -1.307  11.788  16.184  0.00  0.00    +0.000 HD
ENDBRANCH  19  21
ENDBRANCH  18  19
ENDBRANCH  15  18
ENDBRANCH  14  15
ENDBRANCH  11  14
ENDBRANCH  10  11
ENDBRANCH   9  10
ENDBRANCH   6   9
BRANCH   7  23
ATOM     23  C   UNL     1       5.403   4.600  16.809  0.00  0.00    +0.000 C 
BRANCH  23  24
ATOM     24  C   UNL     1       6.412   5.602  17.417  0.00  0.00    +0.000 A 
ATOM     25  C   UNL     1       7.171   5.332  18.573  0.00  0.00    +0.000 A 
ATOM     26  C   UNL     1       8.033   6.291  19.114  0.00  0.00    +0.000 A 
ATOM     27  C   UNL     1       8.164   7.525  18.497  0.00  0.00    +0.000 A 
ATOM     28  F   UNL     1       8.980   8.448  19.024  0.00  0.00    +0.000 F 
ATOM     29  C   UNL     1       7.464   7.812  17.336  0.00  0.00    +0.000 A 
ATOM     30  C   UNL     1       6.605   6.853  16.794  0.00  0.00    +0.000 A 
ENDBRANCH  23  24
BRANCH  23  31
ATOM     31  C   UNL     1       5.133   4.941  15.300  0.00  0.00    +0.000 C 
BRANCH  31  32
ATOM     32  C   UNL     1       5.986   4.186  14.252  0.00  0.00    +0.000 C 
ATOM     33  C   UNL     1       5.141   3.885  13.005  0.00  0.00    +0.000 C 
ATOM     34  C   UNL     1       7.234   4.966  13.834  0.00  0.00    +0.000 C 
ENDBRANCH  31  32
ENDBRANCH  23  31
ENDBRANCH   7  23
TORSDOF 14
ENDMDL
MODEL 2
REMARK VINA RESULT:      -6.9      2.447      3.871
REMARK  Name = 
REMARK  18 active torsions:
REMARK  status: ('A' for Active; 'I' for Inactive)
REMARK    1  A    between atoms: C_1  and  C_2
REMARK    2  A    between atoms: C_4  and  C_5
REMARK    3  A    between atoms: C_6  and  O_7
REMARK    4  A    between atoms: O_7  and  C_8
REMARK    5  A    between atoms: C_8  and  C_9
REMARK    6  A    between atoms: C_9  and  O_10
REMARK    7  A    between atoms: C_9  and  C_11
REMARK    8  A    between atoms: C_11  and  C_12
REMARK    9  A    between atoms: C_12  and  O_13
REMARK   10  A    between atoms: C_12  and  C_14
REMARK   11  A    between atoms: C_14  and  C_15
REMARK   12  A    between atoms: C_15  and  O_17
REMARK   13  A    between atoms: C_18  and  C_19
REMARK   14  A    between atoms: C_19  and  C_20
REMARK   15  A    between atoms: C_19  and  C_24
REMARK   16  A    between atoms: C_20  and  C_21
REMARK   17  A    between atoms: C_21  and  C_22
REMARK   18  A    between atoms: C_21  and  C_23
REMARK                            x       y       z     vdW  Elec       q    Type
REMARK                         _______ _______ _______ _____ _____    ______ ____
ROOT
ATOM      1  C   UNL     1       3.231   1.688  17.921  0.00  0.00    +0.000 C 
ATOM      2  C   UNL     1       3.187   3.173  18.133  0.00  0.00    +0.000 A 
ATOM      3  C   UNL     1       2.499   3.733  19.205  0.00  0.00    +0.000 A 
ATOM      4  C   UNL     1       2.450   5.131  19.377  0.00  0.00    +0.000 A 
ATOM      5  C   UNL     1       1.812   5.668  20.633  0.00  0.00    +0.000 C 
ATOM      6  C   UNL     1       3.066   6.000  18.443  0.00  0.00    +0.000 A 
ATOM      7  C   UNL     1       3.866   5.440  17.424  0.00  0.00    +0.000 A 
ATOM      8  C   UNL     1       3.875   4.027  17.271  0.00  0.00    +0.000 A 
ENDROOT
BRANCH   6   9
ATOM      9  O   UNL     1       2.894   7.337  18.718  0.00  0.00    +0.000 OA
BRANCH   9  10
ATOM     10  C   UNL     1       2.043   8.119  17.862  0.00  0.00    +0.000 C 
BRANCH  10  11
ATOM     11  C   UNL     1       1.827   9.556  18.416  0.00  0.00    +0.000 C 
BRANCH  11  12
ATOM     12  O   UNL     1       1.984  10.503  17.352  0.00  0.00    +0.000 OA
ATOM     13  H   UNL     1       1.404  10.201  16.621  0.00  0.00    +0.000 HD
ENDBRANCH  11  12
BRANCH  11  14
ATOM     14  C   UNL     1       0.401   9.710  19.000  0.00  0.00    +0.000 C 
BRANCH  14  15
ATOM     15  C   UNL     1       0.281  10.761  20.126  0.00  0.00    +0.000 C 
BRANCH  15  16
ATOM     16  O   UNL     1      -1.104  11.044  20.375  0.00  0.00    +0.000 OA
ATOM     17  H   UNL     1      -1.382  10.572  21.182  0.00  0.00    +0.000 HD
ENDBRANCH  15  16
BRANCH  15  18
ATOM     18  C   UNL     1       0.921  10.304  21.445  0.00  0.00    +0.000 C 
BRANCH  18  19
ATOM     19  C   UNL     1      -0.104   9.925  22.478  0.00  0.00    +0.000 C 
ATOM     20  O   UNL     1      -0.439  10.629  23.417  0.00  0.00    +0.000 OA
BRANCH  19  21
ATOM     21  O   UNL     1      -0.668   8.710  22.252  0.00  0.00    +0.000 OA
ATOM     22  H   UNL     1      -1.536   8.577  22.677  0.00  0.00    +0.000 HD
ENDBRANCH  19  21
ENDBRANCH  18  19
ENDBRANCH  15  18
ENDBRANCH  14  15
ENDBRANCH  11  14
ENDBRANCH  10  11
ENDBRANCH   9  10
ENDBRANCH   6   9
BRANCH   7  23
ATOM     23  C   UNL     1       4.835   6.236  16.541  0.00  0.00    +0.000 C 
BRANCH  23  24
ATOM     24  C   UNL     1       5.447   5.439  15.366  0.00  0.00    +0.000 A 
ATOM     25  C   UNL     1       4.700   4.568  14.549  0.00  0.00    +0.000 A 
ATOM     26  C   UNL     1       5.309   3.828  13.530  0.00  0.00    +0.000 A 
ATOM     27  C   UNL     1       6.670   3.964  13.301  0.00  0.00    +0.000 A 
ATOM     28  F   UNL     1       7.255   3.245  12.334  0.00  0.00    +0.000 F 
ATOM     29  C   UNL     1       7.430   4.841  14.059  0.00  0.00    +0.000 A 
ATOM     30  C   UNL     1       6.820   5.581  15.075  0.00  0.00    +0.000 A 
ENDBRANCH  23  24
BRANCH  23  31
ATOM     31  C   UNL     1       5.967   6.911  17.395  0.00  0.00    +0.000 C 
BRANCH  31  32
ATOM     32  C   UNL     1       6.926   5.961  18.153  0.00  0.00    +0.000 C 
ATOM     33  C   UNL     1       8.201   6.716  18.558  0.00  0.00    +0.000 C 
ATOM     34  C   UNL     1       6.289   5.351  19.402  0.00  0.00    +0.000 C 
ENDBRANCH  31  32
ENDBRANCH  23  31
ENDBRANCH   7  23
TORSDOF 14
ENDMDL
MODEL 3
REMARK VINA RESULT:      -6.5      2.298      3.894
REMARK  Name = 
REMARK  18 active torsions:
REMARK  status: ('A' for Active; 'I' for Inactive)
REMARK    1  A    between atoms: C_1  and  C_2
REMARK    2  A    between atoms: C_4  and  C_5
REMARK    3  A    between atoms: C_6  and  O_7
REMARK    4  A    between atoms: O_7  and  C_8
REMARK    5  A    between atoms: C_8  and  C_9
REMARK    6  A    between atoms: C_9  and  O_10
REMARK    7  A    between atoms: C_9  and  C_11
REMARK    8  A    between atoms: C_11  and  C_12
REMARK    9  A    between atoms: C_12  and  O_13
REMARK   10  A    between atoms: C_12  and  C_14
REMARK   11  A    between atoms: C_14  and  C_15
REMARK   12  A    between atoms: C_15  and  O_17
REMARK   13  A    between atoms: C_18  and  C_19
REMARK   14  A    between atoms: C_19  and  C_20
REMARK   15  A    between atoms: C_19  and  C_24
REMARK   16  A    between atoms: C_20  and  C_21
REMARK   17  A    between atoms: C_21  and  C_22
REMARK   18  A    between atoms: C_21  and  C_23
REMARK                            x       y       z     vdW  Elec       q    Type
REMARK                         _______ _______ _______ _____ _____    ______ ____
ROOT
ATOM      1  C   UNL     1       2.974   1.631  18.094  0.00  0.00    +0.000 C 
ATOM      2  C   UNL     1       3.170   3.118  18.121  0.00  0.00    +0.000 A 
ATOM      3  C   UNL     1       2.431   3.933  18.974  0.00  0.00    +0.000 A 
ATOM      4  C   UNL     1       2.614   5.330  18.971  0.00  0.00    +0.000 A 
ATOM      5  C   UNL     1       1.889   6.141  20.015  0.00  0.00    +0.000 C 
ATOM      6  C   UNL     1       3.524   5.942  18.076  0.00  0.00    +0.000 A 
ATOM      7  C   UNL     1       4.364   5.118  17.296  0.00  0.00    +0.000 A 
ATOM      8  C   UNL     1       4.136   3.715  17.310  0.00  0.00    +0.000 A 
ENDROOT
BRANCH   6   9
ATOM      9  O   UNL     1       3.560   7.315  18.157  0.00  0.00    +0.000 OA
BRANCH   9  10
ATOM     10  C   UNL     1       2.496   8.075  17.559  0.00  0.00    +0.000 C 
BRANCH  10  11
ATOM     11  C   UNL     1       2.318   9.461  18.241  0.00  0.00    +0.000 C 
BRANCH  11  12
ATOM     12  O   UNL     1       2.231  10.478  17.234  0.00  0.00    +0.000 OA
ATOM     13  H   UNL     1       3.141  10.617  16.899  0.00  0.00    +0.000 HD
ENDBRANCH  11  12
BRANCH  11  14
ATOM     14  C   UNL     1       1.019   9.495  19.083  0.00  0.00    +0.000 C 
BRANCH  14  15
ATOM     15  C   UNL     1       0.351  10.885  19.173  0.00  0.00    +0.000 C 
BRANCH  15  16
ATOM     16  O   UNL     1      -1.073  10.744  19.056  0.00  0.00    +0.000 OA
ATOM     17  H   UNL     1      -1.275   9.838  18.759  0.00  0.00    +0.000 HD
ENDBRANCH  15  16
BRANCH  15  18
ATOM     18  C   UNL     1       0.654  11.613  20.491  0.00  0.00    +0.000 C 
BRANCH  18  19
ATOM     19  C   UNL     1      -0.032  10.975  21.668  0.00  0.00    +0.000 C 
ATOM     20  O   UNL     1      -1.226  11.054  21.905  0.00  0.00    +0.000 OA
BRANCH  19  21
ATOM     21  O   UNL     1       0.811  10.254  22.452  0.00  0.00    +0.000 OA
ATOM     22  H   UNL     1       1.053  10.682  23.295  0.00  0.00    +0.000 HD
ENDBRANCH  19  21
ENDBRANCH  18  19
ENDBRANCH  15  18
ENDBRANCH  14  15
ENDBRANCH  11  14
ENDBRANCH  10  11
ENDBRANCH   9  10
ENDBRANCH   6   9
BRANCH   7  23
ATOM     23  C   UNL     1       5.594   5.609  16.524  0.00  0.00    +0.000 C 
BRANCH  23  24
ATOM     24  C   UNL     1       5.804   4.943  15.144  0.00  0.00    +0.000 A 
ATOM     25  C   UNL     1       4.801   4.214  14.475  0.00  0.00    +0.000 A 
ATOM     26  C   UNL     1       5.055   3.586  13.252  0.00  0.00    +0.000 A 
ATOM     27  C   UNL     1       6.310   3.693  12.671  0.00  0.00    +0.000 A 
ATOM     28  F   UNL     1       6.556   3.079  11.506  0.00  0.00    +0.000 F 
ATOM     29  C   UNL     1       7.309   4.434  13.280  0.00  0.00    +0.000 A 
ATOM     30  C   UNL     1       7.054   5.064  14.501  0.00  0.00    +0.000 A 
ENDBRANCH  23  24
BRANCH  23  31
ATOM     31  C   UNL     1       6.898   5.496  17.392  0.00  0.00    +0.000 C 
BRANCH  31  32
ATOM     32  C   UNL     1       7.226   6.694  18.314  0.00  0.00    +0.000 C 
ATOM     33  C   UNL     1       8.349   6.314  19.291  0.00  0.00    +0.000 C 
ATOM     34  C   UNL     1       7.643   7.943  17.535  0.00  0.00    +0.000 C 
ENDBRANCH  31  32
ENDBRANCH  23  31
ENDBRANCH   7  23
TORSDOF 14
ENDMDL
MODEL 4
REMARK VINA RESULT:      -6.5      1.886      3.256
REMARK  Name = 
REMARK  18 active torsions:
REMARK  status: ('A' for Active; 'I' for Inactive)
REMARK    1  A    between atoms: C_1  and  C_2
REMARK    2  A    between atoms: C_4  and  C_5
REMARK    3  A    between atoms: C_6  and  O_7
REMARK    4  A    between atoms: O_7  and  C_8
REMARK    5  A    between atoms: C_8  and  C_9
REMARK    6  A    between atoms: C_9  and  O_10
REMARK    7  A    between atoms: C_9  and  C_11
REMARK    8  A    between atoms: C_11  and  C_12
REMARK    9  A    between atoms: C_12  and  O_13
REMARK   10  A    between atoms: C_12  and  C_14
REMARK   11  A    between atoms: C_14  and  C_15
REMARK   12  A    between atoms: C_15  and  O_17
REMARK   13  A    between atoms: C_18  and  C_19
REMARK   14  A    between atoms: C_19  and  C_20
REMARK   15  A    between atoms: C_19  and  C_24
REMARK   16  A    between atoms: C_20  and  C_21
REMARK   17  A    between atoms: C_21  and  C_22
REMARK   18  A    between atoms: C_21  and  C_23
REMARK                            x       y       z     vdW  Elec       q    Type
REMARK                         _______ _______ _______ _____ _____    ______ ____
ROOT
ATOM      1  C   UNL     1       1.890   2.221  18.980  0.00  0.00    +0.000 C 
ATOM      2  C   UNL     1       2.115   3.702  19.063  0.00  0.00    +0.000 A 
ATOM      3  C   UNL     1       1.352   4.507  19.904  0.00  0.00    +0.000 A 
ATOM      4  C   UNL     1       1.563   5.899  19.954  0.00  0.00    +0.000 A 
ATOM      5  C   UNL     1       0.805   6.694  20.987  0.00  0.00    +0.000 C 
ATOM      6  C   UNL     1       2.528   6.518  19.123  0.00  0.00    +0.000 A 
ATOM      7  C   UNL     1       3.388   5.700  18.359  0.00  0.00    +0.000 A 
ATOM      8  C   UNL     1       3.131   4.302  18.319  0.00  0.00    +0.000 A 
ENDROOT
BRANCH   6   9
ATOM      9  O   UNL     1       2.587   7.887  19.249  0.00  0.00    +0.000 OA
BRANCH   9  10
ATOM     10  C   UNL     1       2.278   8.704  18.106  0.00  0.00    +0.000 C 
BRANCH  10  11
ATOM     11  C   UNL     1       1.261   9.828  18.456  0.00  0.00    +0.000 C 
BRANCH  11  12
ATOM     12  O   UNL     1       1.779  11.090  18.018  0.00  0.00    +0.000 OA
ATOM     13  H   UNL     1       1.036  11.563  17.588  0.00  0.00    +0.000 HD
ENDBRANCH  11  12
BRANCH  11  14
ATOM     14  C   UNL     1      -0.092   9.582  17.744  0.00  0.00    +0.000 C 
BRANCH  14  15
ATOM     15  C   UNL     1      -1.219  10.553  18.159  0.00  0.00    +0.000 C 
BRANCH  15  16
ATOM     16  O   UNL     1      -0.923  11.871  17.672  0.00  0.00    +0.000 OA
ATOM     17  H   UNL     1      -0.422  12.354  18.356  0.00  0.00    +0.000 HD
ENDBRANCH  15  16
BRANCH  15  18
ATOM     18  C   UNL     1      -2.596  10.142  17.619  0.00  0.00    +0.000 C 
BRANCH  18  19
ATOM     19  C   UNL     1      -3.687  11.080  18.055  0.00  0.00    +0.000 C 
ATOM     20  O   UNL     1      -3.565  11.940  18.913  0.00  0.00    +0.000 OA
BRANCH  19  21
ATOM     21  O   UNL     1      -4.847  10.908  17.370  0.00  0.00    +0.000 OA
ATOM     22  H   UNL     1      -4.841  10.168  16.734  0.00  0.00    +0.000 HD
ENDBRANCH  19  21
ENDBRANCH  18  19
ENDBRANCH  15  18
ENDBRANCH  14  15
ENDBRANCH  11  14
ENDBRANCH  10  11
ENDBRANCH   9  10
ENDBRANCH   6   9
BRANCH   7  23
ATOM     23  C   UNL     1       4.664   6.187  17.663  0.00  0.00    +0.000 C 
BRANCH  23  24
ATOM     24  C   UNL     1       5.109   5.336  16.451  0.00  0.00    +0.000 A 
ATOM     25  C   UNL     1       5.343   3.948  16.523  0.00  0.00    +0.000 A 
ATOM     26  C   UNL     1       5.794   3.230  15.410  0.00  0.00    +0.000 A 
ATOM     27  C   UNL     1       5.999   3.886  14.206  0.00  0.00    +0.000 A 
ATOM     28  F   UNL     1       6.443   3.200  13.145  0.00  0.00    +0.000 F 
ATOM     29  C   UNL     1       5.741   5.242  14.086  0.00  0.00    +0.000 A 
ATOM     30  C   UNL     1       5.287   5.958  15.197  0.00  0.00    +0.000 A 
ENDBRANCH  23  24
BRANCH  23  31
ATOM     31  C   UNL     1       5.847   6.349  18.683  0.00  0.00    +0.000 C 
BRANCH  31  32
ATOM     32  C   UNL     1       7.280   6.260  18.106  0.00  0.00    +0.000 C 
ATOM     33  C   UNL     1       7.776   7.660  17.712  0.00  0.00    +0.000 C 
ATOM     34  C   UNL     1       8.274   5.636  19.087  0.00  0.00    +0.000 C 
ENDBRANCH  31  32
ENDBRANCH  23  31
ENDBRANCH   7  23
TORSDOF 14
ENDMDL
MODEL 5
REMARK VINA RESULT:      -6.5      1.973      3.384
REMARK  Name = 
REMARK  18 active torsions:
REMARK  status: ('A' for Active; 'I' for Inactive)
REMARK    1  A    between atoms: C_1  and  C_2
REMARK    2  A    between atoms: C_4  and  C_5
REMARK    3  A    between atoms: C_6  and  O_7
REMARK    4  A    between atoms: O_7  and  C_8
REMARK    5  A    between atoms: C_8  and  C_9
REMARK    6  A    between atoms: C_9  and  O_10
REMARK    7  A    between atoms: C_9  and  C_11
REMARK    8  A    between atoms: C_11  and  C_12
REMARK    9  A    between atoms: C_12  and  O_13
REMARK   10  A    between atoms: C_12  and  C_14
REMARK   11  A    between atoms: C_14  and  C_15
REMARK   12  A    between atoms: C_15  and  O_17
REMARK   13  A    between atoms: C_18  and  C_19
REMARK   14  A    between atoms: C_19  and  C_20
REMARK   15  A    between atoms: C_19  and  C_24
REMARK   16  A    between atoms: C_20  and  C_21
REMARK   17  A    between atoms: C_21  and  C_22
REMARK   18  A    between atoms: C_21  and  C_23
REMARK                            x       y       z     vdW  Elec       q    Type
REMARK                         _______ _______ _______ _____ _____    ______ ____
ROOT
ATOM      1  C   UNL     1       3.028   1.772  17.612  0.00  0.00    +0.000 C 
ATOM      2  C   UNL     1       3.159   3.243  17.874  0.00  0.00    +0.000 A 
ATOM      3  C   UNL     1       2.510   3.851  18.945  0.00  0.00    +0.000 A 
ATOM      4  C   UNL     1       2.627   5.238  19.164  0.00  0.00    +0.000 A 
ATOM      5  C   UNL     1       2.020   5.810  20.420  0.00  0.00    +0.000 C 
ATOM      6  C   UNL     1       3.373   6.053  18.279  0.00  0.00    +0.000 A 
ATOM      7  C   UNL     1       4.131   5.431  17.263  0.00  0.00    +0.000 A 
ATOM      8  C   UNL     1       3.972   4.033  17.061  0.00  0.00    +0.000 A 
ENDROOT
BRANCH   6   9
ATOM      9  O   UNL     1       3.357   7.392  18.595  0.00  0.00    +0.000 OA
BRANCH   9  10
ATOM     10  C   UNL     1       2.546   8.282  17.807  0.00  0.00    +0.000 C 
BRANCH  10  11
ATOM     11  C   UNL     1       1.237   8.681  18.547  0.00  0.00    +0.000 C 
BRANCH  11  12
ATOM     12  O   UNL     1       1.540   8.999  19.910  0.00  0.00    +0.000 OA
ATOM     13  H   UNL     1       0.726   9.388  20.294  0.00  0.00    +0.000 HD
ENDBRANCH  11  12
BRANCH  11  14
ATOM     14  C   UNL     1       0.592   9.925  17.886  0.00  0.00    +0.000 C 
BRANCH  14  15
ATOM     15  C   UNL     1      -0.093  10.891  18.877  0.00  0.00    +0.000 C 
BRANCH  15  16
ATOM     16  O   UNL     1       0.894  11.735  19.488  0.00  0.00    +0.000 OA
ATOM     17  H   UNL     1       0.695  11.815  20.439  0.00  0.00    +0.000 HD
ENDBRANCH  15  16
BRANCH  15  18
ATOM     18  C   UNL     1      -1.144  11.790  18.209  0.00  0.00    +0.000 C 
BRANCH  18  19
ATOM     19  C   UNL     1      -2.126  11.008  17.382  0.00  0.00    +0.000 C 
ATOM     20  O   UNL     1      -2.751  10.037  17.776  0.00  0.00    +0.000 OA
BRANCH  19  21
ATOM     21  O   UNL     1      -2.289  11.508  16.130  0.00  0.00    +0.000 OA
ATOM     22  H   UNL     1      -3.218  11.641  15.860  0.00  0.00    +0.000 HD
ENDBRANCH  19  21
ENDBRANCH  18  19
ENDBRANCH  15  18
ENDBRANCH  14  15
ENDBRANCH  11  14
ENDBRANCH  10  11
ENDBRANCH   9  10
ENDBRANCH   6   9
BRANCH   7  23
ATOM     23  C   UNL     1       5.217   6.129  16.435  0.00  0.00    +0.000 C 
BRANCH  23  24
ATOM     24  C   UNL     1       5.660   5.362  15.167  0.00  0.00    +0.000 A 
ATOM     25  C   UNL     1       4.838   4.437  14.495  0.00  0.00    +0.000 A 
ATOM     26  C   UNL     1       5.303   3.729  13.382  0.00  0.00    +0.000 A 
ATOM     27  C   UNL     1       6.589   3.951  12.914  0.00  0.00    +0.000 A 
ATOM     28  F   UNL     1       7.038   3.263  11.856  0.00  0.00    +0.000 F 
ATOM     29  C   UNL     1       7.413   4.883  13.525  0.00  0.00    +0.000 A 
ATOM     30  C   UNL     1       6.946   5.592  14.635  0.00  0.00    +0.000 A 
ENDBRANCH  23  24
BRANCH  23  31
ATOM     31  C   UNL     1       6.463   6.498  17.317  0.00  0.00    +0.000 C 
BRANCH  31  32
ATOM     32  C   UNL     1       6.942   5.427  18.326  0.00  0.00    +0.000 C 
ATOM     33  C   UNL     1       7.750   4.342  17.596  0.00  0.00    +0.000 C 
ATOM     34  C   UNL     1       7.796   6.014  19.451  0.00  0.00    +0.000 C 
ENDBRANCH  31  32
ENDBRANCH  23  31
ENDBRANCH   7  23
TORSDOF 14
ENDMDL
MODEL 6
REMARK VINA RESULT:      -6.4      2.495      4.014
REMARK  Name = 
REMARK  18 active torsions:
REMARK  status: ('A' for Active; 'I' for Inactive)
REMARK    1  A    between atoms: C_1  and  C_2
REMARK    2  A    between atoms: C_4  and  C_5
REMARK    3  A    between atoms: C_6  and  O_7
REMARK    4  A    between atoms: O_7  and  C_8
REMARK    5  A    between atoms: C_8  and  C_9
REMARK    6  A    between atoms: C_9  and  O_10
REMARK    7  A    between atoms: C_9  and  C_11
REMARK    8  A    between atoms: C_11  and  C_12
REMARK    9  A    between atoms: C_12  and  O_13
REMARK   10  A    between atoms: C_12  and  C_14
REMARK   11  A    between atoms: C_14  and  C_15
REMARK   12  A    between atoms: C_15  and  O_17
REMARK   13  A    between atoms: C_18  and  C_19
REMARK   14  A    between atoms: C_19  and  C_20
REMARK   15  A    between atoms: C_19  and  C_24
REMARK   16  A    between atoms: C_20  and  C_21
REMARK   17  A    between atoms: C_21  and  C_22
REMARK   18  A    between atoms: C_21  and  C_23
REMARK                            x       y       z     vdW  Elec       q    Type
REMARK                         _______ _______ _______ _____ _____    ______ ____
ROOT
ATOM      1  C   UNL     1       3.661   0.976  18.532  0.00  0.00    +0.000 C 
ATOM      2  C   UNL     1       3.772   2.472  18.588  0.00  0.00    +0.000 A 
ATOM      3  C   UNL     1       2.994   3.225  19.463  0.00  0.00    +0.000 A 
ATOM      4  C   UNL     1       3.096   4.630  19.488  0.00  0.00    +0.000 A 
ATOM      5  C   UNL     1       2.335   5.377  20.554  0.00  0.00    +0.000 C 
ATOM      6  C   UNL     1       3.961   5.312  18.597  0.00  0.00    +0.000 A 
ATOM      7  C   UNL     1       4.839   4.554  17.794  0.00  0.00    +0.000 A 
ATOM      8  C   UNL     1       4.694   3.140  17.782  0.00  0.00    +0.000 A 
ENDROOT
BRANCH   6   9
ATOM      9  O   UNL     1       3.917   6.683  18.707  0.00  0.00    +0.000 OA
BRANCH   9  10
ATOM     10  C   UNL     1       3.295   7.445  17.657  0.00  0.00    +0.000 C 
BRANCH  10  11
ATOM     11  C   UNL     1       2.559   8.698  18.209  0.00  0.00    +0.000 C 
BRANCH  11  12
ATOM     12  O   UNL     1       1.902   9.376  17.131  0.00  0.00    +0.000 OA
ATOM     13  H   UNL     1       0.973   9.062  17.128  0.00  0.00    +0.000 HD
ENDBRANCH  11  12
BRANCH  11  14
ATOM     14  C   UNL     1       1.490   8.291  19.253  0.00  0.00    +0.000 C 
BRANCH  14  15
ATOM     15  C   UNL     1       1.186   9.372  20.312  0.00  0.00    +0.000 C 
BRANCH  15  16
ATOM     16  O   UNL     1       0.659  10.543  19.669  0.00  0.00    +0.000 OA
ATOM     17  H   UNL     1      -0.093  10.877  20.191  0.00  0.00    +0.000 HD
ENDBRANCH  15  16
BRANCH  15  18
ATOM     18  C   UNL     1       0.171   8.910  21.369  0.00  0.00    +0.000 C 
BRANCH  18  19
ATOM     19  C   UNL     1      -0.130   9.980  22.381  0.00  0.00    +0.000 C 
ATOM     20  O   UNL     1       0.270  11.131  22.318  0.00  0.00    +0.000 OA
BRANCH  19  21
ATOM     21  O   UNL     1      -0.938   9.553  23.386  0.00  0.00    +0.000 OA
ATOM     22  H   UNL     1      -1.323   8.666  23.253  0.00  0.00    +0.000 HD
ENDBRANCH  19  21
ENDBRANCH  18  19
ENDBRANCH  15  18
ENDBRANCH  14  15
ENDBRANCH  11  14
ENDBRANCH  10  11
ENDBRANCH   9  10
ENDBRANCH   6   9
BRANCH   7  23
ATOM     23  C   UNL     1       6.032   5.131  17.022  0.00  0.00    +0.000 C 
BRANCH  23  24
ATOM     24  C   UNL     1       6.114   4.703  15.538  0.00  0.00    +0.000 A 
ATOM     25  C   UNL     1       7.268   4.866  14.748  0.00  0.00    +0.000 A 
ATOM     26  C   UNL     1       7.277   4.509  13.395  0.00  0.00    +0.000 A 
ATOM     27  C   UNL     1       6.138   3.969  12.819  0.00  0.00    +0.000 A 
ATOM     28  F   UNL     1       6.142   3.641  11.520  0.00  0.00    +0.000 F 
ATOM     29  C   UNL     1       4.996   3.757  13.575  0.00  0.00    +0.000 A 
ATOM     30  C   UNL     1       4.989   4.110  14.927  0.00  0.00    +0.000 A 
ENDBRANCH  23  24
BRANCH  23  31
ATOM     31  C   UNL     1       7.388   4.832  17.755  0.00  0.00    +0.000 C 
BRANCH  31  32
ATOM     32  C   UNL     1       8.033   6.006  18.531  0.00  0.00    +0.000 C 
ATOM     33  C   UNL     1       7.538   7.345  17.964  0.00  0.00    +0.000 C 
ATOM     34  C   UNL     1       7.735   5.957  20.031  0.00  0.00    +0.000 C 
ENDBRANCH  31  32
ENDBRANCH  23  31
ENDBRANCH   7  23
TORSDOF 14
ENDMDL
MODEL 7
REMARK VINA RESULT:      -6.4      2.086      3.610
REMARK  Name = 
REMARK  18 active torsions:
REMARK  status: ('A' for Active; 'I' for Inactive)
REMARK    1  A    between atoms: C_1  and  C_2
REMARK    2  A    between atoms: C_4  and  C_5
REMARK    3  A    between atoms: C_6  and  O_7
REMARK    4  A    between atoms: O_7  and  C_8
REMARK    5  A    between atoms: C_8  and  C_9
REMARK    6  A    between atoms: C_9  and  O_10
REMARK    7  A    between atoms: C_9  and  C_11
REMARK    8  A    between atoms: C_11  and  C_12
REMARK    9  A    between atoms: C_12  and  O_13
REMARK   10  A    between atoms: C_12  and  C_14
REMARK   11  A    between atoms: C_14  and  C_15
REMARK   12  A    between atoms: C_15  and  O_17
REMARK   13  A    between atoms: C_18  and  C_19
REMARK   14  A    between atoms: C_19  and  C_20
REMARK   15  A    between atoms: C_19  and  C_24
REMARK   16  A    between atoms: C_20  and  C_21
REMARK   17  A    between atoms: C_21  and  C_22
REMARK   18  A    between atoms: C_21  and  C_23
REMARK                            x       y       z     vdW  Elec       q    Type
REMARK                         _______ _______ _______ _____ _____    ______ ____
ROOT
ATOM      1  C   UNL     1       1.945   2.197  20.008  0.00  0.00    +0.000 C 
ATOM      2  C   UNL     1       2.237   3.658  19.823  0.00  0.00    +0.000 A 
ATOM      3  C   UNL     1       1.402   4.638  20.353  0.00  0.00    +0.000 A 
ATOM      4  C   UNL     1       1.680   6.005  20.152  0.00  0.00    +0.000 A 
ATOM      5  C   UNL     1       0.821   7.015  20.869  0.00  0.00    +0.000 C 
ATOM      6  C   UNL     1       2.791   6.413  19.374  0.00  0.00    +0.000 A 
ATOM      7  C   UNL     1       3.708   5.434  18.937  0.00  0.00    +0.000 A 
ATOM      8  C   UNL     1       3.384   4.065  19.142  0.00  0.00    +0.000 A 
ENDROOT
BRANCH   6   9
ATOM      9  O   UNL     1       2.906   7.777  19.228  0.00  0.00    +0.000 OA
BRANCH   9  10
ATOM     10  C   UNL     1       2.478   8.382  17.996  0.00  0.00    +0.000 C 
BRANCH  10  11
ATOM     11  C   UNL     1       1.701   9.707  18.240  0.00  0.00    +0.000 C 
BRANCH  11  12
ATOM     12  O   UNL     1       2.219  10.727  17.378  0.00  0.00    +0.000 OA
ATOM     13  H   UNL     1       3.020  10.354  16.954  0.00  0.00    +0.000 HD
ENDBRANCH  11  12
BRANCH  11  14
ATOM     14  C   UNL     1       0.194   9.524  17.929  0.00  0.00    +0.000 C 
BRANCH  14  15
ATOM     15  C   UNL     1      -0.736  10.512  18.667  0.00  0.00    +0.000 C 
BRANCH  15  16
ATOM     16  O   UNL     1      -2.105  10.202  18.366  0.00  0.00    +0.000 OA
ATOM     17  H   UNL     1      -2.152   9.292  18.018  0.00  0.00    +0.000 HD
ENDBRANCH  15  16
BRANCH  15  18
ATOM     18  C   UNL     1      -0.561  10.475  20.193  0.00  0.00    +0.000 C 
BRANCH  18  19
ATOM     19  C   UNL     1      -0.056  11.779  20.744  0.00  0.00    +0.000 C 
ATOM     20  O   UNL     1       0.332  11.948  21.889  0.00  0.00    +0.000 OA
BRANCH  19  21
ATOM     21  O   UNL     1      -0.035  12.777  19.823  0.00  0.00    +0.000 OA
ATOM     22  H   UNL     1      -0.809  13.370  19.845  0.00  0.00    +0.000 HD
ENDBRANCH  19  21
ENDBRANCH  18  19
ENDBRANCH  15  18
ENDBRANCH  14  15
ENDBRANCH  11  14
ENDBRANCH  10  11
ENDBRANCH   9  10
ENDBRANCH   6   9
BRANCH   7  23
ATOM     23  C   UNL     1       5.099   5.736  18.366  0.00  0.00    +0.000 C 
BRANCH  23  24
ATOM     24  C   UNL     1       5.314   5.279  16.904  0.00  0.00    +0.000 A 
ATOM     25  C   UNL     1       5.131   6.126  15.793  0.00  0.00    +0.000 A 
ATOM     26  C   UNL     1       5.288   5.651  14.487  0.00  0.00    +0.000 A 
ATOM     27  C   UNL     1       5.647   4.329  14.274  0.00  0.00    +0.000 A 
ATOM     28  F   UNL     1       5.784   3.872  13.022  0.00  0.00    +0.000 F 
ATOM     29  C   UNL     1       5.874   3.477  15.343  0.00  0.00    +0.000 A 
ATOM     30  C   UNL     1       5.721   3.953  16.648  0.00  0.00    +0.000 A 
ENDBRANCH  23  24
BRANCH  23  31
ATOM     31  C   UNL     1       6.234   5.168  19.291  0.00  0.00    +0.000 C 
BRANCH  31  32
ATOM     32  C   UNL     1       7.468   6.075  19.516  0.00  0.00    +0.000 C 
ATOM     33  C   UNL     1       8.661   5.231  19.988  0.00  0.00    +0.000 C 
ATOM     34  C   UNL     1       7.869   6.849  18.259  0.00  0.00    +0.000 C 
ENDBRANCH  31  32
ENDBRANCH  23  31
ENDBRANCH   7  23
TORSDOF 14
ENDMDL
MODEL 8
REMARK VINA RESULT:      -6.2      6.393      9.178
REMARK  Name = 
REMARK  18 active torsions:
REMARK  status: ('A' for Active; 'I' for Inactive)
REMARK    1  A    between atoms: C_1  and  C_2
REMARK    2  A    between atoms: C_4  and  C_5
REMARK    3  A    between atoms: C_6  and  O_7
REMARK    4  A    between atoms: O_7  and  C_8
REMARK    5  A    between atoms: C_8  and  C_9
REMARK    6  A    between atoms: C_9  and  O_10
REMARK    7  A    between atoms: C_9  and  C_11
REMARK    8  A    between atoms: C_11  and  C_12
REMARK    9  A    between atoms: C_12  and  O_13
REMARK   10  A    between atoms: C_12  and  C_14
REMARK   11  A    between atoms: C_14  and  C_15
REMARK   12  A    between atoms: C_15  and  O_17
REMARK   13  A    between atoms: C_18  and  C_19
REMARK   14  A    between atoms: C_19  and  C_20
REMARK   15  A    between atoms: C_19  and  C_24
REMARK   16  A    between atoms: C_20  and  C_21
REMARK   17  A    between atoms: C_21  and  C_22
REMARK   18  A    between atoms: C_21  and  C_23
REMARK                            x       y       z     vdW  Elec       q    Type
REMARK                         _______ _______ _______ _____ _____    ______ ____
ROOT
ATOM      1  C   UNL     1      -2.996  10.131  15.382  0.00  0.00    +0.000 C 
ATOM      2  C   UNL     1      -3.133  10.796  16.720  0.00  0.00    +0.000 A 
ATOM      3  C   UNL     1      -4.369  11.224  17.197  0.00  0.00    +0.000 A 
ATOM      4  C   UNL     1      -4.475  11.865  18.446  0.00  0.00    +0.000 A 
ATOM      5  C   UNL     1      -5.855  12.175  18.968  0.00  0.00    +0.000 C 
ATOM      6  C   UNL     1      -3.324  12.125  19.230  0.00  0.00    +0.000 A 
ATOM      7  C   UNL     1      -2.087  11.589  18.814  0.00  0.00    +0.000 A 
ATOM      8  C   UNL     1      -2.015  10.966  17.539  0.00  0.00    +0.000 A 
ENDROOT
BRANCH   6   9
ATOM      9  O   UNL     1      -3.580  12.799  20.402  0.00  0.00    +0.000 OA
BRANCH   9  10
ATOM     10  C   UNL     1      -2.726  13.895  20.774  0.00  0.00    +0.000 C 
BRANCH  10  11
ATOM     11  C   UNL     1      -3.515  15.230  20.894  0.00  0.00    +0.000 C 
BRANCH  11  12
ATOM     12  O   UNL     1      -4.694  15.159  20.083  0.00  0.00    +0.000 OA
ATOM     13  H   UNL     1      -4.941  16.083  19.867  0.00  0.00    +0.000 HD
ENDBRANCH  11  12
BRANCH  11  14
ATOM     14  C   UNL     1      -3.945  15.484  22.360  0.00  0.00    +0.000 C 
BRANCH  14  15
ATOM     15  C   UNL     1      -3.175  14.648  23.406  0.00  0.00    +0.000 C 
BRANCH  15  16
ATOM     16  O   UNL     1      -2.291  15.501  24.148  0.00  0.00    +0.000 OA
ATOM     17  H   UNL     1      -1.458  15.600  23.651  0.00  0.00    +0.000 HD
ENDBRANCH  15  16
BRANCH  15  18
ATOM     18  C   UNL     1      -4.100  13.934  24.402  0.00  0.00    +0.000 C 
BRANCH  18  19
ATOM     19  C   UNL     1      -4.021  12.437  24.286  0.00  0.00    +0.000 C 
ATOM     20  O   UNL     1      -3.214  11.833  23.598  0.00  0.00    +0.000 OA
BRANCH  19  21
ATOM     21  O   UNL     1      -4.930  11.791  25.062  0.00  0.00    +0.000 OA
ATOM     22  H   UNL     1      -5.856  12.069  24.925  0.00  0.00    +0.000 HD
ENDBRANCH  19  21
ENDBRANCH  18  19
ENDBRANCH  15  18
ENDBRANCH  14  15
ENDBRANCH  11  14
ENDBRANCH  10  11
ENDBRANCH   9  10
ENDBRANCH   6   9
BRANCH   7  23
ATOM     23  C   UNL     1      -0.831  11.514  19.691  0.00  0.00    +0.000 C 
BRANCH  23  24
ATOM     24  C   UNL     1       0.397  12.270  19.132  0.00  0.00    +0.000 A 
ATOM     25  C   UNL     1       1.505  11.624  18.549  0.00  0.00    +0.000 A 
ATOM     26  C   UNL     1       2.616  12.349  18.104  0.00  0.00    +0.000 A 
ATOM     27  C   UNL     1       2.626  13.730  18.219  0.00  0.00    +0.000 A 
ATOM     28  F   UNL     1       3.696  14.422  17.806  0.00  0.00    +0.000 F 
ATOM     29  C   UNL     1       1.538  14.403  18.751  0.00  0.00    +0.000 A 
ATOM     30  C   UNL     1       0.427  13.679  19.192  0.00  0.00    +0.000 A 
ENDBRANCH  23  24
BRANCH  23  31
ATOM     31  C   UNL     1      -0.454  10.026  20.026  0.00  0.00    +0.000 C 
BRANCH  31  32
ATOM     32  C   UNL     1       0.385   9.792  21.304  0.00  0.00    +0.000 C 
ATOM     33  C   UNL     1      -0.534   9.744  22.534  0.00  0.00    +0.000 C 
ATOM     34  C   UNL     1       1.207   8.504  21.244  0.00  0.00    +0.000 C 
ENDBRANCH  31  32
ENDBRANCH  23  31
ENDBRANCH   7  23
TORSDOF 14
ENDMDL
MODEL 9
REMARK VINA RESULT:      -6.2      2.360      3.896
REMARK  Name = 
REMARK  18 active torsions:
REMARK  status: ('A' for Active; 'I' for Inactive)
REMARK    1  A    between atoms: C_1  and  C_2
REMARK    2  A    between atoms: C_4  and  C_5
REMARK    3  A    between atoms: C_6  and  O_7
REMARK    4  A    between atoms: O_7  and  C_8
REMARK    5  A    between atoms: C_8  and  C_9
REMARK    6  A    between atoms: C_9  and  O_10
REMARK    7  A    between atoms: C_9  and  C_11
REMARK    8  A    between atoms: C_11  and  C_12
REMARK    9  A    between atoms: C_12  and  O_13
REMARK   10  A    between atoms: C_12  and  C_14
REMARK   11  A    between atoms: C_14  and  C_15
REMARK   12  A    between atoms: C_15  and  O_17
REMARK   13  A    between atoms: C_18  and  C_19
REMARK   14  A    between atoms: C_19  and  C_20
REMARK   15  A    between atoms: C_19  and  C_24
REMARK   16  A    between atoms: C_20  and  C_21
REMARK   17  A    between atoms: C_21  and  C_22
REMARK   18  A    between atoms: C_21  and  C_23
REMARK                            x       y       z     vdW  Elec       q    Type
REMARK                         _______ _______ _______ _____ _____    ______ ____
ROOT
ATOM      1  C   UNL     1       3.490   1.583  18.037  0.00  0.00    +0.000 C 
ATOM      2  C   UNL     1       3.372   3.068  18.214  0.00  0.00    +0.000 A 
ATOM      3  C   UNL     1       2.667   3.619  19.280  0.00  0.00    +0.000 A 
ATOM      4  C   UNL     1       2.549   5.016  19.420  0.00  0.00    +0.000 A 
ATOM      5  C   UNL     1       1.897   5.550  20.670  0.00  0.00    +0.000 C 
ATOM      6  C   UNL     1       3.110   5.892  18.459  0.00  0.00    +0.000 A 
ATOM      7  C   UNL     1       3.928   5.349  17.444  0.00  0.00    +0.000 A 
ATOM      8  C   UNL     1       4.007   3.935  17.324  0.00  0.00    +0.000 A 
ENDROOT
BRANCH   6   9
ATOM      9  O   UNL     1       2.873   7.225  18.704  0.00  0.00    +0.000 OA
BRANCH   9  10
ATOM     10  C   UNL     1       2.142   7.991  17.731  0.00  0.00    +0.000 C 
BRANCH  10  11
ATOM     11  C   UNL     1       1.352   9.159  18.388  0.00  0.00    +0.000 C 
BRANCH  11  12
ATOM     12  O   UNL     1       1.223   8.914  19.793  0.00  0.00    +0.000 OA
ATOM     13  H   UNL     1       1.012   7.961  19.893  0.00  0.00    +0.000 HD
ENDBRANCH  11  12
BRANCH  11  14
ATOM     14  C   UNL     1       2.097  10.503  18.192  0.00  0.00    +0.000 C 
BRANCH  14  15
ATOM     15  C   UNL     1       1.259  11.754  18.533  0.00  0.00    +0.000 C 
BRANCH  15  16
ATOM     16  O   UNL     1      -0.102  11.548  18.125  0.00  0.00    +0.000 OA
ATOM     17  H   UNL     1      -0.177  11.739  17.172  0.00  0.00    +0.000 HD
ENDBRANCH  15  16
BRANCH  15  18
ATOM     18  C   UNL     1       1.264  12.091  20.031  0.00  0.00    +0.000 C 
BRANCH  18  19
ATOM     19  C   UNL     1       2.175  13.243  20.357  0.00  0.00    +0.000 C 
ATOM     20  O   UNL     1       2.985  13.730  19.585  0.00  0.00    +0.000 OA
BRANCH  19  21
ATOM     21  O   UNL     1       1.991  13.732  21.610  0.00  0.00    +0.000 OA
ATOM     22  H   UNL     1       1.527  14.590  21.651  0.00  0.00    +0.000 HD
ENDBRANCH  19  21
ENDBRANCH  18  19
ENDBRANCH  15  18
ENDBRANCH  14  15
ENDBRANCH  11  14
ENDBRANCH  10  11
ENDBRANCH   9  10
ENDBRANCH   6   9
BRANCH   7  23
ATOM     23  C   UNL     1       4.846   6.172  16.532  0.00  0.00    +0.000 C 
BRANCH  23  24
ATOM     24  C   UNL     1       5.507   5.373  15.385  0.00  0.00    +0.000 A 
ATOM     25  C   UNL     1       6.885   5.424  15.099  0.00  0.00    +0.000 A 
ATOM     26  C   UNL     1       7.428   4.722  14.017  0.00  0.00    +0.000 A 
ATOM     27  C   UNL     1       6.603   3.945  13.219  0.00  0.00    +0.000 A 
ATOM     28  F   UNL     1       7.121   3.284  12.175  0.00  0.00    +0.000 F 
ATOM     29  C   UNL     1       5.249   3.839  13.493  0.00  0.00    +0.000 A 
ATOM     30  C   UNL     1       4.708   4.538  14.575  0.00  0.00    +0.000 A 
ENDBRANCH  23  24
BRANCH  23  31
ATOM     31  C   UNL     1       5.934   6.945  17.360  0.00  0.00    +0.000 C 
BRANCH  31  32
ATOM     32  C   UNL     1       6.976   6.085  18.113  0.00  0.00    +0.000 C 
ATOM     33  C   UNL     1       8.175   6.953  18.524  0.00  0.00    +0.000 C 
ATOM     34  C   UNL     1       6.398   5.410  19.357  0.00  0.00    +0.000 C 
ENDBRANCH  31  32
ENDBRANCH  23  31
ENDBRANCH   7  23
TORSDOF 14
ENDMDL
