MODEL 1
REMARK VINA RESULT:      -8.1      0.000      0.000
REMARK  Name = 
REMARK  6 active torsions:
REMARK  status: ('A' for Active; 'I' for Inactive)
REMARK    1  A    between atoms: C_1  and  C_2
REMARK    2  A    between atoms: C_7  and  N_8
REMARK    3  A    between atoms: N_8  and  S_9
REMARK    4  A    between atoms: S_9  and  C_12
REMARK    5  A    between atoms: N_18  and  C_19
REMARK    6  A    between atoms: N_22  and  C_23
REMARK                            x       y       z     vdW  Elec       q    Type
REMARK                         _______ _______ _______ _____ _____    ______ ____
ROOT
ATOM      1  S   UNL     1       1.935   5.025  20.643  0.00  0.00    +0.000 S 
ATOM      2  O   UNL     1       2.329   4.180  21.748  0.00  0.00    +0.000 OA
ATOM      3  O   UNL     1       0.590   4.996  20.110  0.00  0.00    +0.000 OA
ENDROOT
BRANCH   1   4
ATOM      4  C   UNL     1       3.020   4.715  19.271  0.00  0.00    +0.000 A 
ATOM      5  C   UNL     1       2.522   4.152  18.074  0.00  0.00    +0.000 A 
ATOM      6  C   UNL     1       3.389   3.901  17.003  0.00  0.00    +0.000 A 
ATOM      7  C   UNL     1       4.722   4.223  17.175  0.00  0.00    +0.000 A 
ATOM      8  C   UNL     1       5.202   4.787  18.362  0.00  0.00    +0.000 A 
ATOM      9  C   UNL     1       4.371   5.055  19.425  0.00  0.00    +0.000 A 
ATOM     10  N   UNL     1       6.580   4.986  18.220  0.00  0.00    +0.000 N 
ATOM     11  C   UNL     1       7.477   5.529  19.196  0.00  0.00    +0.000 C 
ATOM     12  C   UNL     1       6.980   4.543  16.940  0.00  0.00    +0.000 A 
ATOM     13  O   UNL     1       8.110   4.560  16.485  0.00  0.00    +0.000 OA
ATOM     14  N   UNL     1       5.809   4.076  16.304  0.00  0.00    +0.000 N 
ATOM     15  C   UNL     1       5.750   3.529  14.980  0.00  0.00    +0.000 C 
ENDBRANCH   1   4
BRANCH   1  16
ATOM     16  N   UNL     1       2.267   6.649  20.981  0.00  0.00    +0.000 N 
ATOM     17  H   UNL     1       3.231   6.755  21.297  0.00  0.00    +0.000 HD
BRANCH  16  24
ATOM     18  C   UNL     1       0.425   8.724  21.919  0.00  0.00    +0.000 C 
ATOM     19  C   UNL     1       0.945   8.667  20.512  0.00  0.00    +0.000 A 
ATOM     20  C   UNL     1       0.575   9.673  19.605  0.00  0.00    +0.000 A 
ATOM     21  C   UNL     1       1.064   9.672  18.297  0.00  0.00    +0.000 A 
ATOM     22  C   UNL     1       1.930   8.667  17.880  0.00  0.00    +0.000 A 
ATOM     23  C   UNL     1       2.304   7.658  18.767  0.00  0.00    +0.000 A 
ATOM     24  C   UNL     1       1.809   7.650  20.075  0.00  0.00    +0.000 A 
ENDBRANCH  16  24
ENDBRANCH   1  16
TORSDOF 3
ENDMDL
MODEL 2
REMARK VINA RESULT:      -8.0      2.923      7.190
REMARK  Name = 
REMARK  6 active torsions:
REMARK  status: ('A' for Active; 'I' for Inactive)
REMARK    1  A    between atoms: C_1  and  C_2
REMARK    2  A    between atoms: C_7  and  N_8
REMARK    3  A    between atoms: N_8  and  S_9
REMARK    4  A    between atoms: S_9  and  C_12
REMARK    5  A    between atoms: N_18  and  C_19
REMARK    6  A    between atoms: N_22  and  C_23
REMARK                            x       y       z     vdW  Elec       q    Type
REMARK                         _______ _______ _______ _____ _____    ______ ____
ROOT
ATOM      1  S   UNL     1       6.982   5.468  16.314  0.00  0.00    +0.000 S 
ATOM      2  O   UNL     1       7.688   4.211  16.208  0.00  0.00    +0.000 OA
ATOM      3  O   UNL     1       7.640   6.669  16.782  0.00  0.00    +0.000 OA
ENDROOT
BRANCH   1   4
ATOM      4  C   UNL     1       5.562   5.241  17.357  0.00  0.00    +0.000 A 
ATOM      5  C   UNL     1       4.910   6.352  17.935  0.00  0.00    +0.000 A 
ATOM      6  C   UNL     1       3.798   6.160  18.766  0.00  0.00    +0.000 A 
ATOM      7  C   UNL     1       3.387   4.859  18.986  0.00  0.00    +0.000 A 
ATOM      8  C   UNL     1       4.036   3.767  18.402  0.00  0.00    +0.000 A 
ATOM      9  C   UNL     1       5.122   3.927  17.573  0.00  0.00    +0.000 A 
ATOM     10  N   UNL     1       3.387   2.601  18.823  0.00  0.00    +0.000 N 
ATOM     11  C   UNL     1       3.725   1.253  18.478  0.00  0.00    +0.000 C 
ATOM     12  C   UNL     1       2.321   2.953  19.682  0.00  0.00    +0.000 A 
ATOM     13  O   UNL     1       1.552   2.187  20.238  0.00  0.00    +0.000 OA
ATOM     14  N   UNL     1       2.336   4.362  19.767  0.00  0.00    +0.000 N 
ATOM     15  C   UNL     1       1.424   5.152  20.540  0.00  0.00    +0.000 C 
ENDBRANCH   1   4
BRANCH   1  16
ATOM     16  N   UNL     1       6.260   5.878  14.839  0.00  0.00    +0.000 N 
ATOM     17  H   UNL     1       6.520   6.826  14.569  0.00  0.00    +0.000 HD
BRANCH  16  24
ATOM     18  C   UNL     1       8.456   5.849  12.901  0.00  0.00    +0.000 C 
ATOM     19  C   UNL     1       7.315   4.874  12.859  0.00  0.00    +0.000 A 
ATOM     20  C   UNL     1       7.309   3.870  11.878  0.00  0.00    +0.000 A 
ATOM     21  C   UNL     1       6.282   2.926  11.826  0.00  0.00    +0.000 A 
ATOM     22  C   UNL     1       5.248   2.973  12.756  0.00  0.00    +0.000 A 
ATOM     23  C   UNL     1       5.237   3.967  13.734  0.00  0.00    +0.000 A 
ATOM     24  C   UNL     1       6.259   4.921  13.783  0.00  0.00    +0.000 A 
ENDBRANCH  16  24
ENDBRANCH   1  16
TORSDOF 3
ENDMDL
MODEL 3
REMARK VINA RESULT:      -7.8      2.764      4.006
REMARK  Name = 
REMARK  6 active torsions:
REMARK  status: ('A' for Active; 'I' for Inactive)
REMARK    1  A    between atoms: C_1  and  C_2
REMARK    2  A    between atoms: C_7  and  N_8
REMARK    3  A    between atoms: N_8  and  S_9
REMARK    4  A    between atoms: S_9  and  C_12
REMARK    5  A    between atoms: N_18  and  C_19
REMARK    6  A    between atoms: N_22  and  C_23
REMARK                            x       y       z     vdW  Elec       q    Type
REMARK                         _______ _______ _______ _____ _____    ______ ____
ROOT
ATOM      1  S   UNL     1       0.959   8.883  21.147  0.00  0.00    +0.000 S 
ATOM      2  O   UNL     1       1.796   9.214  22.277  0.00  0.00    +0.000 OA
ATOM      3  O   UNL     1      -0.422   8.484  21.317  0.00  0.00    +0.000 OA
ENDROOT
BRANCH   1   4
ATOM      4  C   UNL     1       1.740   7.584  20.219  0.00  0.00    +0.000 A 
ATOM      5  C   UNL     1       2.270   7.837  18.934  0.00  0.00    +0.000 A 
ATOM      6  C   UNL     1       2.873   6.803  18.207  0.00  0.00    +0.000 A 
ATOM      7  C   UNL     1       2.918   5.554  18.797  0.00  0.00    +0.000 A 
ATOM      8  C   UNL     1       2.397   5.317  20.073  0.00  0.00    +0.000 A 
ATOM      9  C   UNL     1       1.811   6.316  20.814  0.00  0.00    +0.000 A 
ATOM     10  N   UNL     1       2.593   3.965  20.376  0.00  0.00    +0.000 N 
ATOM     11  C   UNL     1       2.202   3.285  21.575  0.00  0.00    +0.000 C 
ATOM     12  C   UNL     1       3.237   3.337  19.286  0.00  0.00    +0.000 A 
ATOM     13  O   UNL     1       3.552   2.163  19.206  0.00  0.00    +0.000 OA
ATOM     14  N   UNL     1       3.435   4.343  18.316  0.00  0.00    +0.000 N 
ATOM     15  C   UNL     1       4.057   4.149  17.040  0.00  0.00    +0.000 C 
ENDBRANCH   1   4
BRANCH   1  16
ATOM     16  N   UNL     1       0.944  10.145  20.020  0.00  0.00    +0.000 N 
ATOM     17  H   UNL     1       1.717  10.043  19.363  0.00  0.00    +0.000 HD
BRANCH  16  24
ATOM     18  C   UNL     1      -0.696  12.174  21.351  0.00  0.00    +0.000 C 
ATOM     19  C   UNL     1      -1.087  11.528  20.053  0.00  0.00    +0.000 A 
ATOM     20  C   UNL     1      -2.268  11.938  19.414  0.00  0.00    +0.000 A 
ATOM     21  C   UNL     1      -2.649  11.384  18.191  0.00  0.00    +0.000 A 
ATOM     22  C   UNL     1      -1.853  10.414  17.589  0.00  0.00    +0.000 A 
ATOM     23  C   UNL     1      -0.679   9.994  18.213  0.00  0.00    +0.000 A 
ATOM     24  C   UNL     1      -0.299  10.539  19.444  0.00  0.00    +0.000 A 
ENDBRANCH  16  24
ENDBRANCH   1  16
TORSDOF 3
ENDMDL
MODEL 4
REMARK VINA RESULT:      -7.7      3.207      4.508
REMARK  Name = 
REMARK  6 active torsions:
REMARK  status: ('A' for Active; 'I' for Inactive)
REMARK    1  A    between atoms: C_1  and  C_2
REMARK    2  A    between atoms: C_7  and  N_8
REMARK    3  A    between atoms: N_8  and  S_9
REMARK    4  A    between atoms: S_9  and  C_12
REMARK    5  A    between atoms: N_18  and  C_19
REMARK    6  A    between atoms: N_22  and  C_23
REMARK                            x       y       z     vdW  Elec       q    Type
REMARK                         _______ _______ _______ _____ _____    ______ ____
ROOT
ATOM      1  S   UNL     1       0.514   9.822  20.564  0.00  0.00    +0.000 S 
ATOM      2  O   UNL     1       1.320  10.487  21.562  0.00  0.00    +0.000 OA
ATOM      3  O   UNL     1      -0.728   9.162  20.908  0.00  0.00    +0.000 OA
ENDROOT
BRANCH   1   4
ATOM      4  C   UNL     1       1.513   8.602  19.744  0.00  0.00    +0.000 A 
ATOM      5  C   UNL     1       2.138   8.895  18.511  0.00  0.00    +0.000 A 
ATOM      6  C   UNL     1       2.913   7.923  17.868  0.00  0.00    +0.000 A 
ATOM      7  C   UNL     1       3.030   6.692  18.486  0.00  0.00    +0.000 A 
ATOM      8  C   UNL     1       2.414   6.416  19.711  0.00  0.00    +0.000 A 
ATOM      9  C   UNL     1       1.657   7.356  20.370  0.00  0.00    +0.000 A 
ATOM     10  N   UNL     1       2.718   5.095  20.061  0.00  0.00    +0.000 N 
ATOM     11  C   UNL     1       2.284   4.392  21.230  0.00  0.00    +0.000 C 
ATOM     12  C   UNL     1       3.529   4.527  19.052  0.00  0.00    +0.000 A 
ATOM     13  O   UNL     1       3.970   3.392  19.028  0.00  0.00    +0.000 OA
ATOM     14  N   UNL     1       3.715   5.538  18.084  0.00  0.00    +0.000 N 
ATOM     15  C   UNL     1       4.476   5.396  16.878  0.00  0.00    +0.000 C 
ENDBRANCH   1   4
BRANCH   1  16
ATOM     16  N   UNL     1       0.146  10.873  19.290  0.00  0.00    +0.000 N 
ATOM     17  H   UNL     1       0.932  10.935  18.643  0.00  0.00    +0.000 HD
BRANCH  16  24
ATOM     18  C   UNL     1      -2.002  12.645  20.199  0.00  0.00    +0.000 C 
ATOM     19  C   UNL     1      -2.176  11.653  19.086  0.00  0.00    +0.000 A 
ATOM     20  C   UNL     1      -3.405  11.591  18.411  0.00  0.00    +0.000 A 
ATOM     21  C   UNL     1      -3.596  10.704  17.351  0.00  0.00    +0.000 A 
ATOM     22  C   UNL     1      -2.558   9.868  16.949  0.00  0.00    +0.000 A 
ATOM     23  C   UNL     1      -1.332   9.914  17.612  0.00  0.00    +0.000 A 
ATOM     24  C   UNL     1      -1.141  10.795  18.682  0.00  0.00    +0.000 A 
ENDBRANCH  16  24
ENDBRANCH   1  16
TORSDOF 3
ENDMDL
MODEL 5
REMARK VINA RESULT:      -7.7      3.490      7.131
REMARK  Name = 
REMARK  6 active torsions:
REMARK  status: ('A' for Active; 'I' for Inactive)
REMARK    1  A    between atoms: C_1  and  C_2
REMARK    2  A    between atoms: C_7  and  N_8
REMARK    3  A    between atoms: N_8  and  S_9
REMARK    4  A    between atoms: S_9  and  C_12
REMARK    5  A    between atoms: N_18  and  C_19
REMARK    6  A    between atoms: N_22  and  C_23
REMARK                            x       y       z     vdW  Elec       q    Type
REMARK                         _______ _______ _______ _____ _____    ______ ____
ROOT
ATOM      1  S   UNL     1       6.309   6.499  16.213  0.00  0.00    +0.000 S 
ATOM      2  O   UNL     1       7.071   7.502  16.922  0.00  0.00    +0.000 OA
ATOM      3  O   UNL     1       5.311   6.860  15.229  0.00  0.00    +0.000 OA
ENDROOT
BRANCH   1   4
ATOM      4  C   UNL     1       5.486   5.463  17.399  0.00  0.00    +0.000 A 
ATOM      5  C   UNL     1       6.208   4.865  18.455  0.00  0.00    +0.000 A 
ATOM      6  C   UNL     1       5.551   4.041  19.377  0.00  0.00    +0.000 A 
ATOM      7  C   UNL     1       4.194   3.846  19.201  0.00  0.00    +0.000 A 
ATOM      8  C   UNL     1       3.488   4.449  18.155  0.00  0.00    +0.000 A 
ATOM      9  C   UNL     1       4.105   5.273  17.243  0.00  0.00    +0.000 A 
ATOM     10  N   UNL     1       2.149   4.051  18.251  0.00  0.00    +0.000 N 
ATOM     11  C   UNL     1       1.076   4.421  17.378  0.00  0.00    +0.000 C 
ATOM     12  C   UNL     1       2.004   3.188  19.360  0.00  0.00    +0.000 A 
ATOM     13  O   UNL     1       0.976   2.649  19.732  0.00  0.00    +0.000 OA
ATOM     14  N   UNL     1       3.286   3.076  19.940  0.00  0.00    +0.000 N 
ATOM     15  C   UNL     1       3.604   2.291  21.096  0.00  0.00    +0.000 C 
ENDBRANCH   1   4
BRANCH   1  16
ATOM     16  N   UNL     1       7.337   5.393  15.449  0.00  0.00    +0.000 N 
ATOM     17  H   UNL     1       7.743   4.755  16.134  0.00  0.00    +0.000 HD
BRANCH  16  24
ATOM     18  C   UNL     1       8.783   5.972  12.969  0.00  0.00    +0.000 C 
ATOM     19  C   UNL     1       7.612   5.035  13.034  0.00  0.00    +0.000 A 
ATOM     20  C   UNL     1       7.207   4.365  11.868  0.00  0.00    +0.000 A 
ATOM     21  C   UNL     1       6.143   3.463  11.895  0.00  0.00    +0.000 A 
ATOM     22  C   UNL     1       5.470   3.217  13.087  0.00  0.00    +0.000 A 
ATOM     23  C   UNL     1       5.857   3.878  14.253  0.00  0.00    +0.000 A 
ATOM     24  C   UNL     1       6.916   4.790  14.228  0.00  0.00    +0.000 A 
ENDBRANCH  16  24
ENDBRANCH   1  16
TORSDOF 3
ENDMDL
MODEL 6
REMARK VINA RESULT:      -7.7      2.869      6.747
REMARK  Name = 
REMARK  6 active torsions:
REMARK  status: ('A' for Active; 'I' for Inactive)
REMARK    1  A    between atoms: C_1  and  C_2
REMARK    2  A    between atoms: C_7  and  N_8
REMARK    3  A    between atoms: N_8  and  S_9
REMARK    4  A    between atoms: S_9  and  C_12
REMARK    5  A    between atoms: N_18  and  C_19
REMARK    6  A    between atoms: N_22  and  C_23
REMARK                            x       y       z     vdW  Elec       q    Type
REMARK                         _______ _______ _______ _____ _____    ______ ____
ROOT
ATOM      1  S   UNL     1       7.107   5.604  17.062  0.00  0.00    +0.000 S 
ATOM      2  O   UNL     1       7.835   4.362  16.927  0.00  0.00    +0.000 OA
ATOM      3  O   UNL     1       7.715   6.778  17.650  0.00  0.00    +0.000 OA
ENDROOT
BRANCH   1   4
ATOM      4  C   UNL     1       5.622   5.298  17.987  0.00  0.00    +0.000 A 
ATOM      5  C   UNL     1       4.569   6.240  17.989  0.00  0.00    +0.000 A 
ATOM      6  C   UNL     1       3.407   5.994  18.731  0.00  0.00    +0.000 A 
ATOM      7  C   UNL     1       3.348   4.812  19.445  0.00  0.00    +0.000 A 
ATOM      8  C   UNL     1       4.393   3.883  19.430  0.00  0.00    +0.000 A 
ATOM      9  C   UNL     1       5.540   4.093  18.700  0.00  0.00    +0.000 A 
ATOM     10  N   UNL     1       4.030   2.808  20.250  0.00  0.00    +0.000 N 
ATOM     11  C   UNL     1       4.807   1.639  20.533  0.00  0.00    +0.000 C 
ATOM     12  C   UNL     1       2.749   3.057  20.793  0.00  0.00    +0.000 A 
ATOM     13  O   UNL     1       2.130   2.335  21.555  0.00  0.00    +0.000 OA
ATOM     14  N   UNL     1       2.341   4.306  20.277  0.00  0.00    +0.000 N 
ATOM     15  C   UNL     1       1.096   4.953  20.570  0.00  0.00    +0.000 C 
ENDBRANCH   1   4
BRANCH   1  16
ATOM     16  N   UNL     1       6.484   6.100  15.569  0.00  0.00    +0.000 N 
ATOM     17  H   UNL     1       6.715   7.078  15.396  0.00  0.00    +0.000 HD
BRANCH  16  24
ATOM     18  C   UNL     1       4.528   3.962  15.146  0.00  0.00    +0.000 C 
ATOM     19  C   UNL     1       5.674   4.219  14.211  0.00  0.00    +0.000 A 
ATOM     20  C   UNL     1       5.801   3.435  13.053  0.00  0.00    +0.000 A 
ATOM     21  C   UNL     1       6.834   3.665  12.144  0.00  0.00    +0.000 A 
ATOM     22  C   UNL     1       7.753   4.682  12.378  0.00  0.00    +0.000 A 
ATOM     23  C   UNL     1       7.643   5.467  13.526  0.00  0.00    +0.000 A 
ATOM     24  C   UNL     1       6.615   5.234  14.445  0.00  0.00    +0.000 A 
ENDBRANCH  16  24
ENDBRANCH   1  16
TORSDOF 3
ENDMDL
MODEL 7
REMARK VINA RESULT:      -7.6      2.569      6.983
REMARK  Name = 
REMARK  6 active torsions:
REMARK  status: ('A' for Active; 'I' for Inactive)
REMARK    1  A    between atoms: C_1  and  C_2
REMARK    2  A    between atoms: C_7  and  N_8
REMARK    3  A    between atoms: N_8  and  S_9
REMARK    4  A    between atoms: S_9  and  C_12
REMARK    5  A    between atoms: N_18  and  C_19
REMARK    6  A    between atoms: N_22  and  C_23
REMARK                            x       y       z     vdW  Elec       q    Type
REMARK                         _______ _______ _______ _____ _____    ______ ____
ROOT
ATOM      1  S   UNL     1       2.441   5.734  19.347  0.00  0.00    +0.000 S 
ATOM      2  O   UNL     1       1.805   5.118  18.205  0.00  0.00    +0.000 OA
ATOM      3  O   UNL     1       2.291   5.193  20.682  0.00  0.00    +0.000 OA
ENDROOT
BRANCH   1   4
ATOM      4  C   UNL     1       1.928   7.432  19.440  0.00  0.00    +0.000 A 
ATOM      5  C   UNL     1       2.034   8.278  18.314  0.00  0.00    +0.000 A 
ATOM      6  C   UNL     1       1.637   9.618  18.402  0.00  0.00    +0.000 A 
ATOM      7  C   UNL     1       1.152  10.058  19.618  0.00  0.00    +0.000 A 
ATOM      8  C   UNL     1       1.044   9.210  20.725  0.00  0.00    +0.000 A 
ATOM      9  C   UNL     1       1.414   7.887  20.663  0.00  0.00    +0.000 A 
ATOM     10  N   UNL     1       0.528   9.954  21.792  0.00  0.00    +0.000 N 
ATOM     11  C   UNL     1       0.267   9.488  23.121  0.00  0.00    +0.000 C 
ATOM     12  C   UNL     1       0.311  11.283  21.364  0.00  0.00    +0.000 A 
ATOM     13  O   UNL     1      -0.123  12.202  22.038  0.00  0.00    +0.000 OA
ATOM     14  N   UNL     1       0.701  11.326  20.008  0.00  0.00    +0.000 N 
ATOM     15  C   UNL     1       0.650  12.489  19.171  0.00  0.00    +0.000 C 
ENDBRANCH   1   4
BRANCH   1  16
ATOM     16  N   UNL     1       4.106   5.894  19.094  0.00  0.00    +0.000 N 
ATOM     17  H   UNL     1       4.623   5.542  19.900  0.00  0.00    +0.000 HD
BRANCH  16  24
ATOM     18  C   UNL     1       4.672   3.087  18.478  0.00  0.00    +0.000 C 
ATOM     19  C   UNL     1       4.901   4.202  17.498  0.00  0.00    +0.000 A 
ATOM     20  C   UNL     1       5.365   3.895  16.210  0.00  0.00    +0.000 A 
ATOM     21  C   UNL     1       5.560   4.901  15.261  0.00  0.00    +0.000 A 
ATOM     22  C   UNL     1       5.291   6.226  15.588  0.00  0.00    +0.000 A 
ATOM     23  C   UNL     1       4.833   6.548  16.866  0.00  0.00    +0.000 A 
ATOM     24  C   UNL     1       4.646   5.544  17.822  0.00  0.00    +0.000 A 
ENDBRANCH  16  24
ENDBRANCH   1  16
TORSDOF 3
ENDMDL
MODEL 8
REMARK VINA RESULT:      -7.6      2.857      4.335
REMARK  Name = 
REMARK  6 active torsions:
REMARK  status: ('A' for Active; 'I' for Inactive)
REMARK    1  A    between atoms: C_1  and  C_2
REMARK    2  A    between atoms: C_7  and  N_8
REMARK    3  A    between atoms: N_8  and  S_9
REMARK    4  A    between atoms: S_9  and  C_12
REMARK    5  A    between atoms: N_18  and  C_19
REMARK    6  A    between atoms: N_22  and  C_23
REMARK                            x       y       z     vdW  Elec       q    Type
REMARK                         _______ _______ _______ _____ _____    ______ ____
ROOT
ATOM      1  S   UNL     1       0.894   8.922  21.182  0.00  0.00    +0.000 S 
ATOM      2  O   UNL     1       1.745   9.296  22.289  0.00  0.00    +0.000 OA
ATOM      3  O   UNL     1      -0.467   8.475  21.389  0.00  0.00    +0.000 OA
ENDROOT
BRANCH   1   4
ATOM      4  C   UNL     1       1.699   7.642  20.249  0.00  0.00    +0.000 A 
ATOM      5  C   UNL     1       2.244   7.915  18.975  0.00  0.00    +0.000 A 
ATOM      6  C   UNL     1       2.866   6.896  18.243  0.00  0.00    +0.000 A 
ATOM      7  C   UNL     1       2.915   5.641  18.819  0.00  0.00    +0.000 A 
ATOM      8  C   UNL     1       2.379   5.383  20.085  0.00  0.00    +0.000 A 
ATOM      9  C   UNL     1       1.774   6.368  20.830  0.00  0.00    +0.000 A 
ATOM     10  N   UNL     1       2.583   4.029  20.374  0.00  0.00    +0.000 N 
ATOM     11  C   UNL     1       2.183   3.331  21.559  0.00  0.00    +0.000 C 
ATOM     12  C   UNL     1       3.249   3.421  19.286  0.00  0.00    +0.000 A 
ATOM     13  O   UNL     1       3.575   2.250  19.196  0.00  0.00    +0.000 OA
ATOM     14  N   UNL     1       3.450   4.441  18.331  0.00  0.00    +0.000 N 
ATOM     15  C   UNL     1       4.090   4.268  17.060  0.00  0.00    +0.000 C 
ENDBRANCH   1   4
BRANCH   1  16
ATOM     16  N   UNL     1       0.806  10.170  20.043  0.00  0.00    +0.000 N 
ATOM     17  H   UNL     1       1.101   9.835  19.126  0.00  0.00    +0.000 HD
BRANCH  16  24
ATOM     18  C   UNL     1      -1.096  10.051  17.819  0.00  0.00    +0.000 C 
ATOM     19  C   UNL     1      -1.272  10.963  18.998  0.00  0.00    +0.000 A 
ATOM     20  C   UNL     1      -2.418  11.770  19.073  0.00  0.00    +0.000 A 
ATOM     21  C   UNL     1      -2.633  12.608  20.168  0.00  0.00    +0.000 A 
ATOM     22  C   UNL     1      -1.706  12.649  21.204  0.00  0.00    +0.000 A 
ATOM     23  C   UNL     1      -0.560  11.857  21.143  0.00  0.00    +0.000 A 
ATOM     24  C   UNL     1      -0.336  11.024  20.042  0.00  0.00    +0.000 A 
ENDBRANCH  16  24
ENDBRANCH   1  16
TORSDOF 3
ENDMDL
MODEL 9
REMARK VINA RESULT:      -7.6      2.547      7.238
REMARK  Name = 
REMARK  6 active torsions:
REMARK  status: ('A' for Active; 'I' for Inactive)
REMARK    1  A    between atoms: C_1  and  C_2
REMARK    2  A    between atoms: C_7  and  N_8
REMARK    3  A    between atoms: N_8  and  S_9
REMARK    4  A    between atoms: S_9  and  C_12
REMARK    5  A    between atoms: N_18  and  C_19
REMARK    6  A    between atoms: N_22  and  C_23
REMARK                            x       y       z     vdW  Elec       q    Type
REMARK                         _______ _______ _______ _____ _____    ______ ____
ROOT
ATOM      1  S   UNL     1       3.239   6.269  18.614  0.00  0.00    +0.000 S 
ATOM      2  O   UNL     1       2.584   5.394  17.669  0.00  0.00    +0.000 OA
ATOM      3  O   UNL     1       3.601   5.817  19.941  0.00  0.00    +0.000 OA
ENDROOT
BRANCH   1   4
ATOM      4  C   UNL     1       2.238   7.719  18.840  0.00  0.00    +0.000 A 
ATOM      5  C   UNL     1       1.901   8.539  17.739  0.00  0.00    +0.000 A 
ATOM      6  C   UNL     1       1.121   9.686  17.931  0.00  0.00    +0.000 A 
ATOM      7  C   UNL     1       0.712   9.969  19.220  0.00  0.00    +0.000 A 
ATOM      8  C   UNL     1       1.046   9.146  20.302  0.00  0.00    +0.000 A 
ATOM      9  C   UNL     1       1.800   8.007  20.141  0.00  0.00    +0.000 A 
ATOM     10  N   UNL     1       0.491   9.705  21.458  0.00  0.00    +0.000 N 
ATOM     11  C   UNL     1       0.594   9.200  22.795  0.00  0.00    +0.000 C 
ATOM     12  C   UNL     1      -0.196  10.891  21.113  0.00  0.00    +0.000 A 
ATOM     13  O   UNL     1      -0.789  11.636  21.874  0.00  0.00    +0.000 OA
ATOM     14  N   UNL     1      -0.050  11.035  19.716  0.00  0.00    +0.000 N 
ATOM     15  C   UNL     1      -0.589  12.109  18.935  0.00  0.00    +0.000 C 
ENDBRANCH   1   4
BRANCH   1  16
ATOM     16  N   UNL     1       4.648   6.927  17.947  0.00  0.00    +0.000 N 
ATOM     17  H   UNL     1       5.142   7.485  18.642  0.00  0.00    +0.000 HD
BRANCH  16  24
ATOM     18  C   UNL     1       6.936   5.531  19.128  0.00  0.00    +0.000 C 
ATOM     19  C   UNL     1       6.559   5.405  17.680  0.00  0.00    +0.000 A 
ATOM     20  C   UNL     1       7.301   4.548  16.852  0.00  0.00    +0.000 A 
ATOM     21  C   UNL     1       6.962   4.380  15.508  0.00  0.00    +0.000 A 
ATOM     22  C   UNL     1       5.875   5.065  14.975  0.00  0.00    +0.000 A 
ATOM     23  C   UNL     1       5.130   5.924  15.783  0.00  0.00    +0.000 A 
ATOM     24  C   UNL     1       5.473   6.102  17.128  0.00  0.00    +0.000 A 
ENDBRANCH  16  24
ENDBRANCH   1  16
TORSDOF 3
ENDMDL
