MODEL 1
REMARK VINA RESULT:      -8.1      0.000      0.000
REMARK  Name = 
REMARK  8 active torsions:
REMARK  status: ('A' for Active; 'I' for Inactive)
REMARK    1  A    between atoms: C_1  and  C_2
REMARK    2  A    between atoms: C_3  and  C_4
REMARK    3  A    between atoms: N_6  and  C_7
REMARK    4  A    between atoms: C_7  and  C_8
REMARK    5  A    between atoms: C_8  and  C_9
REMARK    6  A    between atoms: C_12  and  N_13
REMARK    7  A    between atoms: N_13  and  C_14
REMARK    8  A    between atoms: N_13  and  C_15
REMARK                            x       y       z     vdW  Elec       q    Type
REMARK                         _______ _______ _______ _____ _____    ______ ____
ROOT
ATOM      1  C   UNL     1       6.721   6.570  17.163  0.00  0.00    +0.000 C 
ATOM      2  O   UNL     1       7.462   6.348  16.209  0.00  0.00    +0.000 OA
ATOM      3  N   UNL     1       6.932   7.685  17.963  0.00  0.00    +0.000 N 
ATOM      4  H   UNL     1       6.268   7.896  18.696  0.00  0.00    +0.000 HD
ENDROOT
BRANCH   1   7
ATOM      5  C   UNL     1       3.582   7.327  17.529  0.00  0.00    +0.000 C 
ATOM      6  C   UNL     1       4.250   6.006  17.650  0.00  0.00    +0.000 A 
ATOM      7  C   UNL     1       5.601   5.699  17.499  0.00  0.00    +0.000 A 
ATOM      8  O   UNL     1       5.797   4.354  17.707  0.00  0.00    +0.000 OA
ATOM      9  C   UNL     1       4.574   3.801  17.968  0.00  0.00    +0.000 A 
ATOM     10  C   UNL     1       4.314   2.453  18.224  0.00  0.00    +0.000 A 
ATOM     11  C   UNL     1       2.976   2.100  18.455  0.00  0.00    +0.000 A 
ATOM     12  C   UNL     1       1.963   3.061  18.431  0.00  0.00    +0.000 A 
ATOM     13 CL   UNL     1       0.330   2.588  18.711  0.00  0.00    +0.000 Cl
ATOM     14  C   UNL     1       2.249   4.406  18.180  0.00  0.00    +0.000 A 
ATOM     15  C   UNL     1       3.588   4.778  17.942  0.00  0.00    +0.000 A 
ENDBRANCH   1   7
BRANCH   3  16
ATOM     16  C   UNL     1       8.014   8.589  17.599  0.00  0.00    +0.000 C 
BRANCH  16  17
ATOM     17  C   UNL     1       8.861   9.121  18.758  0.00  0.00    +0.000 C 
BRANCH  17  18
ATOM     18  C   UNL     1       9.195  10.586  18.558  0.00  0.00    +0.000 A 
ATOM     19  C   UNL     1       8.370  11.415  17.795  0.00  0.00    +0.000 A 
ATOM     20  C   UNL     1       8.718  12.757  17.551  0.00  0.00    +0.000 A 
ATOM     21  C   UNL     1       9.900  13.335  18.041  0.00  0.00    +0.000 A 
ATOM     22  C   UNL     1      10.708  12.481  18.810  0.00  0.00    +0.000 A 
ATOM     23  C   UNL     1      10.369  11.140  19.070  0.00  0.00    +0.000 A 
BRANCH  21  24
ATOM     24  N   UNL     1      10.285  14.637  17.738  0.00  0.00    +0.000 N 
ATOM     25  C   UNL     1      11.671  14.973  17.415  0.00  0.00    +0.000 C 
ATOM     26  C   UNL     1       9.454  15.793  18.067  0.00  0.00    +0.000 C 
ENDBRANCH  21  24
ENDBRANCH  17  18
ENDBRANCH  16  17
ENDBRANCH   3  16
TORSDOF 5
ENDMDL
MODEL 2
REMARK VINA RESULT:      -8.0      0.964      1.399
REMARK  Name = 
REMARK  8 active torsions:
REMARK  status: ('A' for Active; 'I' for Inactive)
REMARK    1  A    between atoms: C_1  and  C_2
REMARK    2  A    between atoms: C_3  and  C_4
REMARK    3  A    between atoms: N_6  and  C_7
REMARK    4  A    between atoms: C_7  and  C_8
REMARK    5  A    between atoms: C_8  and  C_9
REMARK    6  A    between atoms: C_12  and  N_13
REMARK    7  A    between atoms: N_13  and  C_14
REMARK    8  A    between atoms: N_13  and  C_15
REMARK                            x       y       z     vdW  Elec       q    Type
REMARK                         _______ _______ _______ _____ _____    ______ ____
ROOT
ATOM      1  C   UNL     1       6.654   6.694  17.290  0.00  0.00    +0.000 C 
ATOM      2  O   UNL     1       7.468   6.294  16.462  0.00  0.00    +0.000 OA
ATOM      3  N   UNL     1       6.847   7.914  17.924  0.00  0.00    +0.000 N 
ATOM      4  H   UNL     1       6.128   8.264  18.543  0.00  0.00    +0.000 HD
ENDROOT
BRANCH   1   7
ATOM      5  C   UNL     1       5.178   4.327  15.622  0.00  0.00    +0.000 C 
ATOM      6  C   UNL     1       4.824   4.906  16.944  0.00  0.00    +0.000 A 
ATOM      7  C   UNL     1       5.463   5.929  17.643  0.00  0.00    +0.000 A 
ATOM      8  O   UNL     1       4.803   6.165  18.825  0.00  0.00    +0.000 OA
ATOM      9  C   UNL     1       3.759   5.283  18.892  0.00  0.00    +0.000 A 
ATOM     10  C   UNL     1       2.838   5.169  19.935  0.00  0.00    +0.000 A 
ATOM     11  C   UNL     1       1.851   4.181  19.801  0.00  0.00    +0.000 A 
ATOM     12  C   UNL     1       1.801   3.362  18.672  0.00  0.00    +0.000 A 
ATOM     13 CL   UNL     1       0.578   2.153  18.547  0.00  0.00    +0.000 Cl
ATOM     14  C   UNL     1       2.731   3.499  17.637  0.00  0.00    +0.000 A 
ATOM     15  C   UNL     1       3.732   4.484  17.757  0.00  0.00    +0.000 A 
ENDBRANCH   1   7
BRANCH   3  16
ATOM     16  C   UNL     1       8.004   8.707  17.534  0.00  0.00    +0.000 C 
BRANCH  16  17
ATOM     17  C   UNL     1       8.876   9.227  18.680  0.00  0.00    +0.000 C 
BRANCH  17  18
ATOM     18  C   UNL     1       9.242  10.683  18.466  0.00  0.00    +0.000 A 
ATOM     19  C   UNL     1       8.379  11.550  17.794  0.00  0.00    +0.000 A 
ATOM     20  C   UNL     1       8.750  12.883  17.534  0.00  0.00    +0.000 A 
ATOM     21  C   UNL     1       9.994  13.413  17.915  0.00  0.00    +0.000 A 
ATOM     22  C   UNL     1      10.840  12.520  18.595  0.00  0.00    +0.000 A 
ATOM     23  C   UNL     1      10.478  11.187  18.870  0.00  0.00    +0.000 A 
BRANCH  21  24
ATOM     24  N   UNL     1      10.395  14.704  17.592  0.00  0.00    +0.000 N 
ATOM     25  C   UNL     1      11.777  15.011  17.224  0.00  0.00    +0.000 C 
ATOM     26  C   UNL     1       9.598  15.879  17.940  0.00  0.00    +0.000 C 
ENDBRANCH  21  24
ENDBRANCH  17  18
ENDBRANCH  16  17
ENDBRANCH   3  16
TORSDOF 5
ENDMDL
MODEL 3
REMARK VINA RESULT:      -7.9      6.117      8.055
REMARK  Name = 
REMARK  8 active torsions:
REMARK  status: ('A' for Active; 'I' for Inactive)
REMARK    1  A    between atoms: C_1  and  C_2
REMARK    2  A    between atoms: C_3  and  C_4
REMARK    3  A    between atoms: N_6  and  C_7
REMARK    4  A    between atoms: C_7  and  C_8
REMARK    5  A    between atoms: C_8  and  C_9
REMARK    6  A    between atoms: C_12  and  N_13
REMARK    7  A    between atoms: N_13  and  C_14
REMARK    8  A    between atoms: N_13  and  C_15
REMARK                            x       y       z     vdW  Elec       q    Type
REMARK                         _______ _______ _______ _____ _____    ______ ____
ROOT
ATOM      1  C   UNL     1       2.498   6.437  19.243  0.00  0.00    +0.000 C 
ATOM      2  O   UNL     1       2.262   6.059  18.098  0.00  0.00    +0.000 OA
ATOM      3  N   UNL     1       3.423   5.757  20.024  0.00  0.00    +0.000 N 
ATOM      4  H   UNL     1       3.663   6.127  20.934  0.00  0.00    +0.000 HD
ENDROOT
BRANCH   1   7
ATOM      5  C   UNL     1       1.908   9.343  17.913  0.00  0.00    +0.000 C 
ATOM      6  C   UNL     1       1.570   8.845  19.272  0.00  0.00    +0.000 A 
ATOM      7  C   UNL     1       1.839   7.597  19.831  0.00  0.00    +0.000 A 
ATOM      8  O   UNL     1       1.364   7.555  21.120  0.00  0.00    +0.000 OA
ATOM      9  C   UNL     1       0.775   8.762  21.377  0.00  0.00    +0.000 A 
ATOM     10  C   UNL     1       0.150   9.141  22.566  0.00  0.00    +0.000 A 
ATOM     11  C   UNL     1      -0.402  10.430  22.607  0.00  0.00    +0.000 A 
ATOM     12  C   UNL     1      -0.320  11.284  21.506  0.00  0.00    +0.000 A 
ATOM     13 CL   UNL     1      -1.017  12.858  21.591  0.00  0.00    +0.000 Cl
ATOM     14  C   UNL     1       0.317  10.885  20.327  0.00  0.00    +0.000 A 
ATOM     15  C   UNL     1       0.873   9.591  20.267  0.00  0.00    +0.000 A 
ENDBRANCH   1   7
BRANCH   3  16
ATOM     16  C   UNL     1       4.126   4.632  19.422  0.00  0.00    +0.000 C 
BRANCH  16  17
ATOM     17  C   UNL     1       5.612   4.851  19.128  0.00  0.00    +0.000 C 
BRANCH  17  18
ATOM     18  C   UNL     1       5.878   4.834  17.635  0.00  0.00    +0.000 A 
ATOM     19  C   UNL     1       4.899   4.411  16.735  0.00  0.00    +0.000 A 
ATOM     20  C   UNL     1       5.171   4.328  15.356  0.00  0.00    +0.000 A 
ATOM     21  C   UNL     1       6.424   4.651  14.809  0.00  0.00    +0.000 A 
ATOM     22  C   UNL     1       7.388   5.081  15.737  0.00  0.00    +0.000 A 
ATOM     23  C   UNL     1       7.127   5.176  17.117  0.00  0.00    +0.000 A 
BRANCH  21  24
ATOM     24  N   UNL     1       6.719   4.497  13.459  0.00  0.00    +0.000 N 
ATOM     25  C   UNL     1       6.151   3.407  12.667  0.00  0.00    +0.000 C 
ATOM     26  C   UNL     1       7.864   5.153  12.830  0.00  0.00    +0.000 C 
ENDBRANCH  21  24
ENDBRANCH  17  18
ENDBRANCH  16  17
ENDBRANCH   3  16
TORSDOF 5
ENDMDL
MODEL 4
REMARK VINA RESULT:      -7.8      1.307      1.628
REMARK  Name = 
REMARK  8 active torsions:
REMARK  status: ('A' for Active; 'I' for Inactive)
REMARK    1  A    between atoms: C_1  and  C_2
REMARK    2  A    between atoms: C_3  and  C_4
REMARK    3  A    between atoms: N_6  and  C_7
REMARK    4  A    between atoms: C_7  and  C_8
REMARK    5  A    between atoms: C_8  and  C_9
REMARK    6  A    between atoms: C_12  and  N_13
REMARK    7  A    between atoms: N_13  and  C_14
REMARK    8  A    between atoms: N_13  and  C_15
REMARK                            x       y       z     vdW  Elec       q    Type
REMARK                         _______ _______ _______ _____ _____    ______ ____
ROOT
ATOM      1  C   UNL     1       6.693   6.341  17.810  0.00  0.00    +0.000 C 
ATOM      2  O   UNL     1       7.752   5.770  17.566  0.00  0.00    +0.000 OA
ATOM      3  N   UNL     1       6.638   7.728  17.830  0.00  0.00    +0.000 N 
ATOM      4  H   UNL     1       5.743   8.183  17.955  0.00  0.00    +0.000 HD
ENDROOT
BRANCH   1   7
ATOM      5  C   UNL     1       5.078   4.275  15.892  0.00  0.00    +0.000 C 
ATOM      6  C   UNL     1       4.761   4.716  17.275  0.00  0.00    +0.000 A 
ATOM      7  C   UNL     1       5.460   5.611  18.082  0.00  0.00    +0.000 A 
ATOM      8  O   UNL     1       4.817   5.747  19.289  0.00  0.00    +0.000 OA
ATOM      9  C   UNL     1       3.724   4.926  19.262  0.00  0.00    +0.000 A 
ATOM     10  C   UNL     1       2.799   4.745  20.293  0.00  0.00    +0.000 A 
ATOM     11  C   UNL     1       1.755   3.838  20.054  0.00  0.00    +0.000 A 
ATOM     12  C   UNL     1       1.655   3.160  18.839  0.00  0.00    +0.000 A 
ATOM     13 CL   UNL     1       0.364   2.047  18.585  0.00  0.00    +0.000 Cl
ATOM     14  C   UNL     1       2.589   3.362  17.818  0.00  0.00    +0.000 A 
ATOM     15  C   UNL     1       3.647   4.266  18.042  0.00  0.00    +0.000 A 
ENDBRANCH   1   7
BRANCH   3  16
ATOM     16  C   UNL     1       7.853   8.462  17.504  0.00  0.00    +0.000 C 
BRANCH  16  17
ATOM     17  C   UNL     1       8.808   8.730  18.670  0.00  0.00    +0.000 C 
BRANCH  17  18
ATOM     18  C   UNL     1       9.040  10.217  18.851  0.00  0.00    +0.000 A 
ATOM     19  C   UNL     1       8.748  11.121  17.828  0.00  0.00    +0.000 A 
ATOM     20  C   UNL     1       9.030  12.492  17.971  0.00  0.00    +0.000 A 
ATOM     21  C   UNL     1       9.622  13.029  19.127  0.00  0.00    +0.000 A 
ATOM     22  C   UNL     1       9.897  12.098  20.143  0.00  0.00    +0.000 A 
ATOM     23  C   UNL     1       9.613  10.725  20.017  0.00  0.00    +0.000 A 
BRANCH  21  24
ATOM     24  N   UNL     1       9.972  14.370  19.242  0.00  0.00    +0.000 N 
ATOM     25  C   UNL     1      11.243  14.784  19.835  0.00  0.00    +0.000 C 
ATOM     26  C   UNL     1       8.989  15.446  19.132  0.00  0.00    +0.000 C 
ENDBRANCH  21  24
ENDBRANCH  17  18
ENDBRANCH  16  17
ENDBRANCH   3  16
TORSDOF 5
ENDMDL
MODEL 5
REMARK VINA RESULT:      -7.7      6.037      8.223
REMARK  Name = 
REMARK  8 active torsions:
REMARK  status: ('A' for Active; 'I' for Inactive)
REMARK    1  A    between atoms: C_1  and  C_2
REMARK    2  A    between atoms: C_3  and  C_4
REMARK    3  A    between atoms: N_6  and  C_7
REMARK    4  A    between atoms: C_7  and  C_8
REMARK    5  A    between atoms: C_8  and  C_9
REMARK    6  A    between atoms: C_12  and  N_13
REMARK    7  A    between atoms: N_13  and  C_14
REMARK    8  A    between atoms: N_13  and  C_15
REMARK                            x       y       z     vdW  Elec       q    Type
REMARK                         _______ _______ _______ _____ _____    ______ ____
ROOT
ATOM      1  C   UNL     1       2.455   7.045  19.403  0.00  0.00    +0.000 C 
ATOM      2  O   UNL     1       2.749   7.101  18.212  0.00  0.00    +0.000 OA
ATOM      3  N   UNL     1       2.885   5.977  20.178  0.00  0.00    +0.000 N 
ATOM      4  H   UNL     1       2.701   5.986  21.173  0.00  0.00    +0.000 HD
ENDROOT
BRANCH   1   7
ATOM      5  C   UNL     1       1.210   9.768  18.141  0.00  0.00    +0.000 C 
ATOM      6  C   UNL     1       1.110   9.244  19.528  0.00  0.00    +0.000 A 
ATOM      7  C   UNL     1       1.658   8.077  20.057  0.00  0.00    +0.000 A 
ATOM      8  O   UNL     1       1.334   7.975  21.388  0.00  0.00    +0.000 OA
ATOM      9  C   UNL     1       0.564   9.060  21.704  0.00  0.00    +0.000 A 
ATOM     10  C   UNL     1       0.006   9.343  22.953  0.00  0.00    +0.000 A 
ATOM     11  C   UNL     1      -0.766  10.510  23.051  0.00  0.00    +0.000 A 
ATOM     12  C   UNL     1      -0.955  11.343  21.946  0.00  0.00    +0.000 A 
ATOM     13 CL   UNL     1      -1.915  12.765  22.102  0.00  0.00    +0.000 Cl
ATOM     14  C   UNL     1      -0.380  11.043  20.707  0.00  0.00    +0.000 A 
ATOM     15  C   UNL     1       0.395   9.871  20.590  0.00  0.00    +0.000 A 
ENDBRANCH   1   7
BRANCH   3  16
ATOM     16  C   UNL     1       3.728   4.972  19.544  0.00  0.00    +0.000 C 
BRANCH  16  17
ATOM     17  C   UNL     1       5.191   5.365  19.329  0.00  0.00    +0.000 C 
BRANCH  17  18
ATOM     18  C   UNL     1       5.639   5.036  17.918  0.00  0.00    +0.000 A 
ATOM     19  C   UNL     1       6.801   5.595  17.384  0.00  0.00    +0.000 A 
ATOM     20  C   UNL     1       7.178   5.345  16.050  0.00  0.00    +0.000 A 
ATOM     21  C   UNL     1       6.418   4.541  15.185  0.00  0.00    +0.000 A 
ATOM     22  C   UNL     1       5.258   3.986  15.751  0.00  0.00    +0.000 A 
ATOM     23  C   UNL     1       4.874   4.221  17.085  0.00  0.00    +0.000 A 
BRANCH  21  24
ATOM     24  N   UNL     1       6.746   4.355  13.847  0.00  0.00    +0.000 N 
ATOM     25  C   UNL     1       7.765   5.169  13.185  0.00  0.00    +0.000 C 
ATOM     26  C   UNL     1       5.880   3.622  12.925  0.00  0.00    +0.000 C 
ENDBRANCH  21  24
ENDBRANCH  17  18
ENDBRANCH  16  17
ENDBRANCH   3  16
TORSDOF 5
ENDMDL
MODEL 6
REMARK VINA RESULT:      -7.7      1.155      1.666
REMARK  Name = 
REMARK  8 active torsions:
REMARK  status: ('A' for Active; 'I' for Inactive)
REMARK    1  A    between atoms: C_1  and  C_2
REMARK    2  A    between atoms: C_3  and  C_4
REMARK    3  A    between atoms: N_6  and  C_7
REMARK    4  A    between atoms: C_7  and  C_8
REMARK    5  A    between atoms: C_8  and  C_9
REMARK    6  A    between atoms: C_12  and  N_13
REMARK    7  A    between atoms: N_13  and  C_14
REMARK    8  A    between atoms: N_13  and  C_15
REMARK                            x       y       z     vdW  Elec       q    Type
REMARK                         _______ _______ _______ _____ _____    ______ ____
ROOT
ATOM      1  C   UNL     1       6.791   6.331  17.463  0.00  0.00    +0.000 C 
ATOM      2  O   UNL     1       7.333   6.343  16.361  0.00  0.00    +0.000 OA
ATOM      3  N   UNL     1       7.268   7.142  18.483  0.00  0.00    +0.000 N 
ATOM      4  H   UNL     1       6.763   7.179  19.358  0.00  0.00    +0.000 HD
ENDROOT
BRANCH   1   7
ATOM      5  C   UNL     1       3.647   7.143  17.590  0.00  0.00    +0.000 C 
ATOM      6  C   UNL     1       4.284   5.818  17.802  0.00  0.00    +0.000 A 
ATOM      7  C   UNL     1       5.637   5.487  17.753  0.00  0.00    +0.000 A 
ATOM      8  O   UNL     1       5.797   4.149  18.020  0.00  0.00    +0.000 OA
ATOM      9  C   UNL     1       4.551   3.621  18.217  0.00  0.00    +0.000 A 
ATOM     10  C   UNL     1       4.253   2.287  18.501  0.00  0.00    +0.000 A 
ATOM     11  C   UNL     1       2.897   1.961  18.654  0.00  0.00    +0.000 A 
ATOM     12  C   UNL     1       1.904   2.934  18.529  0.00  0.00    +0.000 A 
ATOM     13 CL   UNL     1       0.248   2.494  18.715  0.00  0.00    +0.000 Cl
ATOM     14  C   UNL     1       2.227   4.265  18.251  0.00  0.00    +0.000 A 
ATOM     15  C   UNL     1       3.584   4.610  18.091  0.00  0.00    +0.000 A 
ENDBRANCH   1   7
BRANCH   3  16
ATOM     16  C   UNL     1       8.384   8.028  18.183  0.00  0.00    +0.000 C 
BRANCH  16  17
ATOM     17  C   UNL     1       8.015   9.402  17.616  0.00  0.00    +0.000 C 
BRANCH  17  18
ATOM     18  C   UNL     1       8.800  10.501  18.305  0.00  0.00    +0.000 A 
ATOM     19  C   UNL     1       9.435  10.275  19.527  0.00  0.00    +0.000 A 
ATOM     20  C   UNL     1      10.103  11.316  20.200  0.00  0.00    +0.000 A 
ATOM     21  C   UNL     1      10.165  12.626  19.698  0.00  0.00    +0.000 A 
ATOM     22  C   UNL     1       9.524  12.824  18.463  0.00  0.00    +0.000 A 
ATOM     23  C   UNL     1       8.860  11.790  17.776  0.00  0.00    +0.000 A 
BRANCH  21  24
ATOM     24  N   UNL     1      10.757  13.673  20.396  0.00  0.00    +0.000 N 
ATOM     25  C   UNL     1      10.108  14.291  21.551  0.00  0.00    +0.000 C 
ATOM     26  C   UNL     1      11.853  14.463  19.837  0.00  0.00    +0.000 C 
ENDBRANCH  21  24
ENDBRANCH  17  18
ENDBRANCH  16  17
ENDBRANCH   3  16
TORSDOF 5
ENDMDL
MODEL 7
REMARK VINA RESULT:      -7.7      0.889      1.474
REMARK  Name = 
REMARK  8 active torsions:
REMARK  status: ('A' for Active; 'I' for Inactive)
REMARK    1  A    between atoms: C_1  and  C_2
REMARK    2  A    between atoms: C_3  and  C_4
REMARK    3  A    between atoms: N_6  and  C_7
REMARK    4  A    between atoms: C_7  and  C_8
REMARK    5  A    between atoms: C_8  and  C_9
REMARK    6  A    between atoms: C_12  and  N_13
REMARK    7  A    between atoms: N_13  and  C_14
REMARK    8  A    between atoms: N_13  and  C_15
REMARK                            x       y       z     vdW  Elec       q    Type
REMARK                         _______ _______ _______ _____ _____    ______ ____
ROOT
ATOM      1  C   UNL     1       7.155   6.464  18.382  0.00  0.00    +0.000 C 
ATOM      2  O   UNL     1       8.271   6.106  18.747  0.00  0.00    +0.000 OA
ATOM      3  N   UNL     1       6.981   7.708  17.792  0.00  0.00    +0.000 N 
ATOM      4  H   UNL     1       6.071   7.956  17.426  0.00  0.00    +0.000 HD
ENDROOT
BRANCH   1   7
ATOM      5  C   UNL     1       4.129   6.959  17.304  0.00  0.00    +0.000 C 
ATOM      6  C   UNL     1       4.676   5.813  18.076  0.00  0.00    +0.000 A 
ATOM      7  C   UNL     1       5.976   5.620  18.540  0.00  0.00    +0.000 A 
ATOM      8  O   UNL     1       6.053   4.429  19.222  0.00  0.00    +0.000 OA
ATOM      9  C   UNL     1       4.813   3.853  19.175  0.00  0.00    +0.000 A 
ATOM     10  C   UNL     1       4.451   2.624  19.731  0.00  0.00    +0.000 A 
ATOM     11  C   UNL     1       3.120   2.217  19.552  0.00  0.00    +0.000 A 
ATOM     12  C   UNL     1       2.212   3.014  18.853  0.00  0.00    +0.000 A 
ATOM     13 CL   UNL     1       0.587   2.477  18.646  0.00  0.00    +0.000 Cl
ATOM     14  C   UNL     1       2.596   4.244  18.311  0.00  0.00    +0.000 A 
ATOM     15  C   UNL     1       3.930   4.667  18.478  0.00  0.00    +0.000 A 
ENDBRANCH   1   7
BRANCH   3  16
ATOM     16  C   UNL     1       8.163   8.532  17.580  0.00  0.00    +0.000 C 
BRANCH  16  17
ATOM     17  C   UNL     1       8.725   9.229  18.822  0.00  0.00    +0.000 C 
BRANCH  17  18
ATOM     18  C   UNL     1       9.220  10.622  18.486  0.00  0.00    +0.000 A 
ATOM     19  C   UNL     1      10.469  11.067  18.920  0.00  0.00    +0.000 A 
ATOM     20  C   UNL     1      10.897  12.384  18.669  0.00  0.00    +0.000 A 
ATOM     21  C   UNL     1      10.105  13.322  17.986  0.00  0.00    +0.000 A 
ATOM     22  C   UNL     1       8.855  12.846  17.554  0.00  0.00    +0.000 A 
ATOM     23  C   UNL     1       8.418  11.528  17.791  0.00  0.00    +0.000 A 
BRANCH  21  24
ATOM     24  N   UNL     1      10.492  14.645  17.803  0.00  0.00    +0.000 N 
ATOM     25  C   UNL     1       9.519  15.737  17.805  0.00  0.00    +0.000 C 
ATOM     26  C   UNL     1      11.792  15.008  17.244  0.00  0.00    +0.000 C 
ENDBRANCH  21  24
ENDBRANCH  17  18
ENDBRANCH  16  17
ENDBRANCH   3  16
TORSDOF 5
ENDMDL
MODEL 8
REMARK VINA RESULT:      -7.7      1.356      1.939
REMARK  Name = 
REMARK  8 active torsions:
REMARK  status: ('A' for Active; 'I' for Inactive)
REMARK    1  A    between atoms: C_1  and  C_2
REMARK    2  A    between atoms: C_3  and  C_4
REMARK    3  A    between atoms: N_6  and  C_7
REMARK    4  A    between atoms: C_7  and  C_8
REMARK    5  A    between atoms: C_8  and  C_9
REMARK    6  A    between atoms: C_12  and  N_13
REMARK    7  A    between atoms: N_13  and  C_14
REMARK    8  A    between atoms: N_13  and  C_15
REMARK                            x       y       z     vdW  Elec       q    Type
REMARK                         _______ _______ _______ _____ _____    ______ ____
ROOT
ATOM      1  C   UNL     1       6.693   6.320  17.924  0.00  0.00    +0.000 C 
ATOM      2  O   UNL     1       7.770   5.747  17.780  0.00  0.00    +0.000 OA
ATOM      3  N   UNL     1       6.624   7.704  17.835  0.00  0.00    +0.000 N 
ATOM      4  H   UNL     1       5.719   8.154  17.878  0.00  0.00    +0.000 HD
ENDROOT
BRANCH   1   7
ATOM      5  C   UNL     1       5.064   4.290  15.978  0.00  0.00    +0.000 C 
ATOM      6  C   UNL     1       4.750   4.716  17.366  0.00  0.00    +0.000 A 
ATOM      7  C   UNL     1       5.455   5.596  18.186  0.00  0.00    +0.000 A 
ATOM      8  O   UNL     1       4.811   5.722  19.393  0.00  0.00    +0.000 OA
ATOM      9  C   UNL     1       3.712   4.909  19.355  0.00  0.00    +0.000 A 
ATOM     10  C   UNL     1       2.785   4.722  20.383  0.00  0.00    +0.000 A 
ATOM     11  C   UNL     1       1.735   3.826  20.132  0.00  0.00    +0.000 A 
ATOM     12  C   UNL     1       1.631   3.164  18.908  0.00  0.00    +0.000 A 
ATOM     13 CL   UNL     1       0.331   2.064  18.639  0.00  0.00    +0.000 Cl
ATOM     14  C   UNL     1       2.568   3.372  17.891  0.00  0.00    +0.000 A 
ATOM     15  C   UNL     1       3.632   4.265  18.127  0.00  0.00    +0.000 A 
ENDBRANCH   1   7
BRANCH   3  16
ATOM     16  C   UNL     1       7.848   8.428  17.518  0.00  0.00    +0.000 C 
BRANCH  16  17
ATOM     17  C   UNL     1       8.783   8.710  18.696  0.00  0.00    +0.000 C 
BRANCH  17  18
ATOM     18  C   UNL     1       9.037  10.197  18.843  0.00  0.00    +0.000 A 
ATOM     19  C   UNL     1       9.511  10.731  20.043  0.00  0.00    +0.000 A 
ATOM     20  C   UNL     1       9.679  12.120  20.201  0.00  0.00    +0.000 A 
ATOM     21  C   UNL     1       9.377  13.042  19.184  0.00  0.00    +0.000 A 
ATOM     22  C   UNL     1       8.909  12.476  17.986  0.00  0.00    +0.000 A 
ATOM     23  C   UNL     1       8.744  11.089  17.811  0.00  0.00    +0.000 A 
BRANCH  21  24
ATOM     24  N   UNL     1       9.468  14.417  19.363  0.00  0.00    +0.000 N 
ATOM     25  C   UNL     1       9.211  15.353  18.269  0.00  0.00    +0.000 C 
ATOM     26  C   UNL     1      10.163  15.013  20.503  0.00  0.00    +0.000 C 
ENDBRANCH  21  24
ENDBRANCH  17  18
ENDBRANCH  16  17
ENDBRANCH   3  16
TORSDOF 5
ENDMDL
MODEL 9
REMARK VINA RESULT:      -7.7      6.133      8.216
REMARK  Name = 
REMARK  8 active torsions:
REMARK  status: ('A' for Active; 'I' for Inactive)
REMARK    1  A    between atoms: C_1  and  C_2
REMARK    2  A    between atoms: C_3  and  C_4
REMARK    3  A    between atoms: N_6  and  C_7
REMARK    4  A    between atoms: C_7  and  C_8
REMARK    5  A    between atoms: C_8  and  C_9
REMARK    6  A    between atoms: C_12  and  N_13
REMARK    7  A    between atoms: N_13  and  C_14
REMARK    8  A    between atoms: N_13  and  C_15
REMARK                            x       y       z     vdW  Elec       q    Type
REMARK                         _______ _______ _______ _____ _____    ______ ____
ROOT
ATOM      1  C   UNL     1       2.660   6.279  19.199  0.00  0.00    +0.000 C 
ATOM      2  O   UNL     1       2.294   5.711  18.174  0.00  0.00    +0.000 OA
ATOM      3  N   UNL     1       3.776   5.824  19.887  0.00  0.00    +0.000 N 
ATOM      4  H   UNL     1       4.110   6.350  20.684  0.00  0.00    +0.000 HD
ENDROOT
BRANCH   1   7
ATOM      5  C   UNL     1       2.003   9.116  17.756  0.00  0.00    +0.000 C 
ATOM      6  C   UNL     1       1.663   8.659  19.128  0.00  0.00    +0.000 A 
ATOM      7  C   UNL     1       1.961   7.441  19.736  0.00  0.00    +0.000 A 
ATOM      8  O   UNL     1       1.472   7.432  21.021  0.00  0.00    +0.000 OA
ATOM      9  C   UNL     1       0.846   8.631  21.225  0.00  0.00    +0.000 A 
ATOM     10  C   UNL     1       0.196   9.036  22.393  0.00  0.00    +0.000 A 
ATOM     11  C   UNL     1      -0.393  10.309  22.380  0.00  0.00    +0.000 A 
ATOM     12  C   UNL     1      -0.322  11.124  21.249  0.00  0.00    +0.000 A 
ATOM     13 CL   UNL     1      -1.064  12.679  21.267  0.00  0.00    +0.000 Cl
ATOM     14  C   UNL     1       0.340  10.699  20.093  0.00  0.00    +0.000 A 
ATOM     15  C   UNL     1       0.934   9.421  20.087  0.00  0.00    +0.000 A 
ENDBRANCH   1   7
BRANCH   3  16
ATOM     16  C   UNL     1       4.511   4.700  19.324  0.00  0.00    +0.000 C 
BRANCH  16  17
ATOM     17  C   UNL     1       5.918   5.010  18.807  0.00  0.00    +0.000 C 
BRANCH  17  18
ATOM     18  C   UNL     1       6.033   4.698  17.328  0.00  0.00    +0.000 A 
ATOM     19  C   UNL     1       7.124   5.146  16.581  0.00  0.00    +0.000 A 
ATOM     20  C   UNL     1       7.195   4.916  15.194  0.00  0.00    +0.000 A 
ATOM     21  C   UNL     1       6.187   4.244  14.483  0.00  0.00    +0.000 A 
ATOM     22  C   UNL     1       5.105   3.798  15.261  0.00  0.00    +0.000 A 
ATOM     23  C   UNL     1       5.025   4.013  16.650  0.00  0.00    +0.000 A 
BRANCH  21  24
ATOM     24  N   UNL     1       6.218   4.083  13.102  0.00  0.00    +0.000 N 
ATOM     25  C   UNL     1       5.187   3.324  12.394  0.00  0.00    +0.000 C 
ATOM     26  C   UNL     1       7.424   4.325  12.314  0.00  0.00    +0.000 C 
ENDBRANCH  21  24
ENDBRANCH  17  18
ENDBRANCH  16  17
ENDBRANCH   3  16
TORSDOF 5
ENDMDL
