MODEL 1
REMARK VINA RESULT:      -7.9      0.000      0.000
REMARK  Name = 
REMARK  4 active torsions:
REMARK  status: ('A' for Active; 'I' for Inactive)
REMARK    1  A    between atoms: C_1  and  N_2
REMARK    2  A    between atoms: C_10  and  C_11
REMARK    3  A    between atoms: C_12  and  O_13
REMARK    4  A    between atoms: C_12  and  C_14
REMARK                            x       y       z     vdW  Elec       q    Type
REMARK                         _______ _______ _______ _____ _____    ______ ____
ROOT
ATOM      1  C   UNL     1       0.980   1.870  19.040  0.00  0.00    +0.000 C 
ATOM      2  N   UNL     1       0.698   2.900  20.032  0.00  0.00    +0.000 N 
ATOM      3  C   UNL     1       1.402   4.100  19.807  0.00  0.00    +0.000 A 
ATOM      4  C   UNL     1       1.205   5.154  20.669  0.00  0.00    +0.000 A 
ATOM      5  C   UNL     1       1.936   6.285  20.414  0.00  0.00    +0.000 A 
ATOM      6  N   UNL     1       2.814   6.392  19.402  0.00  0.00    +0.000 NA
ATOM      7  C   UNL     1       2.953   5.322  18.606  0.00  0.00    +0.000 A 
ATOM      8  N   UNL     1       3.915   5.327  17.647  0.00  0.00    +0.000 N 
ATOM      9  C   UNL     1       4.103   4.243  16.716  0.00  0.00    +0.000 C 
ATOM     10  C   UNL     1       5.581   4.402  16.352  0.00  0.00    +0.000 C 
ATOM     11  C   UNL     1       5.929   3.681  15.056  0.00  0.00    +0.000 C 
ATOM     12  C   UNL     1       5.813   5.940  16.373  0.00  0.00    +0.000 C 
ATOM     13  C   UNL     1       4.651   6.508  17.246  0.00  0.00    +0.000 C 
ATOM     14  N   UNL     1       2.251   4.194  18.776  0.00  0.00    +0.000 NA
ATOM     15  H   UNL     1       0.908   2.580  20.973  0.00  0.00    +0.000 HD
ENDROOT
BRANCH  12  16
ATOM     16  C   UNL     1       7.159   6.258  17.035  0.00  0.00    +0.000 C 
ATOM     17  C   UNL     1       7.462   7.715  17.488  0.00  0.00    +0.000 C 
ATOM     18  C   UNL     1       8.251   7.113  18.665  0.00  0.00    +0.000 C 
ATOM     19  C   UNL     1       7.383   5.846  18.518  0.00  0.00    +0.000 C 
ENDBRANCH  12  16
BRANCH  12  20
ATOM     20  O   UNL     1       5.745   6.499  15.060  0.00  0.00    +0.000 OA
ATOM     21  H   UNL     1       4.812   6.565  14.800  0.00  0.00    +0.000 HD
ENDBRANCH  12  20
TORSDOF 2
ENDMDL
MODEL 2
REMARK VINA RESULT:      -7.5      1.585      3.494
REMARK  Name = 
REMARK  4 active torsions:
REMARK  status: ('A' for Active; 'I' for Inactive)
REMARK    1  A    between atoms: C_1  and  N_2
REMARK    2  A    between atoms: C_10  and  C_11
REMARK    3  A    between atoms: C_12  and  O_13
REMARK    4  A    between atoms: C_12  and  C_14
REMARK                            x       y       z     vdW  Elec       q    Type
REMARK                         _______ _______ _______ _____ _____    ______ ____
ROOT
ATOM      1  C   UNL     1       1.659   5.977  20.833  0.00  0.00    +0.000 C 
ATOM      2  N   UNL     1       0.998   4.752  20.402  0.00  0.00    +0.000 N 
ATOM      3  C   UNL     1       1.744   4.015  19.461  0.00  0.00    +0.000 A 
ATOM      4  C   UNL     1       1.229   2.828  18.993  0.00  0.00    +0.000 A 
ATOM      5  C   UNL     1       1.987   2.169  18.060  0.00  0.00    +0.000 A 
ATOM      6  N   UNL     1       3.160   2.630  17.594  0.00  0.00    +0.000 NA
ATOM      7  C   UNL     1       3.596   3.794  18.097  0.00  0.00    +0.000 A 
ATOM      8  N   UNL     1       4.709   4.370  17.574  0.00  0.00    +0.000 N 
ATOM      9  C   UNL     1       5.276   5.593  18.083  0.00  0.00    +0.000 C 
ATOM     10  C   UNL     1       6.012   6.128  16.852  0.00  0.00    +0.000 C 
ATOM     11  C   UNL     1       7.065   7.164  17.224  0.00  0.00    +0.000 C 
ATOM     12  C   UNL     1       6.523   4.849  16.130  0.00  0.00    +0.000 C 
ATOM     13  C   UNL     1       5.619   3.696  16.669  0.00  0.00    +0.000 C 
ATOM     14  N   UNL     1       2.924   4.479  19.032  0.00  0.00    +0.000 NA
ATOM     15  H   UNL     1       0.082   4.941  20.005  0.00  0.00    +0.000 HD
ENDROOT
BRANCH  12  16
ATOM     16  C   UNL     1       6.332   4.990  14.616  0.00  0.00    +0.000 C 
ATOM     17  C   UNL     1       7.573   4.938  13.680  0.00  0.00    +0.000 C 
ATOM     18  C   UNL     1       6.676   4.243  12.640  0.00  0.00    +0.000 C 
ATOM     19  C   UNL     1       5.787   3.777  13.810  0.00  0.00    +0.000 C 
ENDBRANCH  12  16
BRANCH  12  20
ATOM     20  O   UNL     1       7.889   4.576  16.450  0.00  0.00    +0.000 OA
ATOM     21  H   UNL     1       8.195   5.236  17.092  0.00  0.00    +0.000 HD
ENDBRANCH  12  20
TORSDOF 2
ENDMDL
MODEL 3
REMARK VINA RESULT:      -7.0      1.948      3.403
REMARK  Name = 
REMARK  4 active torsions:
REMARK  status: ('A' for Active; 'I' for Inactive)
REMARK    1  A    between atoms: C_1  and  N_2
REMARK    2  A    between atoms: C_10  and  C_11
REMARK    3  A    between atoms: C_12  and  O_13
REMARK    4  A    between atoms: C_12  and  C_14
REMARK                            x       y       z     vdW  Elec       q    Type
REMARK                         _______ _______ _______ _____ _____    ______ ____
ROOT
ATOM      1  C   UNL     1       0.890   4.958  20.393  0.00  0.00    +0.000 C 
ATOM      2  N   UNL     1       1.412   3.728  20.976  0.00  0.00    +0.000 N 
ATOM      3  C   UNL     1       2.712   3.409  20.536  0.00  0.00    +0.000 A 
ATOM      4  C   UNL     1       3.318   2.277  21.032  0.00  0.00    +0.000 A 
ATOM      5  C   UNL     1       4.571   2.004  20.548  0.00  0.00    +0.000 A 
ATOM      6  N   UNL     1       5.198   2.764  19.633  0.00  0.00    +0.000 NA
ATOM      7  C   UNL     1       4.543   3.849  19.197  0.00  0.00    +0.000 A 
ATOM      8  N   UNL     1       5.071   4.583  18.183  0.00  0.00    +0.000 N 
ATOM      9  C   UNL     1       4.462   5.790  17.684  0.00  0.00    +0.000 C 
ATOM     10  C   UNL     1       5.000   5.838  16.252  0.00  0.00    +0.000 C 
ATOM     11  C   UNL     1       4.886   7.230  15.647  0.00  0.00    +0.000 C 
ATOM     12  C   UNL     1       6.435   5.247  16.365  0.00  0.00    +0.000 C 
ATOM     13  C   UNL     1       6.426   4.427  17.693  0.00  0.00    +0.000 C 
ATOM     14  N   UNL     1       3.329   4.195  19.645  0.00  0.00    +0.000 NA
ATOM     15  H   UNL     1       0.806   2.936  20.780  0.00  0.00    +0.000 HD
ENDROOT
BRANCH  12  16
ATOM     16  C   UNL     1       6.712   4.312  15.183  0.00  0.00    +0.000 C 
ATOM     17  C   UNL     1       5.519   3.736  14.368  0.00  0.00    +0.000 C 
ATOM     18  C   UNL     1       6.419   3.815  13.122  0.00  0.00    +0.000 C 
ATOM     19  C   UNL     1       7.215   4.922  13.844  0.00  0.00    +0.000 C 
ENDBRANCH  12  16
BRANCH  12  20
ATOM     20  O   UNL     1       7.421   6.278  16.445  0.00  0.00    +0.000 OA
ATOM     21  H   UNL     1       7.828   6.385  15.571  0.00  0.00    +0.000 HD
ENDBRANCH  12  20
TORSDOF 2
ENDMDL
MODEL 4
REMARK VINA RESULT:      -7.0      1.647      3.473
REMARK  Name = 
REMARK  4 active torsions:
REMARK  status: ('A' for Active; 'I' for Inactive)
REMARK    1  A    between atoms: C_1  and  N_2
REMARK    2  A    between atoms: C_10  and  C_11
REMARK    3  A    between atoms: C_12  and  O_13
REMARK    4  A    between atoms: C_12  and  C_14
REMARK                            x       y       z     vdW  Elec       q    Type
REMARK                         _______ _______ _______ _____ _____    ______ ____
ROOT
ATOM      1  C   UNL     1       1.736   8.020  20.762  0.00  0.00    +0.000 C 
ATOM      2  N   UNL     1       0.981   6.781  20.897  0.00  0.00    +0.000 N 
ATOM      3  C   UNL     1       1.683   5.646  20.446  0.00  0.00    +0.000 A 
ATOM      4  C   UNL     1       1.079   4.413  20.540  0.00  0.00    +0.000 A 
ATOM      5  C   UNL     1       1.800   3.351  20.061  0.00  0.00    +0.000 A 
ATOM      6  N   UNL     1       3.021   3.467  19.513  0.00  0.00    +0.000 NA
ATOM      7  C   UNL     1       3.544   4.700  19.455  0.00  0.00    +0.000 A 
ATOM      8  N   UNL     1       4.717   4.896  18.798  0.00  0.00    +0.000 N 
ATOM      9  C   UNL     1       5.376   6.175  18.728  0.00  0.00    +0.000 C 
ATOM     10  C   UNL     1       6.189   6.034  17.439  0.00  0.00    +0.000 C 
ATOM     11  C   UNL     1       7.318   7.052  17.363  0.00  0.00    +0.000 C 
ATOM     12  C   UNL     1       6.604   4.535  17.415  0.00  0.00    +0.000 C 
ATOM     13  C   UNL     1       5.587   3.823  18.362  0.00  0.00    +0.000 C 
ATOM     14  N   UNL     1       2.910   5.781  19.928  0.00  0.00    +0.000 NA
ATOM     15  H   UNL     1       0.096   6.826  20.400  0.00  0.00    +0.000 HD
ENDROOT
BRANCH  12  16
ATOM     16  C   UNL     1       6.465   3.975  15.995  0.00  0.00    +0.000 C 
ATOM     17  C   UNL     1       5.129   4.172  15.223  0.00  0.00    +0.000 C 
ATOM     18  C   UNL     1       5.967   4.282  13.936  0.00  0.00    +0.000 C 
ATOM     19  C   UNL     1       7.151   4.728  14.819  0.00  0.00    +0.000 C 
ENDBRANCH  12  16
BRANCH  12  20
ATOM     20  O   UNL     1       7.931   4.350  17.911  0.00  0.00    +0.000 OA
ATOM     21  H   UNL     1       8.421   5.181  17.801  0.00  0.00    +0.000 HD
ENDBRANCH  12  20
TORSDOF 2
ENDMDL
MODEL 5
REMARK VINA RESULT:      -6.5      2.630      3.900
REMARK  Name = 
REMARK  4 active torsions:
REMARK  status: ('A' for Active; 'I' for Inactive)
REMARK    1  A    between atoms: C_1  and  N_2
REMARK    2  A    between atoms: C_10  and  C_11
REMARK    3  A    between atoms: C_12  and  O_13
REMARK    4  A    between atoms: C_12  and  C_14
REMARK                            x       y       z     vdW  Elec       q    Type
REMARK                         _______ _______ _______ _____ _____    ______ ____
ROOT
ATOM      1  C   UNL     1       0.034   8.448  21.812  0.00  0.00    +0.000 C 
ATOM      2  N   UNL     1       0.199   9.615  20.954  0.00  0.00    +0.000 N 
ATOM      3  C   UNL     1       0.994   9.365  19.818  0.00  0.00    +0.000 A 
ATOM      4  C   UNL     1       1.207  10.388  18.923  0.00  0.00    +0.000 A 
ATOM      5  C   UNL     1       2.010  10.093  17.852  0.00  0.00    +0.000 A 
ATOM      6  N   UNL     1       2.584   8.894  17.660  0.00  0.00    +0.000 NA
ATOM      7  C   UNL     1       2.331   7.948  18.575  0.00  0.00    +0.000 A 
ATOM      8  N   UNL     1       2.983   6.759  18.503  0.00  0.00    +0.000 N 
ATOM      9  C   UNL     1       2.738   5.669  19.413  0.00  0.00    +0.000 C 
ATOM     10  C   UNL     1       4.066   4.912  19.353  0.00  0.00    +0.000 C 
ATOM     11  C   UNL     1       3.931   3.482  19.861  0.00  0.00    +0.000 C 
ATOM     12  C   UNL     1       4.534   5.082  17.880  0.00  0.00    +0.000 C 
ATOM     13  C   UNL     1       3.758   6.331  17.356  0.00  0.00    +0.000 C 
ATOM     14  N   UNL     1       1.534   8.154  19.633  0.00  0.00    +0.000 NA
ATOM     15  H   UNL     1       0.604  10.397  21.461  0.00  0.00    +0.000 HD
ENDROOT
BRANCH  12  16
ATOM     16  C   UNL     1       6.042   5.357  17.837  0.00  0.00    +0.000 C 
ATOM     17  C   UNL     1       6.551   6.759  17.395  0.00  0.00    +0.000 C 
ATOM     18  C   UNL     1       7.706   6.580  18.397  0.00  0.00    +0.000 C 
ATOM     19  C   UNL     1       6.800   5.601  19.172  0.00  0.00    +0.000 C 
ENDBRANCH  12  16
BRANCH  12  20
ATOM     20  O   UNL     1       4.199   3.942  17.087  0.00  0.00    +0.000 OA
ATOM     21  H   UNL     1       3.363   4.120  16.627  0.00  0.00    +0.000 HD
ENDBRANCH  12  20
TORSDOF 2
ENDMDL
MODEL 6
REMARK VINA RESULT:      -6.5      3.224      6.178
REMARK  Name = 
REMARK  4 active torsions:
REMARK  status: ('A' for Active; 'I' for Inactive)
REMARK    1  A    between atoms: C_1  and  N_2
REMARK    2  A    between atoms: C_10  and  C_11
REMARK    3  A    between atoms: C_12  and  O_13
REMARK    4  A    between atoms: C_12  and  C_14
REMARK                            x       y       z     vdW  Elec       q    Type
REMARK                         _______ _______ _______ _____ _____    ______ ____
ROOT
ATOM      1  C   UNL     1       5.517   2.111  11.617  0.00  0.00    +0.000 C 
ATOM      2  N   UNL     1       6.457   3.182  11.308  0.00  0.00    +0.000 N 
ATOM      3  C   UNL     1       6.844   3.929  12.437  0.00  0.00    +0.000 A 
ATOM      4  C   UNL     1       7.744   4.958  12.272  0.00  0.00    +0.000 A 
ATOM      5  C   UNL     1       8.063   5.666  13.402  0.00  0.00    +0.000 A 
ATOM      6  N   UNL     1       7.539   5.410  14.613  0.00  0.00    +0.000 NA
ATOM      7  C   UNL     1       6.668   4.395  14.694  0.00  0.00    +0.000 A 
ATOM      8  N   UNL     1       6.012   4.171  15.862  0.00  0.00    +0.000 N 
ATOM      9  C   UNL     1       5.097   3.074  16.054  0.00  0.00    +0.000 C 
ATOM     10  C   UNL     1       4.197   3.614  17.168  0.00  0.00    +0.000 C 
ATOM     11  C   UNL     1       3.437   2.501  17.876  0.00  0.00    +0.000 C 
ATOM     12  C   UNL     1       5.154   4.468  18.048  0.00  0.00    +0.000 C 
ATOM     13  C   UNL     1       6.365   4.798  17.119  0.00  0.00    +0.000 C 
ATOM     14  N   UNL     1       6.331   3.640  13.639  0.00  0.00    +0.000 NA
ATOM     15  H   UNL     1       6.078   3.822  10.616  0.00  0.00    +0.000 HD
ENDROOT
BRANCH  12  16
ATOM     16  C   UNL     1       4.459   5.767  18.471  0.00  0.00    +0.000 C 
ATOM     17  C   UNL     1       4.211   6.880  17.412  0.00  0.00    +0.000 C 
ATOM     18  C   UNL     1       2.907   7.208  18.162  0.00  0.00    +0.000 C 
ATOM     19  C   UNL     1       2.920   5.759  18.692  0.00  0.00    +0.000 C 
ENDBRANCH  12  16
BRANCH  12  20
ATOM     20  O   UNL     1       5.611   3.738  19.188  0.00  0.00    +0.000 OA
ATOM     21  H   UNL     1       6.036   4.357  19.803  0.00  0.00    +0.000 HD
ENDBRANCH  12  20
TORSDOF 2
ENDMDL
MODEL 7
REMARK VINA RESULT:      -6.5      2.674      5.263
REMARK  Name = 
REMARK  4 active torsions:
REMARK  status: ('A' for Active; 'I' for Inactive)
REMARK    1  A    between atoms: C_1  and  N_2
REMARK    2  A    between atoms: C_10  and  C_11
REMARK    3  A    between atoms: C_12  and  O_13
REMARK    4  A    between atoms: C_12  and  C_14
REMARK                            x       y       z     vdW  Elec       q    Type
REMARK                         _______ _______ _______ _____ _____    ______ ____
ROOT
ATOM      1  C   UNL     1       1.900  10.823  17.773  0.00  0.00    +0.000 C 
ATOM      2  N   UNL     1       1.031  10.763  18.942  0.00  0.00    +0.000 N 
ATOM      3  C   UNL     1       1.157   9.565  19.672  0.00  0.00    +0.000 A 
ATOM      4  C   UNL     1       0.399   9.400  20.808  0.00  0.00    +0.000 A 
ATOM      5  C   UNL     1       0.545   8.204  21.461  0.00  0.00    +0.000 A 
ATOM      6  N   UNL     1       1.359   7.221  21.041  0.00  0.00    +0.000 NA
ATOM      7  C   UNL     1       2.065   7.455  19.926  0.00  0.00    +0.000 A 
ATOM      8  N   UNL     1       2.806   6.454  19.384  0.00  0.00    +0.000 N 
ATOM      9  C   UNL     1       3.633   6.629  18.217  0.00  0.00    +0.000 C 
ATOM     10  C   UNL     1       3.693   5.203  17.664  0.00  0.00    +0.000 C 
ATOM     11  C   UNL     1       4.858   5.013  16.703  0.00  0.00    +0.000 C 
ATOM     12  C   UNL     1       3.689   4.304  18.934  0.00  0.00    +0.000 C 
ATOM     13  C   UNL     1       3.097   5.207  20.062  0.00  0.00    +0.000 C 
ATOM     14  N   UNL     1       1.995   8.610  19.250  0.00  0.00    +0.000 NA
ATOM     15  H   UNL     1       0.054  10.880  18.687  0.00  0.00    +0.000 HD
ENDROOT
BRANCH  12  16
ATOM     16  C   UNL     1       2.779   3.090  18.714  0.00  0.00    +0.000 C 
ATOM     17  C   UNL     1       1.921   2.553  19.896  0.00  0.00    +0.000 C 
ATOM     18  C   UNL     1       0.842   2.192  18.859  0.00  0.00    +0.000 C 
ATOM     19  C   UNL     1       1.439   3.283  17.948  0.00  0.00    +0.000 C 
ENDBRANCH  12  16
BRANCH  12  20
ATOM     20  O   UNL     1       5.010   3.894  19.292  0.00  0.00    +0.000 OA
ATOM     21  H   UNL     1       5.582   3.981  18.513  0.00  0.00    +0.000 HD
ENDBRANCH  12  20
TORSDOF 2
ENDMDL
MODEL 8
REMARK VINA RESULT:      -6.4      2.859      4.744
REMARK  Name = 
REMARK  4 active torsions:
REMARK  status: ('A' for Active; 'I' for Inactive)
REMARK    1  A    between atoms: C_1  and  N_2
REMARK    2  A    between atoms: C_10  and  C_11
REMARK    3  A    between atoms: C_12  and  O_13
REMARK    4  A    between atoms: C_12  and  C_14
REMARK                            x       y       z     vdW  Elec       q    Type
REMARK                         _______ _______ _______ _____ _____    ______ ____
ROOT
ATOM      1  C   UNL     1       0.258   9.345  22.320  0.00  0.00    +0.000 C 
ATOM      2  N   UNL     1       0.576  10.227  21.204  0.00  0.00    +0.000 N 
ATOM      3  C   UNL     1       1.123   9.550  20.095  0.00  0.00    +0.000 A 
ATOM      4  C   UNL     1       1.448  10.276  18.972  0.00  0.00    +0.000 A 
ATOM      5  C   UNL     1       2.000   9.568  17.937  0.00  0.00    +0.000 A 
ATOM      6  N   UNL     1       2.238   8.246  17.983  0.00  0.00    +0.000 NA
ATOM      7  C   UNL     1       1.896   7.608  19.111  0.00  0.00    +0.000 A 
ATOM      8  N   UNL     1       2.229   6.300  19.263  0.00  0.00    +0.000 N 
ATOM      9  C   UNL     1       1.859   5.523  20.419  0.00  0.00    +0.000 C 
ATOM     10  C   UNL     1       2.946   4.446  20.428  0.00  0.00    +0.000 C 
ATOM     11  C   UNL     1       2.545   3.237  21.263  0.00  0.00    +0.000 C 
ATOM     12  C   UNL     1       3.232   4.183  18.922  0.00  0.00    +0.000 C 
ATOM     13  C   UNL     1       2.712   5.458  18.187  0.00  0.00    +0.000 C 
ATOM     14  N   UNL     1       1.326   8.228  20.153  0.00  0.00    +0.000 NA
ATOM     15  H   UNL     1       1.223  10.960  21.480  0.00  0.00    +0.000 HD
ENDROOT
BRANCH  12  16
ATOM     16  C   UNL     1       4.741   4.035  18.692  0.00  0.00    +0.000 C 
ATOM     17  C   UNL     1       5.331   4.319  17.281  0.00  0.00    +0.000 C 
ATOM     18  C   UNL     1       6.585   4.862  17.989  0.00  0.00    +0.000 C 
ATOM     19  C   UNL     1       5.694   5.146  19.215  0.00  0.00    +0.000 C 
ENDBRANCH  12  16
BRANCH  12  20
ATOM     20  O   UNL     1       2.527   3.035  18.446  0.00  0.00    +0.000 OA
ATOM     21  H   UNL     1       1.751   2.893  19.010  0.00  0.00    +0.000 HD
ENDBRANCH  12  20
TORSDOF 2
ENDMDL
MODEL 9
REMARK VINA RESULT:      -6.4      3.421      6.128
REMARK  Name = 
REMARK  4 active torsions:
REMARK  status: ('A' for Active; 'I' for Inactive)
REMARK    1  A    between atoms: C_1  and  N_2
REMARK    2  A    between atoms: C_10  and  C_11
REMARK    3  A    between atoms: C_12  and  O_13
REMARK    4  A    between atoms: C_12  and  C_14
REMARK                            x       y       z     vdW  Elec       q    Type
REMARK                         _______ _______ _______ _____ _____    ______ ____
ROOT
ATOM      1  C   UNL     1       1.227  12.076  18.912  0.00  0.00    +0.000 C 
ATOM      2  N   UNL     1       0.321  11.986  20.051  0.00  0.00    +0.000 N 
ATOM      3  C   UNL     1       0.325  10.720  20.670  0.00  0.00    +0.000 A 
ATOM      4  C   UNL     1      -0.478  10.518  21.768  0.00  0.00    +0.000 A 
ATOM      5  C   UNL     1      -0.452   9.260  22.311  0.00  0.00    +0.000 A 
ATOM      6  N   UNL     1       0.289   8.253  21.819  0.00  0.00    +0.000 NA
ATOM      7  C   UNL     1       1.044   8.525  20.745  0.00  0.00    +0.000 A 
ATOM      8  N   UNL     1       1.715   7.517  20.130  0.00  0.00    +0.000 N 
ATOM      9  C   UNL     1       2.588   7.725  19.002  0.00  0.00    +0.000 C 
ATOM     10  C   UNL     1       2.545   6.355  18.321  0.00  0.00    +0.000 C 
ATOM     11  C   UNL     1       3.718   6.154  17.372  0.00  0.00    +0.000 C 
ATOM     12  C   UNL     1       2.427   5.349  19.501  0.00  0.00    +0.000 C 
ATOM     13  C   UNL     1       1.880   6.193  20.694  0.00  0.00    +0.000 C 
ATOM     14  N   UNL     1       1.092   9.739  20.179  0.00  0.00    +0.000 NA
ATOM     15  H   UNL     1      -0.634  12.209  19.787  0.00  0.00    +0.000 HD
ENDROOT
BRANCH  12  16
ATOM     16  C   UNL     1       1.426   4.243  19.149  0.00  0.00    +0.000 C 
ATOM     17  C   UNL     1       1.856   3.100  18.185  0.00  0.00    +0.000 C 
ATOM     18  C   UNL     1       0.959   2.159  19.010  0.00  0.00    +0.000 C 
ATOM     19  C   UNL     1       1.136   3.130  20.195  0.00  0.00    +0.000 C 
ENDBRANCH  12  16
BRANCH  12  20
ATOM     20  O   UNL     1       3.698   4.796  19.848  0.00  0.00    +0.000 OA
ATOM     21  H   UNL     1       4.393   5.346  19.451  0.00  0.00    +0.000 HD
ENDBRANCH  12  20
TORSDOF 2
ENDMDL
