MODEL 1
REMARK VINA RESULT:      -6.6      0.000      0.000
REMARK  Name = 
REMARK  4 active torsions:
REMARK  status: ('A' for Active; 'I' for Inactive)
REMARK    1  A    between atoms: C_1  and  C_2
REMARK    2  A    between atoms: C_3  and  N_4
REMARK    3  A    between atoms: C_16  and  C_18
REMARK    4  A    between atoms: C_23  and  N_24
REMARK                            x       y       z     vdW  Elec       q    Type
REMARK                         _______ _______ _______ _____ _____    ______ ____
ROOT
ATOM      1  C   UNL     1       6.553  14.533  17.769  0.00  0.00    +0.000 C 
ATOM      2  C   UNL     1       7.363  15.134  18.918  0.00  0.00    +0.000 C 
ATOM      3  C   UNL     1       6.681  16.335  19.681  0.00  0.00    +0.000 C 
ATOM      4  C   UNL     1       7.740  17.332  20.181  0.00  0.00    +0.000 C 
ATOM      5  C   UNL     1       8.658  17.835  19.066  0.00  0.00    +0.000 C 
ATOM      6  C   UNL     1       8.954  16.793  17.985  0.00  0.00    +0.000 C 
ATOM      7  N   UNL     1       8.752  15.429  18.466  0.00  0.00    +0.000 N 
ATOM      8  C   UNL     1       9.767  14.470  18.199  0.00  0.00    +0.000 C 
ATOM      9  O   UNL     1      10.807  14.758  17.610  0.00  0.00    +0.000 OA
ENDROOT
BRANCH   3  10
ATOM     10  N   UNL     1       5.683  17.101  18.925  0.00  0.00    +0.000 N 
ATOM     11  C   UNL     1       4.330  16.862  19.074  0.00  0.00    +0.000 A 
ATOM     12  C   UNL     1       3.715  16.605  20.295  0.00  0.00    +0.000 A 
ATOM     13  C   UNL     1       2.352  16.303  20.335  0.00  0.00    +0.000 A 
ATOM     14  C   UNL     1       1.630  16.300  19.151  0.00  0.00    +0.000 A 
ATOM     15 BR   UNL     1      -0.197  15.848  19.136  0.00  0.00    +0.000 Br
ATOM     16  C   UNL     1       2.297  16.629  17.986  0.00  0.00    +0.000 A 
ATOM     17  N   UNL     1       3.624  16.906  17.928  0.00  0.00    +0.000 NA
ATOM     18  H   UNL     1       5.867  17.194  17.929  0.00  0.00    +0.000 HD
ENDBRANCH   3  10
BRANCH   8  19
ATOM     19  C   UNL     1       9.682  13.094  18.787  0.00  0.00    +0.000 A 
ATOM     20  C   UNL     1       9.502  12.052  17.847  0.00  0.00    +0.000 A 
ATOM     21  C   UNL     1       9.368  10.712  18.234  0.00  0.00    +0.000 A 
ATOM     22  C   UNL     1       9.323  10.390  19.574  0.00  0.00    +0.000 A 
ATOM     23  C   UNL     1       9.371  11.409  20.522  0.00  0.00    +0.000 A 
ATOM     24  C   UNL     1       9.548  12.765  20.151  0.00  0.00    +0.000 A 
BRANCH  24  25
ATOM     25  N   UNL     1       9.574  13.688  21.231  0.00  0.00    +0.000 N 
ATOM     26  N   UNL     1       8.563  13.879  22.118  0.00  0.00    +0.000 NA
ATOM     27  C   UNL     1       9.006  14.919  22.834  0.00  0.00    +0.000 A 
ATOM     28  C   UNL     1      10.237  15.356  22.359  0.00  0.00    +0.000 A 
ATOM     29  N   UNL     1      10.602  14.598  21.328  0.00  0.00    +0.000 NA
ENDBRANCH  24  25
ENDBRANCH   8  19
TORSDOF 3
ENDMDL
MODEL 2
REMARK VINA RESULT:      -6.5      1.843      1.962
REMARK  Name = 
REMARK  4 active torsions:
REMARK  status: ('A' for Active; 'I' for Inactive)
REMARK    1  A    between atoms: C_1  and  C_2
REMARK    2  A    between atoms: C_3  and  N_4
REMARK    3  A    between atoms: C_16  and  C_18
REMARK    4  A    between atoms: C_23  and  N_24
REMARK                            x       y       z     vdW  Elec       q    Type
REMARK                         _______ _______ _______ _____ _____    ______ ____
ROOT
ATOM      1  C   UNL     1       7.075  13.915  17.636  0.00  0.00    +0.000 C 
ATOM      2  C   UNL     1       7.415  14.627  18.945  0.00  0.00    +0.000 C 
ATOM      3  C   UNL     1       6.181  15.123  19.795  0.00  0.00    +0.000 C 
ATOM      4  C   UNL     1       6.528  16.415  20.553  0.00  0.00    +0.000 C 
ATOM      5  C   UNL     1       7.049  17.523  19.636  0.00  0.00    +0.000 C 
ATOM      6  C   UNL     1       7.878  17.015  18.455  0.00  0.00    +0.000 C 
ATOM      7  N   UNL     1       8.434  15.688  18.703  0.00  0.00    +0.000 N 
ATOM      8  C   UNL     1       9.810  15.476  18.415  0.00  0.00    +0.000 C 
ATOM      9  O   UNL     1      10.541  16.371  17.997  0.00  0.00    +0.000 OA
ENDROOT
BRANCH   3  10
ATOM     10  N   UNL     1       4.941  15.373  19.052  0.00  0.00    +0.000 N 
ATOM     11  C   UNL     1       3.807  14.614  19.269  0.00  0.00    +0.000 A 
ATOM     12  C   UNL     1       3.378  14.197  20.525  0.00  0.00    +0.000 A 
ATOM     13  C   UNL     1       2.259  13.370  20.638  0.00  0.00    +0.000 A 
ATOM     14  C   UNL     1       1.574  13.008  19.487  0.00  0.00    +0.000 A 
ATOM     15 BR   UNL     1       0.091  11.852  19.571  0.00  0.00    +0.000 Br
ATOM     16  C   UNL     1       2.022  13.514  18.282  0.00  0.00    +0.000 A 
ATOM     17  N   UNL     1       3.118  14.302  18.154  0.00  0.00    +0.000 NA
ATOM     18  H   UNL     1       5.047  15.477  18.045  0.00  0.00    +0.000 HD
ENDBRANCH   3  10
BRANCH   8  19
ATOM     19  C   UNL     1      10.470  14.181  18.779  0.00  0.00    +0.000 A 
ATOM     20  C   UNL     1      10.776  13.336  17.687  0.00  0.00    +0.000 A 
ATOM     21  C   UNL     1      11.361  12.075  17.858  0.00  0.00    +0.000 A 
ATOM     22  C   UNL     1      11.576  11.589  19.131  0.00  0.00    +0.000 A 
ATOM     23  C   UNL     1      11.168  12.346  20.226  0.00  0.00    +0.000 A 
ATOM     24  C   UNL     1      10.612  13.641  20.074  0.00  0.00    +0.000 A 
BRANCH  24  25
ATOM     25  N   UNL     1      10.243  14.286  21.285  0.00  0.00    +0.000 N 
ATOM     26  N   UNL     1       9.193  13.931  22.069  0.00  0.00    +0.000 NA
ATOM     27  C   UNL     1       9.184  14.902  22.991  0.00  0.00    +0.000 A 
ATOM     28  C   UNL     1      10.187  15.830  22.736  0.00  0.00    +0.000 A 
ATOM     29  N   UNL     1      10.855  15.465  21.645  0.00  0.00    +0.000 NA
ENDBRANCH  24  25
ENDBRANCH   8  19
TORSDOF 3
ENDMDL
MODEL 3
REMARK VINA RESULT:      -6.4      8.141     11.697
REMARK  Name = 
REMARK  4 active torsions:
REMARK  status: ('A' for Active; 'I' for Inactive)
REMARK    1  A    between atoms: C_1  and  C_2
REMARK    2  A    between atoms: C_3  and  N_4
REMARK    3  A    between atoms: C_16  and  C_18
REMARK    4  A    between atoms: C_23  and  N_24
REMARK                            x       y       z     vdW  Elec       q    Type
REMARK                         _______ _______ _______ _____ _____    ______ ____
ROOT
ATOM      1  C   UNL     1      -0.637   9.587  20.823  0.00  0.00    +0.000 C 
ATOM      2  C   UNL     1      -0.285  10.038  19.406  0.00  0.00    +0.000 C 
ATOM      3  C   UNL     1       0.862   9.221  18.694  0.00  0.00    +0.000 C 
ATOM      4  C   UNL     1       1.669  10.128  17.750  0.00  0.00    +0.000 C 
ATOM      5  C   UNL     1       2.225  11.370  18.448  0.00  0.00    +0.000 C 
ATOM      6  C   UNL     1       1.317  11.927  19.547  0.00  0.00    +0.000 C 
ATOM      7  N   UNL     1      -0.073  11.512  19.374  0.00  0.00    +0.000 N 
ATOM      8  C   UNL     1      -1.084  12.505  19.481  0.00  0.00    +0.000 C 
ATOM      9  O   UNL     1      -0.825  13.690  19.682  0.00  0.00    +0.000 OA
ENDROOT
BRANCH   3  10
ATOM     10  N   UNL     1       1.822   8.547  19.576  0.00  0.00    +0.000 N 
ATOM     11  C   UNL     1       2.233   7.250  19.334  0.00  0.00    +0.000 A 
ATOM     12  C   UNL     1       2.516   6.747  18.068  0.00  0.00    +0.000 A 
ATOM     13  C   UNL     1       2.855   5.401  17.915  0.00  0.00    +0.000 A 
ATOM     14  C   UNL     1       2.935   4.598  19.043  0.00  0.00    +0.000 A 
ATOM     15 BR   UNL     1       3.334   2.764  18.895  0.00  0.00    +0.000 Br
ATOM     16  C   UNL     1       2.703   5.184  20.273  0.00  0.00    +0.000 A 
ATOM     17  N   UNL     1       2.355   6.485  20.436  0.00  0.00    +0.000 NA
ATOM     18  H   UNL     1       1.628   8.622  20.572  0.00  0.00    +0.000 HD
ENDBRANCH   3  10
BRANCH   8  19
ATOM     19  C   UNL     1      -2.512  12.169  19.175  0.00  0.00    +0.000 A 
ATOM     20  C   UNL     1      -2.752  11.715  17.857  0.00  0.00    +0.000 A 
ATOM     21  C   UNL     1      -4.035  11.394  17.399  0.00  0.00    +0.000 A 
ATOM     22  C   UNL     1      -5.125  11.600  18.220  0.00  0.00    +0.000 A 
ATOM     23  C   UNL     1      -4.932  12.164  19.478  0.00  0.00    +0.000 A 
ATOM     24  C   UNL     1      -3.637  12.458  19.974  0.00  0.00    +0.000 A 
BRANCH  24  25
ATOM     25  N   UNL     1      -3.604  13.032  21.273  0.00  0.00    +0.000 N 
ATOM     26  N   UNL     1      -3.665  12.334  22.436  0.00  0.00    +0.000 NA
ATOM     27  C   UNL     1      -3.738  13.308  23.350  0.00  0.00    +0.000 A 
ATOM     28  C   UNL     1      -3.754  14.556  22.739  0.00  0.00    +0.000 A 
ATOM     29  N   UNL     1      -3.691  14.398  21.419  0.00  0.00    +0.000 NA
ENDBRANCH  24  25
ENDBRANCH   8  19
TORSDOF 3
ENDMDL
MODEL 4
REMARK VINA RESULT:      -6.4      6.553      9.264
REMARK  Name = 
REMARK  4 active torsions:
REMARK  status: ('A' for Active; 'I' for Inactive)
REMARK    1  A    between atoms: C_1  and  C_2
REMARK    2  A    between atoms: C_3  and  N_4
REMARK    3  A    between atoms: C_16  and  C_18
REMARK    4  A    between atoms: C_23  and  N_24
REMARK                            x       y       z     vdW  Elec       q    Type
REMARK                         _______ _______ _______ _____ _____    ______ ____
ROOT
ATOM      1  C   UNL     1       2.569  12.666  18.156  0.00  0.00    +0.000 C 
ATOM      2  C   UNL     1       1.435  12.550  19.175  0.00  0.00    +0.000 C 
ATOM      3  C   UNL     1       0.868  11.095  19.404  0.00  0.00    +0.000 C 
ATOM      4  C   UNL     1      -0.634  11.143  19.731  0.00  0.00    +0.000 C 
ATOM      5  C   UNL     1      -1.450  11.896  18.680  0.00  0.00    +0.000 C 
ATOM      6  C   UNL     1      -0.709  13.073  18.042  0.00  0.00    +0.000 C 
ATOM      7  N   UNL     1       0.379  13.560  18.885  0.00  0.00    +0.000 N 
ATOM      8  C   UNL     1       0.481  14.962  19.100  0.00  0.00    +0.000 C 
ATOM      9  O   UNL     1      -0.324  15.761  18.627  0.00  0.00    +0.000 OA
ENDROOT
BRANCH   3  10
ATOM     10  N   UNL     1       1.042  10.149  18.295  0.00  0.00    +0.000 N 
ATOM     11  C   UNL     1       1.721   8.958  18.467  0.00  0.00    +0.000 A 
ATOM     12  C   UNL     1       1.604   8.151  19.594  0.00  0.00    +0.000 A 
ATOM     13  C   UNL     1       2.388   7.000  19.708  0.00  0.00    +0.000 A 
ATOM     14  C   UNL     1       3.246   6.668  18.670  0.00  0.00    +0.000 A 
ATOM     15 BR   UNL     1       4.366   5.159  18.791  0.00  0.00    +0.000 Br
ATOM     16  C   UNL     1       3.260   7.484  17.555  0.00  0.00    +0.000 A 
ATOM     17  N   UNL     1       2.519   8.614  17.437  0.00  0.00    +0.000 NA
ATOM     18  H   UNL     1       1.360  10.556  17.419  0.00  0.00    +0.000 HD
ENDBRANCH   3  10
BRANCH   8  19
ATOM     19  C   UNL     1       1.488  15.509  20.066  0.00  0.00    +0.000 A 
ATOM     20  C   UNL     1       2.686  15.982  19.480  0.00  0.00    +0.000 A 
ATOM     21  C   UNL     1       3.742  16.491  20.245  0.00  0.00    +0.000 A 
ATOM     22  C   UNL     1       3.664  16.462  21.622  0.00  0.00    +0.000 A 
ATOM     23  C   UNL     1       2.550  15.886  22.228  0.00  0.00    +0.000 A 
ATOM     24  C   UNL     1       1.454  15.403  21.471  0.00  0.00    +0.000 A 
BRANCH  24  25
ATOM     25  N   UNL     1       0.394  14.843  22.233  0.00  0.00    +0.000 N 
ATOM     26  N   UNL     1       0.169  13.513  22.397  0.00  0.00    +0.000 NA
ATOM     27  C   UNL     1      -0.993  13.501  23.062  0.00  0.00    +0.000 A 
ATOM     28  C   UNL     1      -1.462  14.794  23.257  0.00  0.00    +0.000 A 
ATOM     29  N   UNL     1      -0.605  15.657  22.718  0.00  0.00    +0.000 NA
ENDBRANCH  24  25
ENDBRANCH   8  19
TORSDOF 3
ENDMDL
MODEL 5
REMARK VINA RESULT:      -6.2      7.803     11.094
REMARK  Name = 
REMARK  4 active torsions:
REMARK  status: ('A' for Active; 'I' for Inactive)
REMARK    1  A    between atoms: C_1  and  C_2
REMARK    2  A    between atoms: C_3  and  N_4
REMARK    3  A    between atoms: C_16  and  C_18
REMARK    4  A    between atoms: C_23  and  N_24
REMARK                            x       y       z     vdW  Elec       q    Type
REMARK                         _______ _______ _______ _____ _____    ______ ____
ROOT
ATOM      1  C   UNL     1      -3.432  13.398  20.563  0.00  0.00    +0.000 C 
ATOM      2  C   UNL     1      -3.657  12.794  21.949  0.00  0.00    +0.000 C 
ATOM      3  C   UNL     1      -5.111  12.957  22.539  0.00  0.00    +0.000 C 
ATOM      4  C   UNL     1      -5.064  13.091  24.070  0.00  0.00    +0.000 C 
ATOM      5  C   UNL     1      -4.145  14.219  24.542  0.00  0.00    +0.000 C 
ATOM      6  C   UNL     1      -2.913  14.429  23.660  0.00  0.00    +0.000 C 
ATOM      7  N   UNL     1      -2.583  13.238  22.883  0.00  0.00    +0.000 N 
ATOM      8  C   UNL     1      -1.230  12.803  22.869  0.00  0.00    +0.000 C 
ATOM      9  O   UNL     1      -0.348  13.374  23.506  0.00  0.00    +0.000 OA
ENDROOT
BRANCH   3  10
ATOM     10  N   UNL     1      -5.896  14.087  22.027  0.00  0.00    +0.000 N 
ATOM     11  C   UNL     1      -6.360  14.108  20.726  0.00  0.00    +0.000 A 
ATOM     12  C   UNL     1      -6.883  12.999  20.068  0.00  0.00    +0.000 A 
ATOM     13  C   UNL     1      -7.261  13.102  18.728  0.00  0.00    +0.000 A 
ATOM     14  C   UNL     1      -7.137  14.326  18.088  0.00  0.00    +0.000 A 
ATOM     15 BR   UNL     1      -7.578  14.512  16.267  0.00  0.00    +0.000 Br
ATOM     16  C   UNL     1      -6.670  15.398  18.825  0.00  0.00    +0.000 A 
ATOM     17  N   UNL     1      -6.282  15.310  20.122  0.00  0.00    +0.000 NA
ATOM     18  H   UNL     1      -5.517  15.009  22.229  0.00  0.00    +0.000 HD
ENDBRANCH   3  10
BRANCH   8  19
ATOM     19  C   UNL     1      -0.856  11.511  22.206  0.00  0.00    +0.000 A 
ATOM     20  C   UNL     1      -0.879  10.376  23.051  0.00  0.00    +0.000 A 
ATOM     21  C   UNL     1      -0.521   9.101  22.597  0.00  0.00    +0.000 A 
ATOM     22  C   UNL     1      -0.048   8.941  21.311  0.00  0.00    +0.000 A 
ATOM     23  C   UNL     1       0.104  10.061  20.498  0.00  0.00    +0.000 A 
ATOM     24  C   UNL     1      -0.291  11.353  20.925  0.00  0.00    +0.000 A 
BRANCH  24  25
ATOM     25  N   UNL     1      -0.070  12.394  19.983  0.00  0.00    +0.000 N 
ATOM     26  N   UNL     1      -0.715  12.518  18.793  0.00  0.00    +0.000 NA
ATOM     27  C   UNL     1      -0.073  13.548  18.229  0.00  0.00    +0.000 A 
ATOM     28  C   UNL     1       0.952  14.001  19.052  0.00  0.00    +0.000 A 
ATOM     29  N   UNL     1       0.980  13.265  20.159  0.00  0.00    +0.000 NA
ENDBRANCH  24  25
ENDBRANCH   8  19
TORSDOF 3
ENDMDL
MODEL 6
REMARK VINA RESULT:      -6.1      5.651      8.913
REMARK  Name = 
REMARK  4 active torsions:
REMARK  status: ('A' for Active; 'I' for Inactive)
REMARK    1  A    between atoms: C_1  and  C_2
REMARK    2  A    between atoms: C_3  and  N_4
REMARK    3  A    between atoms: C_16  and  C_18
REMARK    4  A    between atoms: C_23  and  N_24
REMARK                            x       y       z     vdW  Elec       q    Type
REMARK                         _______ _______ _______ _____ _____    ______ ____
ROOT
ATOM      1  C   UNL     1      -0.534  13.993  18.576  0.00  0.00    +0.000 C 
ATOM      2  C   UNL     1       0.162  13.500  19.845  0.00  0.00    +0.000 C 
ATOM      3  C   UNL     1      -0.386  12.147  20.443  0.00  0.00    +0.000 C 
ATOM      4  C   UNL     1      -0.266  12.143  21.976  0.00  0.00    +0.000 C 
ATOM      5  C   UNL     1      -0.940  13.350  22.630  0.00  0.00    +0.000 C 
ATOM      6  C   UNL     1      -0.857  14.634  21.802  0.00  0.00    +0.000 C 
ATOM      7  N   UNL     1       0.245  14.602  20.845  0.00  0.00    +0.000 N 
ATOM      8  C   UNL     1       1.098  15.736  20.771  0.00  0.00    +0.000 C 
ATOM      9  O   UNL     1       0.955  16.717  21.498  0.00  0.00    +0.000 OA
ENDROOT
BRANCH   3  10
ATOM     10  N   UNL     1      -1.776  11.807  20.115  0.00  0.00    +0.000 N 
ATOM     11  C   UNL     1      -2.117  11.298  18.877  0.00  0.00    +0.000 A 
ATOM     12  C   UNL     1      -1.360  10.356  18.187  0.00  0.00    +0.000 A 
ATOM     13  C   UNL     1      -1.750   9.954  16.908  0.00  0.00    +0.000 A 
ATOM     14  C   UNL     1      -2.911  10.482  16.363  0.00  0.00    +0.000 A 
ATOM     15 BR   UNL     1      -3.457  10.019  14.622  0.00  0.00    +0.000 Br
ATOM     16  C   UNL     1      -3.644  11.363  17.135  0.00  0.00    +0.000 A 
ATOM     17  N   UNL     1      -3.270  11.777  18.371  0.00  0.00    +0.000 NA
ATOM     18  H   UNL     1      -2.466  12.516  20.351  0.00  0.00    +0.000 HD
ENDBRANCH   3  10
BRANCH   8  19
ATOM     19  C   UNL     1       2.326  15.706  19.912  0.00  0.00    +0.000 A 
ATOM     20  C   UNL     1       3.445  15.059  20.488  0.00  0.00    +0.000 A 
ATOM     21  C   UNL     1       4.679  14.976  19.832  0.00  0.00    +0.000 A 
ATOM     22  C   UNL     1       4.853  15.612  18.621  0.00  0.00    +0.000 A 
ATOM     23  C   UNL     1       3.807  16.363  18.089  0.00  0.00    +0.000 A 
ATOM     24  C   UNL     1       2.539  16.425  18.718  0.00  0.00    +0.000 A 
BRANCH  24  25
ATOM     25  N   UNL     1       1.576  17.233  18.056  0.00  0.00    +0.000 N 
ATOM     26  N   UNL     1       0.232  17.154  18.240  0.00  0.00    +0.000 NA
ATOM     27  C   UNL     1      -0.232  18.001  17.313  0.00  0.00    +0.000 A 
ATOM     28  C   UNL     1       0.813  18.543  16.574  0.00  0.00    +0.000 A 
ATOM     29  N   UNL     1       1.966  18.050  17.019  0.00  0.00    +0.000 NA
ENDBRANCH  24  25
ENDBRANCH   8  19
TORSDOF 3
ENDMDL
MODEL 7
REMARK VINA RESULT:      -6.1      8.407     13.042
REMARK  Name = 
REMARK  4 active torsions:
REMARK  status: ('A' for Active; 'I' for Inactive)
REMARK    1  A    between atoms: C_1  and  C_2
REMARK    2  A    between atoms: C_3  and  N_4
REMARK    3  A    between atoms: C_16  and  C_18
REMARK    4  A    between atoms: C_23  and  N_24
REMARK                            x       y       z     vdW  Elec       q    Type
REMARK                         _______ _______ _______ _____ _____    ______ ____
ROOT
ATOM      1  C   UNL     1      -2.824  11.858  19.297  0.00  0.00    +0.000 C 
ATOM      2  C   UNL     1      -2.860  13.109  20.175  0.00  0.00    +0.000 C 
ATOM      3  C   UNL     1      -1.472  13.821  20.408  0.00  0.00    +0.000 C 
ATOM      4  C   UNL     1      -1.420  14.467  21.802  0.00  0.00    +0.000 C 
ATOM      5  C   UNL     1      -1.731  13.480  22.928  0.00  0.00    +0.000 C 
ATOM      6  C   UNL     1      -2.762  12.413  22.554  0.00  0.00    +0.000 C 
ATOM      7  N   UNL     1      -3.603  12.829  21.436  0.00  0.00    +0.000 N 
ATOM      8  C   UNL     1      -5.009  12.655  21.558  0.00  0.00    +0.000 C 
ATOM      9  O   UNL     1      -5.531  12.199  22.573  0.00  0.00    +0.000 OA
ENDROOT
BRANCH   3  10
ATOM     10  N   UNL     1      -0.279  12.976  20.274  0.00  0.00    +0.000 N 
ATOM     11  C   UNL     1       0.917  13.489  19.810  0.00  0.00    +0.000 A 
ATOM     12  C   UNL     1       1.417  14.739  20.163  0.00  0.00    +0.000 A 
ATOM     13  C   UNL     1       2.601  15.201  19.585  0.00  0.00    +0.000 A 
ATOM     14  C   UNL     1       3.275  14.384  18.690  0.00  0.00    +0.000 A 
ATOM     15 BR   UNL     1       4.846  14.974  17.837  0.00  0.00    +0.000 Br
ATOM     16  C   UNL     1       2.750  13.130  18.438  0.00  0.00    +0.000 A 
ATOM     17  N   UNL     1       1.592  12.674  18.978  0.00  0.00    +0.000 NA
ATOM     18  H   UNL     1      -0.425  12.083  19.810  0.00  0.00    +0.000 HD
ENDBRANCH   3  10
BRANCH   8  19
ATOM     19  C   UNL     1      -5.933  13.191  20.506  0.00  0.00    +0.000 A 
ATOM     20  C   UNL     1      -5.924  14.598  20.361  0.00  0.00    +0.000 A 
ATOM     21  C   UNL     1      -6.755  15.260  19.448  0.00  0.00    +0.000 A 
ATOM     22  C   UNL     1      -7.677  14.540  18.718  0.00  0.00    +0.000 A 
ATOM     23  C   UNL     1      -7.795  13.169  18.932  0.00  0.00    +0.000 A 
ATOM     24  C   UNL     1      -6.936  12.476  19.821  0.00  0.00    +0.000 A 
BRANCH  24  25
ATOM     25  N   UNL     1      -7.182  11.081  19.933  0.00  0.00    +0.000 N 
ATOM     26  N   UNL     1      -7.761  10.475  21.002  0.00  0.00    +0.000 NA
ATOM     27  C   UNL     1      -7.645   9.179  20.692  0.00  0.00    +0.000 A 
ATOM     28  C   UNL     1      -6.981   9.020  19.481  0.00  0.00    +0.000 A 
ATOM     29  N   UNL     1      -6.662  10.217  18.997  0.00  0.00    +0.000 NA
ENDBRANCH  24  25
ENDBRANCH   8  19
TORSDOF 3
ENDMDL
MODEL 8
REMARK VINA RESULT:      -6.1      8.295     13.013
REMARK  Name = 
REMARK  4 active torsions:
REMARK  status: ('A' for Active; 'I' for Inactive)
REMARK    1  A    between atoms: C_1  and  C_2
REMARK    2  A    between atoms: C_3  and  N_4
REMARK    3  A    between atoms: C_16  and  C_18
REMARK    4  A    between atoms: C_23  and  N_24
REMARK                            x       y       z     vdW  Elec       q    Type
REMARK                         _______ _______ _______ _____ _____    ______ ____
ROOT
ATOM      1  C   UNL     1      -3.001  12.170  19.703  0.00  0.00    +0.000 C 
ATOM      2  C   UNL     1      -2.841  13.307  20.713  0.00  0.00    +0.000 C 
ATOM      3  C   UNL     1      -1.382  13.893  20.856  0.00  0.00    +0.000 C 
ATOM      4  C   UNL     1      -1.126  14.363  22.298  0.00  0.00    +0.000 C 
ATOM      5  C   UNL     1      -1.388  13.272  23.337  0.00  0.00    +0.000 C 
ATOM      6  C   UNL     1      -2.535  12.327  22.971  0.00  0.00    +0.000 C 
ATOM      7  N   UNL     1      -3.460  12.929  22.015  0.00  0.00    +0.000 N 
ATOM      8  C   UNL     1      -4.852  12.835  22.282  0.00  0.00    +0.000 C 
ATOM      9  O   UNL     1      -5.294  12.297  23.295  0.00  0.00    +0.000 OA
ENDROOT
BRANCH   3  10
ATOM     10  N   UNL     1      -0.282  12.993  20.489  0.00  0.00    +0.000 N 
ATOM     11  C   UNL     1       0.912  13.482  19.995  0.00  0.00    +0.000 A 
ATOM     12  C   UNL     1       1.546  14.622  20.479  0.00  0.00    +0.000 A 
ATOM     13  C   UNL     1       2.714  15.079  19.866  0.00  0.00    +0.000 A 
ATOM     14  C   UNL     1       3.238  14.361  18.801  0.00  0.00    +0.000 A 
ATOM     15 BR   UNL     1       4.780  14.958  17.901  0.00  0.00    +0.000 Br
ATOM     16  C   UNL     1       2.588  13.203  18.419  0.00  0.00    +0.000 A 
ATOM     17  N   UNL     1       1.443  12.756  18.992  0.00  0.00    +0.000 NA
ATOM     18  H   UNL     1      -0.544  12.195  19.915  0.00  0.00    +0.000 HD
ENDBRANCH   3  10
BRANCH   8  19
ATOM     19  C   UNL     1      -5.841  13.552  21.413  0.00  0.00    +0.000 A 
ATOM     20  C   UNL     1      -5.995  14.931  21.693  0.00  0.00    +0.000 A 
ATOM     21  C   UNL     1      -6.905  15.737  20.997  0.00  0.00    +0.000 A 
ATOM     22  C   UNL     1      -7.746  15.169  20.063  0.00  0.00    +0.000 A 
ATOM     23  C   UNL     1      -7.703  13.792  19.857  0.00  0.00    +0.000 A 
ATOM     24  C   UNL     1      -6.762  12.966  20.522  0.00  0.00    +0.000 A 
BRANCH  24  25
ATOM     25  N   UNL     1      -6.846  11.583  20.209  0.00  0.00    +0.000 N 
ATOM     26  N   UNL     1      -6.492  11.030  19.020  0.00  0.00    +0.000 NA
ATOM     27  C   UNL     1      -6.877   9.757  19.172  0.00  0.00    +0.000 A 
ATOM     28  C   UNL     1      -7.477   9.569  20.411  0.00  0.00    +0.000 A 
ATOM     29  N   UNL     1      -7.484  10.723  21.073  0.00  0.00    +0.000 NA
ENDBRANCH  24  25
ENDBRANCH   8  19
TORSDOF 3
ENDMDL
MODEL 9
REMARK VINA RESULT:      -6.1      9.130     13.587
REMARK  Name = 
REMARK  4 active torsions:
REMARK  status: ('A' for Active; 'I' for Inactive)
REMARK    1  A    between atoms: C_1  and  C_2
REMARK    2  A    between atoms: C_3  and  N_4
REMARK    3  A    between atoms: C_16  and  C_18
REMARK    4  A    between atoms: C_23  and  N_24
REMARK                            x       y       z     vdW  Elec       q    Type
REMARK                         _______ _______ _______ _____ _____    ______ ____
ROOT
ATOM      1  C   UNL     1      -3.435  12.370  19.250  0.00  0.00    +0.000 C 
ATOM      2  C   UNL     1      -3.768  11.088  18.487  0.00  0.00    +0.000 C 
ATOM      3  C   UNL     1      -2.541  10.344  17.830  0.00  0.00    +0.000 C 
ATOM      4  C   UNL     1      -2.963   9.647  16.527  0.00  0.00    +0.000 C 
ATOM      5  C   UNL     1      -3.631  10.596  15.531  0.00  0.00    +0.000 C 
ATOM      6  C   UNL     1      -4.473  11.694  16.186  0.00  0.00    +0.000 C 
ATOM      7  N   UNL     1      -4.891  11.333  17.538  0.00  0.00    +0.000 N 
ATOM      8  C   UNL     1      -6.255  11.526  17.888  0.00  0.00    +0.000 C 
ATOM      9  O   UNL     1      -7.086  11.953  17.090  0.00  0.00    +0.000 OA
ENDROOT
BRANCH   3  10
ATOM     10  N   UNL     1      -1.370  11.174  17.521  0.00  0.00    +0.000 N 
ATOM     11  C   UNL     1      -0.665  11.822  18.517  0.00  0.00    +0.000 A 
ATOM     12  C   UNL     1      -0.371  11.259  19.755  0.00  0.00    +0.000 A 
ATOM     13  C   UNL     1       0.285  12.019  20.725  0.00  0.00    +0.000 A 
ATOM     14  C   UNL     1       0.662  13.318  20.418  0.00  0.00    +0.000 A 
ATOM     15 BR   UNL     1       1.500  14.409  21.703  0.00  0.00    +0.000 Br
ATOM     16  C   UNL     1       0.393  13.786  19.146  0.00  0.00    +0.000 A 
ATOM     17  N   UNL     1      -0.259  13.066  18.199  0.00  0.00    +0.000 NA
ATOM     18  H   UNL     1      -1.492  11.835  16.757  0.00  0.00    +0.000 HD
ENDBRANCH   3  10
BRANCH   8  19
ATOM     19  C   UNL     1      -6.773  11.045  19.210  0.00  0.00    +0.000 A 
ATOM     20  C   UNL     1      -7.053   9.660  19.276  0.00  0.00    +0.000 A 
ATOM     21  C   UNL     1      -7.577   9.058  20.427  0.00  0.00    +0.000 A 
ATOM     22  C   UNL     1      -7.916   9.839  21.513  0.00  0.00    +0.000 A 
ATOM     23  C   UNL     1      -7.768  11.221  21.429  0.00  0.00    +0.000 A 
ATOM     24  C   UNL     1      -7.202  11.844  20.289  0.00  0.00    +0.000 A 
BRANCH  24  25
ATOM     25  N   UNL     1      -7.121  13.261  20.354  0.00  0.00    +0.000 N 
ATOM     26  N   UNL     1      -7.916  14.120  19.665  0.00  0.00    +0.000 NA
ATOM     27  C   UNL     1      -7.368  15.307  19.951  0.00  0.00    +0.000 A 
ATOM     28  C   UNL     1      -6.252  15.151  20.764  0.00  0.00    +0.000 A 
ATOM     29  N   UNL     1      -6.069  13.857  21.012  0.00  0.00    +0.000 NA
ENDBRANCH  24  25
ENDBRANCH   8  19
TORSDOF 3
ENDMDL
