MODEL 1
REMARK VINA RESULT:      -8.3      0.000      0.000
REMARK  Name = 
REMARK  5 active torsions:
REMARK  status: ('A' for Active; 'I' for Inactive)
REMARK    1  A    between atoms: C_1  and  C_2
REMARK    2  A    between atoms: C_2  and  C_3
REMARK    3  A    between atoms: C_2  and  N_4
REMARK    4  A    between atoms: C_8  and  C_9
REMARK    5  A    between atoms: C_21  and  C_22
REMARK                            x       y       z     vdW  Elec       q    Type
REMARK                         _______ _______ _______ _____ _____    ______ ____
ROOT
ATOM      1  N   UNL     1       5.495   5.775  16.946  0.00  0.00    +0.000 N 
ATOM      2  N   UNL     1       5.656   6.941  16.280  0.00  0.00    +0.000 NA
ATOM      3  C   UNL     1       4.622   7.684  16.696  0.00  0.00    +0.000 A 
ATOM      4  C   UNL     1       3.762   7.017  17.612  0.00  0.00    +0.000 A 
ATOM      5  C   UNL     1       2.565   7.288  18.346  0.00  0.00    +0.000 A 
ATOM      6  C   UNL     1       2.149   6.296  19.233  0.00  0.00    +0.000 A 
ATOM      7  C   UNL     1       2.881   5.097  19.318  0.00  0.00    +0.000 A 
ATOM      8  N   UNL     1       3.981   4.793  18.581  0.00  0.00    +0.000 NA
ATOM      9  C   UNL     1       4.388   5.785  17.772  0.00  0.00    +0.000 A 
ENDROOT
BRANCH   5  10
ATOM     10  C   UNL     1       1.936   8.644  18.218  0.00  0.00    +0.000 C 
ATOM     11  O   UNL     1       1.766   9.022  17.059  0.00  0.00    +0.000 OA
ATOM     12  N   UNL     1       1.673   9.561  19.240  0.00  0.00    +0.000 N 
ATOM     13  C   UNL     1       1.421  10.957  18.800  0.00  0.00    +0.000 C 
ATOM     14  C   UNL     1       1.350  11.785  20.065  0.00  0.00    +0.000 C 
ATOM     15  C   UNL     1       0.703  10.761  20.928  0.00  0.00    +0.000 A 
ATOM     16  C   UNL     1      -0.196  10.984  21.957  0.00  0.00    +0.000 A 
ATOM     17  C   UNL     1      -0.666   9.869  22.616  0.00  0.00    +0.000 A 
ATOM     18  C   UNL     1      -0.187   8.613  22.224  0.00  0.00    +0.000 A 
ATOM     19  N   UNL     1       0.640   8.370  21.159  0.00  0.00    +0.000 NA
ATOM     20  C   UNL     1       1.047   9.460  20.507  0.00  0.00    +0.000 A 
ENDBRANCH   5  10
BRANCH   7  21
ATOM     21  C   UNL     1       2.519   4.014  20.250  0.00  0.00    +0.000 A 
ATOM     22  C   UNL     1       1.329   3.855  20.944  0.00  0.00    +0.000 A 
ATOM     23  C   UNL     1       1.304   2.674  21.742  0.00  0.00    +0.000 A 
ATOM     24  C   UNL     1       2.466   1.950  21.616  0.00  0.00    +0.000 A 
ATOM     25  S   UNL     1       3.572   2.689  20.544  0.00  0.00    +0.000 S 
ENDBRANCH   7  21
BRANCH   1  27
ATOM     26  C   UNL     1       6.930   4.673  15.262  0.00  0.00    +0.000 C 
ATOM     27  C   UNL     1       6.414   4.659  16.704  0.00  0.00    +0.000 C 
ATOM     28  C   UNL     1       7.618   4.604  17.660  0.00  0.00    +0.000 C 
ENDBRANCH   1  27
TORSDOF 3
ENDMDL
MODEL 2
REMARK VINA RESULT:      -7.6      3.373      7.811
REMARK  Name = 
REMARK  5 active torsions:
REMARK  status: ('A' for Active; 'I' for Inactive)
REMARK    1  A    between atoms: C_1  and  C_2
REMARK    2  A    between atoms: C_2  and  C_3
REMARK    3  A    between atoms: C_2  and  N_4
REMARK    4  A    between atoms: C_8  and  C_9
REMARK    5  A    between atoms: C_21  and  C_22
REMARK                            x       y       z     vdW  Elec       q    Type
REMARK                         _______ _______ _______ _____ _____    ______ ____
ROOT
ATOM      1  N   UNL     1      -0.105  10.710  21.345  0.00  0.00    +0.000 N 
ATOM      2  N   UNL     1       1.062  10.345  21.920  0.00  0.00    +0.000 NA
ATOM      3  C   UNL     1       1.692   9.670  20.949  0.00  0.00    +0.000 A 
ATOM      4  C   UNL     1       0.946   9.561  19.743  0.00  0.00    +0.000 A 
ATOM      5  C   UNL     1       1.092   8.983  18.444  0.00  0.00    +0.000 A 
ATOM      6  C   UNL     1       0.071   9.249  17.533  0.00  0.00    +0.000 A 
ATOM      7  C   UNL     1      -1.038  10.010  17.945  0.00  0.00    +0.000 A 
ATOM      8  N   UNL     1      -1.229  10.512  19.193  0.00  0.00    +0.000 NA
ATOM      9  C   UNL     1      -0.208  10.282  20.036  0.00  0.00    +0.000 A 
ENDROOT
BRANCH   5  10
ATOM     10  C   UNL     1       2.369   8.265  18.118  0.00  0.00    +0.000 C 
ATOM     11  O   UNL     1       3.249   8.979  17.638  0.00  0.00    +0.000 OA
ATOM     12  N   UNL     1       2.605   6.887  18.154  0.00  0.00    +0.000 N 
ATOM     13  C   UNL     1       3.805   6.422  17.413  0.00  0.00    +0.000 C 
ATOM     14  C   UNL     1       3.749   4.911  17.438  0.00  0.00    +0.000 C 
ATOM     15  C   UNL     1       3.157   4.763  18.794  0.00  0.00    +0.000 A 
ATOM     16  C   UNL     1       3.392   3.743  19.701  0.00  0.00    +0.000 A 
ATOM     17  C   UNL     1       2.727   3.825  20.905  0.00  0.00    +0.000 A 
ATOM     18  C   UNL     1       1.852   4.899  21.111  0.00  0.00    +0.000 A 
ATOM     19  N   UNL     1       1.669   5.954  20.258  0.00  0.00    +0.000 NA
ATOM     20  C   UNL     1       2.358   5.879  19.118  0.00  0.00    +0.000 A 
ENDBRANCH   5  10
BRANCH   7  21
ATOM     21  C   UNL     1      -2.143  10.356  17.033  0.00  0.00    +0.000 A 
ATOM     22  C   UNL     1      -2.368   9.874  15.752  0.00  0.00    +0.000 A 
ATOM     23  C   UNL     1      -3.551  10.402  15.158  0.00  0.00    +0.000 A 
ATOM     24  C   UNL     1      -4.212  11.253  16.012  0.00  0.00    +0.000 A 
ATOM     25  S   UNL     1      -3.411  11.410  17.512  0.00  0.00    +0.000 S 
ENDBRANCH   7  21
BRANCH   1  27
ATOM     26  C   UNL     1      -1.438  10.683  23.426  0.00  0.00    +0.000 C 
ATOM     27  C   UNL     1      -1.116  11.427  22.127  0.00  0.00    +0.000 C 
ATOM     28  C   UNL     1      -0.746  12.881  22.469  0.00  0.00    +0.000 C 
ENDBRANCH   1  27
TORSDOF 3
ENDMDL
MODEL 3
REMARK VINA RESULT:      -7.5      4.065      7.081
REMARK  Name = 
REMARK  5 active torsions:
REMARK  status: ('A' for Active; 'I' for Inactive)
REMARK    1  A    between atoms: C_1  and  C_2
REMARK    2  A    between atoms: C_2  and  C_3
REMARK    3  A    between atoms: C_2  and  N_4
REMARK    4  A    between atoms: C_8  and  C_9
REMARK    5  A    between atoms: C_21  and  C_22
REMARK                            x       y       z     vdW  Elec       q    Type
REMARK                         _______ _______ _______ _____ _____    ______ ____
ROOT
ATOM      1  N   UNL     1       1.529  13.918  18.885  0.00  0.00    +0.000 N 
ATOM      2  N   UNL     1       0.633  14.923  19.005  0.00  0.00    +0.000 NA
ATOM      3  C   UNL     1      -0.545  14.287  19.062  0.00  0.00    +0.000 A 
ATOM      4  C   UNL     1      -0.444  12.873  18.956  0.00  0.00    +0.000 A 
ATOM      5  C   UNL     1      -1.313  11.737  18.945  0.00  0.00    +0.000 A 
ATOM      6  C   UNL     1      -0.693  10.488  18.918  0.00  0.00    +0.000 A 
ATOM      7  C   UNL     1       0.711  10.417  18.856  0.00  0.00    +0.000 A 
ATOM      8  N   UNL     1       1.551  11.484  18.798  0.00  0.00    +0.000 NA
ATOM      9  C   UNL     1       0.930  12.673  18.874  0.00  0.00    +0.000 A 
ENDROOT
BRANCH   5  10
ATOM     10  C   UNL     1      -2.788  11.960  19.101  0.00  0.00    +0.000 C 
ATOM     11  O   UNL     1      -3.469  11.556  18.159  0.00  0.00    +0.000 OA
ATOM     12  N   UNL     1      -3.438  12.693  20.099  0.00  0.00    +0.000 N 
ATOM     13  C   UNL     1      -4.839  13.083  19.798  0.00  0.00    +0.000 C 
ATOM     14  C   UNL     1      -5.262  14.009  20.918  0.00  0.00    +0.000 C 
ATOM     15  C   UNL     1      -4.506  13.344  22.012  0.00  0.00    +0.000 A 
ATOM     16  C   UNL     1      -4.880  13.241  23.342  0.00  0.00    +0.000 A 
ATOM     17  C   UNL     1      -4.012  12.569  24.174  0.00  0.00    +0.000 A 
ATOM     18  C   UNL     1      -2.819  12.073  23.633  0.00  0.00    +0.000 A 
ATOM     19  N   UNL     1      -2.473  12.098  22.309  0.00  0.00    +0.000 NA
ATOM     20  C   UNL     1      -3.349  12.712  21.512  0.00  0.00    +0.000 A 
ENDBRANCH   5  10
BRANCH   7  21
ATOM     21  C   UNL     1       1.439   9.136  18.852  0.00  0.00    +0.000 A 
ATOM     22  C   UNL     1       2.141   8.562  17.802  0.00  0.00    +0.000 A 
ATOM     23  C   UNL     1       2.751   7.323  18.152  0.00  0.00    +0.000 A 
ATOM     24  C   UNL     1       2.521   6.996  19.468  0.00  0.00    +0.000 A 
ATOM     25  S   UNL     1       1.579   8.175  20.268  0.00  0.00    +0.000 S 
ENDBRANCH   7  21
BRANCH   1  27
ATOM     26  C   UNL     1       3.165  15.405  17.780  0.00  0.00    +0.000 C 
ATOM     27  C   UNL     1       2.954  14.220  18.727  0.00  0.00    +0.000 C 
ATOM     28  C   UNL     1       3.697  14.501  20.045  0.00  0.00    +0.000 C 
ENDBRANCH   1  27
TORSDOF 3
ENDMDL
MODEL 4
REMARK VINA RESULT:      -7.4      2.669      7.844
REMARK  Name = 
REMARK  5 active torsions:
REMARK  status: ('A' for Active; 'I' for Inactive)
REMARK    1  A    between atoms: C_1  and  C_2
REMARK    2  A    between atoms: C_2  and  C_3
REMARK    3  A    between atoms: C_2  and  N_4
REMARK    4  A    between atoms: C_8  and  C_9
REMARK    5  A    between atoms: C_21  and  C_22
REMARK                            x       y       z     vdW  Elec       q    Type
REMARK                         _______ _______ _______ _____ _____    ______ ____
ROOT
ATOM      1  N   UNL     1       2.831   2.851  19.002  0.00  0.00    +0.000 N 
ATOM      2  N   UNL     1       3.733   1.897  18.682  0.00  0.00    +0.000 NA
ATOM      3  C   UNL     1       4.680   2.572  18.017  0.00  0.00    +0.000 A 
ATOM      4  C   UNL     1       4.406   3.959  17.869  0.00  0.00    +0.000 A 
ATOM      5  C   UNL     1       5.011   5.112  17.280  0.00  0.00    +0.000 A 
ATOM      6  C   UNL     1       4.366   6.328  17.501  0.00  0.00    +0.000 A 
ATOM      7  C   UNL     1       3.163   6.346  18.231  0.00  0.00    +0.000 A 
ATOM      8  N   UNL     1       2.536   5.254  18.742  0.00  0.00    +0.000 NA
ATOM      9  C   UNL     1       3.204   4.104  18.555  0.00  0.00    +0.000 A 
ENDROOT
BRANCH   5  10
ATOM     10  C   UNL     1       6.340   4.957  16.600  0.00  0.00    +0.000 C 
ATOM     11  O   UNL     1       7.299   4.866  17.366  0.00  0.00    +0.000 OA
ATOM     12  N   UNL     1       6.614   5.057  15.233  0.00  0.00    +0.000 N 
ATOM     13  C   UNL     1       8.043   5.256  14.878  0.00  0.00    +0.000 C 
ATOM     14  C   UNL     1       8.067   5.519  13.388  0.00  0.00    +0.000 C 
ATOM     15  C   UNL     1       6.948   4.614  13.015  0.00  0.00    +0.000 A 
ATOM     16  C   UNL     1       6.818   3.887  11.843  0.00  0.00    +0.000 A 
ATOM     17  C   UNL     1       5.687   3.109  11.725  0.00  0.00    +0.000 A 
ATOM     18  C   UNL     1       4.751   3.131  12.766  0.00  0.00    +0.000 A 
ATOM     19  N   UNL     1       4.903   3.782  13.961  0.00  0.00    +0.000 NA
ATOM     20  C   UNL     1       6.026   4.492  14.074  0.00  0.00    +0.000 A 
ENDBRANCH   5  10
BRANCH   7  21
ATOM     21  C   UNL     1       2.438   7.594  18.530  0.00  0.00    +0.000 A 
ATOM     22  C   UNL     1       2.146   8.634  17.660  0.00  0.00    +0.000 A 
ATOM     23  C   UNL     1       1.403   9.683  18.276  0.00  0.00    +0.000 A 
ATOM     24  C   UNL     1       1.125   9.403  19.594  0.00  0.00    +0.000 A 
ATOM     25  S   UNL     1       1.755   7.891  20.077  0.00  0.00    +0.000 S 
ENDBRANCH   7  21
BRANCH   1  27
ATOM     26  C   UNL     1       1.449   3.259  21.010  0.00  0.00    +0.000 C 
ATOM     27  C   UNL     1       1.593   2.487  19.695  0.00  0.00    +0.000 C 
ATOM     28  C   UNL     1       0.313   2.683  18.863  0.00  0.00    +0.000 C 
ENDBRANCH   1  27
TORSDOF 3
ENDMDL
MODEL 5
REMARK VINA RESULT:      -7.3      4.872      9.215
REMARK  Name = 
REMARK  5 active torsions:
REMARK  status: ('A' for Active; 'I' for Inactive)
REMARK    1  A    between atoms: C_1  and  C_2
REMARK    2  A    between atoms: C_2  and  C_3
REMARK    3  A    between atoms: C_2  and  N_4
REMARK    4  A    between atoms: C_8  and  C_9
REMARK    5  A    between atoms: C_21  and  C_22
REMARK                            x       y       z     vdW  Elec       q    Type
REMARK                         _______ _______ _______ _____ _____    ______ ____
ROOT
ATOM      1  N   UNL     1      -4.450  11.846  18.368  0.00  0.00    +0.000 N 
ATOM      2  N   UNL     1      -3.883  11.327  17.257  0.00  0.00    +0.000 NA
ATOM      3  C   UNL     1      -2.573  11.349  17.536  0.00  0.00    +0.000 A 
ATOM      4  C   UNL     1      -2.261  11.899  18.809  0.00  0.00    +0.000 A 
ATOM      5  C   UNL     1      -1.103  12.173  19.602  0.00  0.00    +0.000 A 
ATOM      6  C   UNL     1      -1.338  12.651  20.890  0.00  0.00    +0.000 A 
ATOM      7  C   UNL     1      -2.662  12.877  21.311  0.00  0.00    +0.000 A 
ATOM      8  N   UNL     1      -3.772  12.687  20.551  0.00  0.00    +0.000 NA
ATOM      9  C   UNL     1      -3.519  12.181  19.332  0.00  0.00    +0.000 A 
ENDROOT
BRANCH   5  10
ATOM     10  C   UNL     1       0.245  11.804  19.055  0.00  0.00    +0.000 C 
ATOM     11  O   UNL     1       0.914  12.757  18.656  0.00  0.00    +0.000 OA
ATOM     12  N   UNL     1       0.743  10.520  18.814  0.00  0.00    +0.000 N 
ATOM     13  C   UNL     1       1.923  10.449  17.914  0.00  0.00    +0.000 C 
ATOM     14  C   UNL     1       2.161   8.977  17.658  0.00  0.00    +0.000 C 
ATOM     15  C   UNL     1       1.759   8.481  19.001  0.00  0.00    +0.000 A 
ATOM     16  C   UNL     1       2.283   7.393  19.680  0.00  0.00    +0.000 A 
ATOM     17  C   UNL     1       1.749   7.129  20.922  0.00  0.00    +0.000 A 
ATOM     18  C   UNL     1       0.712   7.946  21.389  0.00  0.00    +0.000 A 
ATOM     19  N   UNL     1       0.238   9.069  20.766  0.00  0.00    +0.000 NA
ATOM     20  C   UNL     1       0.800   9.334  19.585  0.00  0.00    +0.000 A 
ENDBRANCH   5  10
BRANCH   7  21
ATOM     21  C   UNL     1      -2.990  13.355  22.665  0.00  0.00    +0.000 A 
ATOM     22  C   UNL     1      -3.965  12.867  23.523  0.00  0.00    +0.000 A 
ATOM     23  C   UNL     1      -3.995  13.548  24.775  0.00  0.00    +0.000 A 
ATOM     24  C   UNL     1      -3.025  14.520  24.850  0.00  0.00    +0.000 A 
ATOM     25  S   UNL     1      -2.091  14.606  23.423  0.00  0.00    +0.000 S 
ENDBRANCH   7  21
BRANCH   1  27
ATOM     26  C   UNL     1      -6.394  12.842  17.212  0.00  0.00    +0.000 C 
ATOM     27  C   UNL     1      -5.901  12.049  18.425  0.00  0.00    +0.000 C 
ATOM     28  C   UNL     1      -6.723  10.753  18.537  0.00  0.00    +0.000 C 
ENDBRANCH   1  27
TORSDOF 3
ENDMDL
MODEL 6
REMARK VINA RESULT:      -7.1      5.177      9.377
REMARK  Name = 
REMARK  5 active torsions:
REMARK  status: ('A' for Active; 'I' for Inactive)
REMARK    1  A    between atoms: C_1  and  C_2
REMARK    2  A    between atoms: C_2  and  C_3
REMARK    3  A    between atoms: C_2  and  N_4
REMARK    4  A    between atoms: C_8  and  C_9
REMARK    5  A    between atoms: C_21  and  C_22
REMARK                            x       y       z     vdW  Elec       q    Type
REMARK                         _______ _______ _______ _____ _____    ______ ____
ROOT
ATOM      1  N   UNL     1      -4.642  11.593  17.549  0.00  0.00    +0.000 N 
ATOM      2  N   UNL     1      -3.908  11.074  16.539  0.00  0.00    +0.000 NA
ATOM      3  C   UNL     1      -2.648  11.185  16.980  0.00  0.00    +0.000 A 
ATOM      4  C   UNL     1      -2.534  11.795  18.259  0.00  0.00    +0.000 A 
ATOM      5  C   UNL     1      -1.504  12.165  19.180  0.00  0.00    +0.000 A 
ATOM      6  C   UNL     1      -1.928  12.670  20.408  0.00  0.00    +0.000 A 
ATOM      7  C   UNL     1      -3.306  12.828  20.649  0.00  0.00    +0.000 A 
ATOM      8  N   UNL     1      -4.297  12.546  19.763  0.00  0.00    +0.000 NA
ATOM      9  C   UNL     1      -3.862  12.016  18.608  0.00  0.00    +0.000 A 
ENDROOT
BRANCH   5  10
ATOM     10  C   UNL     1      -0.079  11.860  18.823  0.00  0.00    +0.000 C 
ATOM     11  O   UNL     1       0.575  12.835  18.451  0.00  0.00    +0.000 OA
ATOM     12  N   UNL     1       0.524  10.603  18.721  0.00  0.00    +0.000 N 
ATOM     13  C   UNL     1       1.808  10.565  17.976  0.00  0.00    +0.000 C 
ATOM     14  C   UNL     1       2.166   9.102  17.839  0.00  0.00    +0.000 C 
ATOM     15  C   UNL     1       1.632   8.650  19.151  0.00  0.00    +0.000 A 
ATOM     16  C   UNL     1       2.133   7.637  19.952  0.00  0.00    +0.000 A 
ATOM     17  C   UNL     1       1.467   7.402  21.135  0.00  0.00    +0.000 A 
ATOM     18  C   UNL     1       0.331   8.169  21.423  0.00  0.00    +0.000 A 
ATOM     19  N   UNL     1      -0.130   9.223  20.681  0.00  0.00    +0.000 NA
ATOM     20  C   UNL     1       0.558   9.464  19.563  0.00  0.00    +0.000 A 
ENDBRANCH   5  10
BRANCH   7  21
ATOM     21  C   UNL     1      -3.832  13.329  21.931  0.00  0.00    +0.000 A 
ATOM     22  C   UNL     1      -3.117  13.638  23.079  0.00  0.00    +0.000 A 
ATOM     23  C   UNL     1      -3.942  14.125  24.134  0.00  0.00    +0.000 A 
ATOM     24  C   UNL     1      -5.261  14.201  23.755  0.00  0.00    +0.000 A 
ATOM     25  S   UNL     1      -5.498  13.689  22.143  0.00  0.00    +0.000 S 
ENDBRANCH   7  21
BRANCH   1  27
ATOM     26  C   UNL     1      -6.816  10.970  18.546  0.00  0.00    +0.000 C 
ATOM     27  C   UNL     1      -6.096  11.709  17.414  0.00  0.00    +0.000 C 
ATOM     28  C   UNL     1      -6.620  13.155  17.355  0.00  0.00    +0.000 C 
ENDBRANCH   1  27
TORSDOF 3
ENDMDL
MODEL 7
REMARK VINA RESULT:      -7.0      4.988      7.786
REMARK  Name = 
REMARK  5 active torsions:
REMARK  status: ('A' for Active; 'I' for Inactive)
REMARK    1  A    between atoms: C_1  and  C_2
REMARK    2  A    between atoms: C_2  and  C_3
REMARK    3  A    between atoms: C_2  and  N_4
REMARK    4  A    between atoms: C_8  and  C_9
REMARK    5  A    between atoms: C_21  and  C_22
REMARK                            x       y       z     vdW  Elec       q    Type
REMARK                         _______ _______ _______ _____ _____    ______ ____
ROOT
ATOM      1  N   UNL     1       0.771   9.337  19.986  0.00  0.00    +0.000 N 
ATOM      2  N   UNL     1       1.194   9.633  21.235  0.00  0.00    +0.000 NA
ATOM      3  C   UNL     1       0.400  10.649  21.601  0.00  0.00    +0.000 A 
ATOM      4  C   UNL     1      -0.529  11.047  20.601  0.00  0.00    +0.000 A 
ATOM      5  C   UNL     1      -1.562  12.020  20.428  0.00  0.00    +0.000 A 
ATOM      6  C   UNL     1      -2.291  11.940  19.242  0.00  0.00    +0.000 A 
ATOM      7  C   UNL     1      -1.948  10.964  18.287  0.00  0.00    +0.000 A 
ATOM      8  N   UNL     1      -0.927  10.075  18.403  0.00  0.00    +0.000 NA
ATOM      9  C   UNL     1      -0.274  10.143  19.575  0.00  0.00    +0.000 A 
ENDROOT
BRANCH   5  10
ATOM     10  C   UNL     1      -1.874  12.947  21.566  0.00  0.00    +0.000 C 
ATOM     11  O   UNL     1      -1.025  13.815  21.765  0.00  0.00    +0.000 OA
ATOM     12  N   UNL     1      -2.914  12.836  22.493  0.00  0.00    +0.000 N 
ATOM     13  C   UNL     1      -2.759  13.644  23.730  0.00  0.00    +0.000 C 
ATOM     14  C   UNL     1      -3.890  13.226  24.644  0.00  0.00    +0.000 C 
ATOM     15  C   UNL     1      -4.914  12.997  23.590  0.00  0.00    +0.000 A 
ATOM     16  C   UNL     1      -6.279  13.206  23.693  0.00  0.00    +0.000 A 
ATOM     17  C   UNL     1      -7.031  12.926  22.573  0.00  0.00    +0.000 A 
ATOM     18  C   UNL     1      -6.376  12.429  21.439  0.00  0.00    +0.000 A 
ATOM     19  N   UNL     1      -5.021  12.292  21.295  0.00  0.00    +0.000 NA
ATOM     20  C   UNL     1      -4.308  12.613  22.376  0.00  0.00    +0.000 A 
ENDBRANCH   5  10
BRANCH   7  21
ATOM     21  C   UNL     1      -2.688  10.800  17.024  0.00  0.00    +0.000 A 
ATOM     22  C   UNL     1      -2.312  10.063  15.910  0.00  0.00    +0.000 A 
ATOM     23  C   UNL     1      -3.281  10.100  14.866  0.00  0.00    +0.000 A 
ATOM     24  C   UNL     1      -4.384  10.841  15.220  0.00  0.00    +0.000 A 
ATOM     25  S   UNL     1      -4.246  11.485  16.796  0.00  0.00    +0.000 S 
ENDBRANCH   7  21
BRANCH   1  27
ATOM     26  C   UNL     1       2.399   8.913  18.175  0.00  0.00    +0.000 C 
ATOM     27  C   UNL     1       1.451   8.298  19.208  0.00  0.00    +0.000 C 
ATOM     28  C   UNL     1       2.233   7.277  20.053  0.00  0.00    +0.000 C 
ENDBRANCH   1  27
TORSDOF 3
ENDMDL
MODEL 8
REMARK VINA RESULT:      -6.9      4.984      9.614
REMARK  Name = 
REMARK  5 active torsions:
REMARK  status: ('A' for Active; 'I' for Inactive)
REMARK    1  A    between atoms: C_1  and  C_2
REMARK    2  A    between atoms: C_2  and  C_3
REMARK    3  A    between atoms: C_2  and  N_4
REMARK    4  A    between atoms: C_8  and  C_9
REMARK    5  A    between atoms: C_21  and  C_22
REMARK                            x       y       z     vdW  Elec       q    Type
REMARK                         _______ _______ _______ _____ _____    ______ ____
ROOT
ATOM      1  N   UNL     1      -4.416  12.148  19.275  0.00  0.00    +0.000 N 
ATOM      2  N   UNL     1      -3.982  11.481  18.182  0.00  0.00    +0.000 NA
ATOM      3  C   UNL     1      -2.648  11.545  18.287  0.00  0.00    +0.000 A 
ATOM      4  C   UNL     1      -2.191  12.268  19.422  0.00  0.00    +0.000 A 
ATOM      5  C   UNL     1      -0.948  12.653  20.016  0.00  0.00    +0.000 A 
ATOM      6  C   UNL     1      -1.029  13.305  21.246  0.00  0.00    +0.000 A 
ATOM      7  C   UNL     1      -2.294  13.583  21.796  0.00  0.00    +0.000 A 
ATOM      8  N   UNL     1      -3.487  13.286  21.217  0.00  0.00    +0.000 NA
ATOM      9  C   UNL     1      -3.379  12.616  20.057  0.00  0.00    +0.000 A 
ENDROOT
BRANCH   5  10
ATOM     10  C   UNL     1       0.327  12.215  19.358  0.00  0.00    +0.000 C 
ATOM     11  O   UNL     1       1.035  13.136  18.950  0.00  0.00    +0.000 OA
ATOM     12  N   UNL     1       0.713  10.912  19.032  0.00  0.00    +0.000 N 
ATOM     13  C   UNL     1       1.819  10.798  18.046  0.00  0.00    +0.000 C 
ATOM     14  C   UNL     1       1.930   9.326  17.715  0.00  0.00    +0.000 C 
ATOM     15  C   UNL     1       1.588   8.800  19.063  0.00  0.00    +0.000 A 
ATOM     16  C   UNL     1       2.077   7.649  19.659  0.00  0.00    +0.000 A 
ATOM     17  C   UNL     1       1.614   7.367  20.925  0.00  0.00    +0.000 A 
ATOM     18  C   UNL     1       0.674   8.233  21.498  0.00  0.00    +0.000 A 
ATOM     19  N   UNL     1       0.241   9.413  20.956  0.00  0.00    +0.000 NA
ATOM     20  C   UNL     1       0.737   9.691  19.749  0.00  0.00    +0.000 A 
ENDBRANCH   5  10
BRANCH   7  21
ATOM     21  C   UNL     1      -2.460  14.244  23.103  0.00  0.00    +0.000 A 
ATOM     22  C   UNL     1      -1.479  14.528  24.041  0.00  0.00    +0.000 A 
ATOM     23  C   UNL     1      -1.985  15.201  25.190  0.00  0.00    +0.000 A 
ATOM     24  C   UNL     1      -3.336  15.438  25.087  0.00  0.00    +0.000 A 
ATOM     25  S   UNL     1      -3.981  14.851  23.619  0.00  0.00    +0.000 S 
ENDBRANCH   7  21
BRANCH   1  27
ATOM     26  C   UNL     1      -6.307  13.700  18.922  0.00  0.00    +0.000 C 
ATOM     27  C   UNL     1      -5.852  12.352  19.487  0.00  0.00    +0.000 C 
ATOM     28  C   UNL     1      -6.748  11.243  18.906  0.00  0.00    +0.000 C 
ENDBRANCH   1  27
TORSDOF 3
ENDMDL
MODEL 9
REMARK VINA RESULT:      -6.9      5.204      9.673
REMARK  Name = 
REMARK  5 active torsions:
REMARK  status: ('A' for Active; 'I' for Inactive)
REMARK    1  A    between atoms: C_1  and  C_2
REMARK    2  A    between atoms: C_2  and  C_3
REMARK    3  A    between atoms: C_2  and  N_4
REMARK    4  A    between atoms: C_8  and  C_9
REMARK    5  A    between atoms: C_21  and  C_22
REMARK                            x       y       z     vdW  Elec       q    Type
REMARK                         _______ _______ _______ _____ _____    ______ ____
ROOT
ATOM      1  N   UNL     1      -4.695  11.550  18.662  0.00  0.00    +0.000 N 
ATOM      2  N   UNL     1      -4.089  10.756  17.751  0.00  0.00    +0.000 NA
ATOM      3  C   UNL     1      -2.786  11.005  17.938  0.00  0.00    +0.000 A 
ATOM      4  C   UNL     1      -2.521  11.974  18.945  0.00  0.00    +0.000 A 
ATOM      5  C   UNL     1      -1.390  12.613  19.542  0.00  0.00    +0.000 A 
ATOM      6  C   UNL     1      -1.658  13.462  20.615  0.00  0.00    +0.000 A 
ATOM      7  C   UNL     1      -2.992  13.675  21.008  0.00  0.00    +0.000 A 
ATOM      8  N   UNL     1      -4.085  13.130  20.411  0.00  0.00    +0.000 NA
ATOM      9  C   UNL     1      -3.795  12.280  19.413  0.00  0.00    +0.000 A 
ENDROOT
BRANCH   5  10
ATOM     10  C   UNL     1      -0.017  12.227  19.075  0.00  0.00    +0.000 C 
ATOM     11  O   UNL     1       0.676  13.168  18.690  0.00  0.00    +0.000 OA
ATOM     12  N   UNL     1       0.487  10.936  18.890  0.00  0.00    +0.000 N 
ATOM     13  C   UNL     1       1.712  10.840  18.055  0.00  0.00    +0.000 C 
ATOM     14  C   UNL     1       1.956   9.362  17.845  0.00  0.00    +0.000 C 
ATOM     15  C   UNL     1       1.483   8.898  19.176  0.00  0.00    +0.000 A 
ATOM     16  C   UNL     1       1.966   7.825  19.906  0.00  0.00    +0.000 A 
ATOM     17  C   UNL     1       1.367   7.591  21.124  0.00  0.00    +0.000 A 
ATOM     18  C   UNL     1       0.310   8.422  21.518  0.00  0.00    +0.000 A 
ATOM     19  N   UNL     1      -0.125   9.532  20.845  0.00  0.00    +0.000 NA
ATOM     20  C   UNL     1       0.499   9.767  19.690  0.00  0.00    +0.000 A 
ENDBRANCH   5  10
BRANCH   7  21
ATOM     21  C   UNL     1      -3.353  14.535  22.149  0.00  0.00    +0.000 A 
ATOM     22  C   UNL     1      -3.053  15.877  22.327  0.00  0.00    +0.000 A 
ATOM     23  C   UNL     1      -3.581  16.410  23.539  0.00  0.00    +0.000 A 
ATOM     24  C   UNL     1      -4.293  15.466  24.242  0.00  0.00    +0.000 A 
ATOM     25  S   UNL     1      -4.322  13.957  23.444  0.00  0.00    +0.000 S 
ENDBRANCH   7  21
BRANCH   1  27
ATOM     26  C   UNL     1      -6.739  12.278  17.478  0.00  0.00    +0.000 C 
ATOM     27  C   UNL     1      -6.158  11.608  18.726  0.00  0.00    +0.000 C 
ATOM     28  C   UNL     1      -6.844  10.244  18.920  0.00  0.00    +0.000 C 
ENDBRANCH   1  27
TORSDOF 3
ENDMDL
