MODEL 1
REMARK VINA RESULT:      -8.3      0.000      0.000
REMARK  Name = 
REMARK  10 active torsions:
REMARK  status: ('A' for Active; 'I' for Inactive)
REMARK    1  A    between atoms: C_1  and  C_2
REMARK    2  A    between atoms: C_2  and  C_3
REMARK    3  A    between atoms: C_2  and  O_4
REMARK    4  A    between atoms: O_4  and  C_5
REMARK    5  A    between atoms: C_8  and  C_9
REMARK    6  A    between atoms: C_11  and  C_12
REMARK    7  A    between atoms: C_21  and  C_23
REMARK    8  A    between atoms: C_23  and  C_24
REMARK    9  A    between atoms: C_24  and  C_25
REMARK   10  A    between atoms: C_25  and  O_27
REMARK                            x       y       z     vdW  Elec       q    Type
REMARK                         _______ _______ _______ _____ _____    ______ ____
ROOT
ATOM      1  C   UNL     1       1.475   8.253  20.505  0.00  0.00    +0.000 A 
ATOM      2  C   UNL     1       2.028   8.602  19.257  0.00  0.00    +0.000 A 
ATOM      3  C   UNL     1       2.728   7.666  18.478  0.00  0.00    +0.000 A 
ATOM      4  C   UNL     1       2.870   6.375  18.955  0.00  0.00    +0.000 A 
ATOM      5  C   UNL     1       2.302   6.012  20.178  0.00  0.00    +0.000 A 
ATOM      6  C   UNL     1       1.609   6.928  20.959  0.00  0.00    +0.000 A 
ATOM      7  C   UNL     1       2.504   4.558  20.463  0.00  0.00    +0.000 C 
ATOM      8  C   UNL     1       3.497   4.167  19.370  0.00  0.00    +0.000 C 
ATOM      9  N   UNL     1       3.554   5.275  18.396  0.00  0.00    +0.000 N 
ATOM     10  C   UNL     1       4.291   5.268  17.222  0.00  0.00    +0.000 C 
ATOM     11  O   UNL     1       4.396   6.217  16.446  0.00  0.00    +0.000 OA
ENDROOT
BRANCH   1  14
ATOM     12  C   UNL     1      -0.598  10.746  21.842  0.00  0.00    +0.000 A 
ATOM     13  N   UNL     1      -0.230  10.008  20.819  0.00  0.00    +0.000 NA
ATOM     14  C   UNL     1       0.779   9.233  21.335  0.00  0.00    +0.000 A 
ATOM     15  N   UNL     1       1.029   9.469  22.636  0.00  0.00    +0.000 NA
ATOM     16  O   UNL     1       0.112  10.479  22.974  0.00  0.00    +0.000 OA
BRANCH  12  20
ATOM     17  C   UNL     1      -3.695  13.710  22.134  0.00  0.00    +0.000 A 
ATOM     18  C   UNL     1      -2.949  13.595  20.945  0.00  0.00    +0.000 A 
ATOM     19  C   UNL     1      -1.925  12.638  20.802  0.00  0.00    +0.000 A 
ATOM     20  C   UNL     1      -1.618  11.786  21.861  0.00  0.00    +0.000 A 
ATOM     21  C   UNL     1      -2.377  11.895  23.037  0.00  0.00    +0.000 A 
ATOM     22  C   UNL     1      -3.429  12.807  23.166  0.00  0.00    +0.000 A 
ATOM     23 BR   UNL     1      -4.460  12.554  24.743  0.00  0.00    +0.000 Br
BRANCH  17  24
ATOM     24  O   UNL     1      -4.672  14.668  22.083  0.00  0.00    +0.000 OA
BRANCH  24  26
ATOM     25  C   UNL     1      -2.950  16.078  23.019  0.00  0.00    +0.000 C 
ATOM     26  C   UNL     1      -4.446  15.915  22.760  0.00  0.00    +0.000 C 
ATOM     27  C   UNL     1      -4.921  17.049  21.853  0.00  0.00    +0.000 C 
ENDBRANCH  24  26
ENDBRANCH  17  24
ENDBRANCH  12  20
ENDBRANCH   1  14
BRANCH  10  28
ATOM     28  C   UNL     1       4.957   3.937  16.901  0.00  0.00    +0.000 C 
BRANCH  28  29
ATOM     29  C   UNL     1       6.000   4.033  15.796  0.00  0.00    +0.000 C 
BRANCH  29  30
ATOM     30  C   UNL     1       7.254   4.682  16.337  0.00  0.00    +0.000 C 
ATOM     31  O   UNL     1       8.038   4.158  17.111  0.00  0.00    +0.000 OA
BRANCH  30  32
ATOM     32  O   UNL     1       7.430   5.939  15.877  0.00  0.00    +0.000 OA
ATOM     33  H   UNL     1       6.750   6.568  16.183  0.00  0.00    +0.000 HD
ENDBRANCH  30  32
ENDBRANCH  29  30
ENDBRANCH  28  29
ENDBRANCH  10  28
TORSDOF 8
ENDMDL
MODEL 2
REMARK VINA RESULT:      -8.1      1.053      1.338
REMARK  Name = 
REMARK  10 active torsions:
REMARK  status: ('A' for Active; 'I' for Inactive)
REMARK    1  A    between atoms: C_1  and  C_2
REMARK    2  A    between atoms: C_2  and  C_3
REMARK    3  A    between atoms: C_2  and  O_4
REMARK    4  A    between atoms: O_4  and  C_5
REMARK    5  A    between atoms: C_8  and  C_9
REMARK    6  A    between atoms: C_11  and  C_12
REMARK    7  A    between atoms: C_21  and  C_23
REMARK    8  A    between atoms: C_23  and  C_24
REMARK    9  A    between atoms: C_24  and  C_25
REMARK   10  A    between atoms: C_25  and  O_27
REMARK                            x       y       z     vdW  Elec       q    Type
REMARK                         _______ _______ _______ _____ _____    ______ ____
ROOT
ATOM      1  C   UNL     1       1.495   8.455  20.221  0.00  0.00    +0.000 A 
ATOM      2  C   UNL     1       2.039   8.757  18.957  0.00  0.00    +0.000 A 
ATOM      3  C   UNL     1       2.770   7.807  18.227  0.00  0.00    +0.000 A 
ATOM      4  C   UNL     1       2.953   6.546  18.769  0.00  0.00    +0.000 A 
ATOM      5  C   UNL     1       2.394   6.228  20.008  0.00  0.00    +0.000 A 
ATOM      6  C   UNL     1       1.670   7.159  20.742  0.00  0.00    +0.000 A 
ATOM      7  C   UNL     1       2.642   4.797  20.366  0.00  0.00    +0.000 C 
ATOM      8  C   UNL     1       3.648   4.383  19.295  0.00  0.00    +0.000 C 
ATOM      9  N   UNL     1       3.672   5.442  18.267  0.00  0.00    +0.000 N 
ATOM     10  C   UNL     1       4.412   5.400  17.095  0.00  0.00    +0.000 C 
ATOM     11  O   UNL     1       4.489   6.311  16.272  0.00  0.00    +0.000 OA
ENDROOT
BRANCH   1  14
ATOM     12  C   UNL     1      -0.660  10.945  21.429  0.00  0.00    +0.000 A 
ATOM     13  N   UNL     1      -0.265  10.169  20.445  0.00  0.00    +0.000 NA
ATOM     14  C   UNL     1       0.765   9.452  21.001  0.00  0.00    +0.000 A 
ATOM     15  N   UNL     1       1.004   9.761  22.288  0.00  0.00    +0.000 NA
ATOM     16  O   UNL     1       0.056  10.757  22.575  0.00  0.00    +0.000 OA
BRANCH  12  20
ATOM     17  C   UNL     1      -3.754  13.922  21.600  0.00  0.00    +0.000 A 
ATOM     18  C   UNL     1      -3.458  13.291  20.375  0.00  0.00    +0.000 A 
ATOM     19  C   UNL     1      -2.454  12.309  20.270  0.00  0.00    +0.000 A 
ATOM     20  C   UNL     1      -1.712  11.951  21.395  0.00  0.00    +0.000 A 
ATOM     21  C   UNL     1      -2.023  12.572  22.615  0.00  0.00    +0.000 A 
ATOM     22  C   UNL     1      -3.054  13.509  22.736  0.00  0.00    +0.000 A 
ATOM     23 BR   UNL     1      -3.442  13.978  24.537  0.00  0.00    +0.000 Br
BRANCH  17  24
ATOM     24  O   UNL     1      -4.782  14.823  21.524  0.00  0.00    +0.000 OA
BRANCH  24  26
ATOM     25  C   UNL     1      -6.759  13.585  22.147  0.00  0.00    +0.000 C 
ATOM     26  C   UNL     1      -6.056  14.370  21.041  0.00  0.00    +0.000 C 
ATOM     27  C   UNL     1      -6.900  15.593  20.685  0.00  0.00    +0.000 C 
ENDBRANCH  24  26
ENDBRANCH  17  24
ENDBRANCH  12  20
ENDBRANCH   1  14
BRANCH  10  28
ATOM     28  C   UNL     1       5.121   4.076  16.841  0.00  0.00    +0.000 C 
BRANCH  28  29
ATOM     29  C   UNL     1       5.808   4.008  15.485  0.00  0.00    +0.000 C 
BRANCH  29  30
ATOM     30  C   UNL     1       7.159   4.681  15.566  0.00  0.00    +0.000 C 
ATOM     31  O   UNL     1       7.621   5.436  14.725  0.00  0.00    +0.000 OA
BRANCH  30  32
ATOM     32  O   UNL     1       7.835   4.356  16.689  0.00  0.00    +0.000 OA
ATOM     33  H   UNL     1       7.947   5.100  17.310  0.00  0.00    +0.000 HD
ENDBRANCH  30  32
ENDBRANCH  29  30
ENDBRANCH  28  29
ENDBRANCH  10  28
TORSDOF 8
ENDMDL
MODEL 3
REMARK VINA RESULT:      -8.1      2.064      2.482
REMARK  Name = 
REMARK  10 active torsions:
REMARK  status: ('A' for Active; 'I' for Inactive)
REMARK    1  A    between atoms: C_1  and  C_2
REMARK    2  A    between atoms: C_2  and  C_3
REMARK    3  A    between atoms: C_2  and  O_4
REMARK    4  A    between atoms: O_4  and  C_5
REMARK    5  A    between atoms: C_8  and  C_9
REMARK    6  A    between atoms: C_11  and  C_12
REMARK    7  A    between atoms: C_21  and  C_23
REMARK    8  A    between atoms: C_23  and  C_24
REMARK    9  A    between atoms: C_24  and  C_25
REMARK   10  A    between atoms: C_25  and  O_27
REMARK                            x       y       z     vdW  Elec       q    Type
REMARK                         _______ _______ _______ _____ _____    ______ ____
ROOT
ATOM      1  C   UNL     1       1.281   8.972  19.157  0.00  0.00    +0.000 A 
ATOM      2  C   UNL     1       2.053   9.136  17.991  0.00  0.00    +0.000 A 
ATOM      3  C   UNL     1       3.012   8.184  17.606  0.00  0.00    +0.000 A 
ATOM      4  C   UNL     1       3.191   7.062  18.397  0.00  0.00    +0.000 A 
ATOM      5  C   UNL     1       2.411   6.877  19.540  0.00  0.00    +0.000 A 
ATOM      6  C   UNL     1       1.461   7.811  19.932  0.00  0.00    +0.000 A 
ATOM      7  C   UNL     1       2.710   5.567  20.197  0.00  0.00    +0.000 C 
ATOM      8  C   UNL     1       3.959   5.122  19.439  0.00  0.00    +0.000 C 
ATOM      9  N   UNL     1       4.104   5.996  18.258  0.00  0.00    +0.000 N 
ATOM     10  C   UNL     1       5.080   5.863  17.283  0.00  0.00    +0.000 C 
ATOM     11  O   UNL     1       5.246   6.632  16.337  0.00  0.00    +0.000 OA
ENDROOT
BRANCH   1  14
ATOM     12  C   UNL     1      -0.529  11.526  20.738  0.00  0.00    +0.000 A 
ATOM     13  N   UNL     1       0.543  10.770  20.677  0.00  0.00    +0.000 NA
ATOM     14  C   UNL     1       0.309   9.977  19.581  0.00  0.00    +0.000 A 
ATOM     15  N   UNL     1      -0.864  10.231  18.972  0.00  0.00    +0.000 NA
ATOM     16  O   UNL     1      -1.424  11.263  19.743  0.00  0.00    +0.000 OA
BRANCH  12  20
ATOM     17  C   UNL     1      -1.676  14.380  23.739  0.00  0.00    +0.000 A 
ATOM     18  C   UNL     1      -0.585  14.658  22.892  0.00  0.00    +0.000 A 
ATOM     19  C   UNL     1      -0.173  13.754  21.893  0.00  0.00    +0.000 A 
ATOM     20  C   UNL     1      -0.842  12.540  21.736  0.00  0.00    +0.000 A 
ATOM     21  C   UNL     1      -1.937  12.278  22.573  0.00  0.00    +0.000 A 
ATOM     22  C   UNL     1      -2.384  13.194  23.531  0.00  0.00    +0.000 A 
ATOM     23 BR   UNL     1      -4.041  12.710  24.325  0.00  0.00    +0.000 Br
BRANCH  17  24
ATOM     24  O   UNL     1      -1.958  15.385  24.625  0.00  0.00    +0.000 OA
BRANCH  24  26
ATOM     25  C   UNL     1      -1.214  17.665  24.906  0.00  0.00    +0.000 C 
ATOM     26  C   UNL     1      -0.874  16.191  25.115  0.00  0.00    +0.000 C 
ATOM     27  C   UNL     1      -0.713  15.924  26.611  0.00  0.00    +0.000 C 
ENDBRANCH  24  26
ENDBRANCH  17  24
ENDBRANCH  12  20
ENDBRANCH   1  14
BRANCH  10  28
ATOM     28  C   UNL     1       5.949   4.620  17.422  0.00  0.00    +0.000 C 
BRANCH  28  29
ATOM     29  C   UNL     1       7.427   4.933  17.606  0.00  0.00    +0.000 C 
BRANCH  29  30
ATOM     30  C   UNL     1       7.622   5.726  18.879  0.00  0.00    +0.000 C 
ATOM     31  O   UNL     1       7.336   5.338  20.000  0.00  0.00    +0.000 OA
BRANCH  30  32
ATOM     32  O   UNL     1       8.154   6.947  18.656  0.00  0.00    +0.000 OA
ATOM     33  H   UNL     1       7.512   7.676  18.739  0.00  0.00    +0.000 HD
ENDBRANCH  30  32
ENDBRANCH  29  30
ENDBRANCH  28  29
ENDBRANCH  10  28
TORSDOF 8
ENDMDL
MODEL 4
REMARK VINA RESULT:      -8.1      2.498      3.235
REMARK  Name = 
REMARK  10 active torsions:
REMARK  status: ('A' for Active; 'I' for Inactive)
REMARK    1  A    between atoms: C_1  and  C_2
REMARK    2  A    between atoms: C_2  and  C_3
REMARK    3  A    between atoms: C_2  and  O_4
REMARK    4  A    between atoms: O_4  and  C_5
REMARK    5  A    between atoms: C_8  and  C_9
REMARK    6  A    between atoms: C_11  and  C_12
REMARK    7  A    between atoms: C_21  and  C_23
REMARK    8  A    between atoms: C_23  and  C_24
REMARK    9  A    between atoms: C_24  and  C_25
REMARK   10  A    between atoms: C_25  and  O_27
REMARK                            x       y       z     vdW  Elec       q    Type
REMARK                         _______ _______ _______ _____ _____    ______ ____
ROOT
ATOM      1  C   UNL     1       2.475   6.957  18.996  0.00  0.00    +0.000 A 
ATOM      2  C   UNL     1       3.261   7.645  18.050  0.00  0.00    +0.000 A 
ATOM      3  C   UNL     1       4.030   6.958  17.098  0.00  0.00    +0.000 A 
ATOM      4  C   UNL     1       4.008   5.573  17.096  0.00  0.00    +0.000 A 
ATOM      5  C   UNL     1       3.211   4.883  18.011  0.00  0.00    +0.000 A 
ATOM      6  C   UNL     1       2.446   5.550  18.959  0.00  0.00    +0.000 A 
ATOM      7  C   UNL     1       3.272   3.407  17.781  0.00  0.00    +0.000 C 
ATOM      8  C   UNL     1       4.417   3.300  16.777  0.00  0.00    +0.000 C 
ATOM      9  N   UNL     1       4.712   4.660  16.285  0.00  0.00    +0.000 N 
ATOM     10  C   UNL     1       5.645   4.969  15.306  0.00  0.00    +0.000 C 
ATOM     11  O   UNL     1       5.943   6.107  14.946  0.00  0.00    +0.000 OA
ENDROOT
BRANCH   1  14
ATOM     12  C   UNL     1       0.653   9.251  20.924  0.00  0.00    +0.000 A 
ATOM     13  N   UNL     1       1.306   8.967  19.820  0.00  0.00    +0.000 NA
ATOM     14  C   UNL     1       1.702   7.667  20.013  0.00  0.00    +0.000 A 
ATOM     15  N   UNL     1       1.305   7.151  21.190  0.00  0.00    +0.000 NA
ATOM     16  O   UNL     1       0.606   8.207  21.799  0.00  0.00    +0.000 OA
BRANCH  12  20
ATOM     17  C   UNL     1      -1.070  13.098  21.761  0.00  0.00    +0.000 A 
ATOM     18  C   UNL     1      -1.072  12.100  22.755  0.00  0.00    +0.000 A 
ATOM     19  C   UNL     1      -0.518  10.826  22.528  0.00  0.00    +0.000 A 
ATOM     20  C   UNL     1       0.036  10.521  21.285  0.00  0.00    +0.000 A 
ATOM     21  C   UNL     1       0.049  11.525  20.305  0.00  0.00    +0.000 A 
ATOM     22  C   UNL     1      -0.451  12.808  20.542  0.00  0.00    +0.000 A 
ATOM     23 BR   UNL     1      -0.057  14.042  19.151  0.00  0.00    +0.000 Br
BRANCH  17  24
ATOM     24  O   UNL     1      -1.616  14.286  22.167  0.00  0.00    +0.000 OA
BRANCH  24  26
ATOM     25  C   UNL     1      -2.894  15.279  23.959  0.00  0.00    +0.000 C 
ATOM     26  C   UNL     1      -2.896  14.264  22.818  0.00  0.00    +0.000 C 
ATOM     27  C   UNL     1      -3.963  14.663  21.799  0.00  0.00    +0.000 C 
ENDBRANCH  24  26
ENDBRANCH  17  24
ENDBRANCH  12  20
ENDBRANCH   1  14
BRANCH  10  28
ATOM     28  C   UNL     1       6.276   3.760  14.629  0.00  0.00    +0.000 C 
BRANCH  28  29
ATOM     29  C   UNL     1       6.653   4.010  13.175  0.00  0.00    +0.000 C 
BRANCH  29  30
ATOM     30  C   UNL     1       5.771   3.176  12.273  0.00  0.00    +0.000 C 
ATOM     31  O   UNL     1       4.643   3.477  11.918  0.00  0.00    +0.000 OA
BRANCH  30  32
ATOM     32  O   UNL     1       6.362   2.025  11.887  0.00  0.00    +0.000 OA
ATOM     33  H   UNL     1       7.128   1.773  12.437  0.00  0.00    +0.000 HD
ENDBRANCH  30  32
ENDBRANCH  29  30
ENDBRANCH  28  29
ENDBRANCH  10  28
TORSDOF 8
ENDMDL
MODEL 5
REMARK VINA RESULT:      -8.0      2.114      2.671
REMARK  Name = 
REMARK  10 active torsions:
REMARK  status: ('A' for Active; 'I' for Inactive)
REMARK    1  A    between atoms: C_1  and  C_2
REMARK    2  A    between atoms: C_2  and  C_3
REMARK    3  A    between atoms: C_2  and  O_4
REMARK    4  A    between atoms: O_4  and  C_5
REMARK    5  A    between atoms: C_8  and  C_9
REMARK    6  A    between atoms: C_11  and  C_12
REMARK    7  A    between atoms: C_21  and  C_23
REMARK    8  A    between atoms: C_23  and  C_24
REMARK    9  A    between atoms: C_24  and  C_25
REMARK   10  A    between atoms: C_25  and  O_27
REMARK                            x       y       z     vdW  Elec       q    Type
REMARK                         _______ _______ _______ _____ _____    ______ ____
ROOT
ATOM      1  C   UNL     1       2.210   7.459  19.472  0.00  0.00    +0.000 A 
ATOM      2  C   UNL     1       2.695   8.068  18.298  0.00  0.00    +0.000 A 
ATOM      3  C   UNL     1       3.528   7.376  17.403  0.00  0.00    +0.000 A 
ATOM      4  C   UNL     1       3.872   6.066  17.690  0.00  0.00    +0.000 A 
ATOM      5  C   UNL     1       3.373   5.445  18.837  0.00  0.00    +0.000 A 
ATOM      6  C   UNL     1       2.550   6.118  19.730  0.00  0.00    +0.000 A 
ATOM      7  C   UNL     1       3.800   4.014  18.910  0.00  0.00    +0.000 C 
ATOM      8  C   UNL     1       4.836   3.945  17.790  0.00  0.00    +0.000 C 
ATOM      9  N   UNL     1       4.715   5.179  16.989  0.00  0.00    +0.000 N 
ATOM     10  C   UNL     1       5.439   5.459  15.840  0.00  0.00    +0.000 C 
ATOM     11  O   UNL     1       5.391   6.516  15.213  0.00  0.00    +0.000 OA
ENDROOT
BRANCH   1  14
ATOM     12  C   UNL     1       0.266   9.785  21.236  0.00  0.00    +0.000 A 
ATOM     13  N   UNL     1       0.989   9.482  20.181  0.00  0.00    +0.000 NA
ATOM     14  C   UNL     1       1.373   8.186  20.424  0.00  0.00    +0.000 A 
ATOM     15  N   UNL     1       0.903   7.692  21.583  0.00  0.00    +0.000 NA
ATOM     16  O   UNL     1       0.166   8.758  22.126  0.00  0.00    +0.000 OA
BRANCH  12  20
ATOM     17  C   UNL     1      -1.502  13.646  21.894  0.00  0.00    +0.000 A 
ATOM     18  C   UNL     1      -1.608  12.651  22.885  0.00  0.00    +0.000 A 
ATOM     19  C   UNL     1      -1.044  11.372  22.716  0.00  0.00    +0.000 A 
ATOM     20  C   UNL     1      -0.373  11.060  21.534  0.00  0.00    +0.000 A 
ATOM     21  C   UNL     1      -0.257  12.061  20.558  0.00  0.00    +0.000 A 
ATOM     22  C   UNL     1      -0.769  13.349  20.742  0.00  0.00    +0.000 A 
ATOM     23 BR   UNL     1      -0.232  14.577  19.395  0.00  0.00    +0.000 Br
BRANCH  17  24
ATOM     24  O   UNL     1      -2.077  14.839  22.243  0.00  0.00    +0.000 OA
BRANCH  24  26
ATOM     25  C   UNL     1      -1.072  16.983  22.712  0.00  0.00    +0.000 C 
ATOM     26  C   UNL     1      -1.460  15.620  23.279  0.00  0.00    +0.000 C 
ATOM     27  C   UNL     1      -2.477  15.818  24.403  0.00  0.00    +0.000 C 
ENDBRANCH  24  26
ENDBRANCH  17  24
ENDBRANCH  12  20
ENDBRANCH   1  14
BRANCH  10  28
ATOM     28  C   UNL     1       6.301   4.309  15.340  0.00  0.00    +0.000 C 
BRANCH  28  29
ATOM     29  C   UNL     1       6.050   3.953  13.881  0.00  0.00    +0.000 C 
BRANCH  29  30
ATOM     30  C   UNL     1       7.144   4.543  13.020  0.00  0.00    +0.000 C 
ATOM     31  O   UNL     1       7.341   4.268  11.847  0.00  0.00    +0.000 OA
BRANCH  30  32
ATOM     32  O   UNL     1       7.914   5.427  13.690  0.00  0.00    +0.000 OA
ATOM     33  H   UNL     1       8.315   6.110  13.120  0.00  0.00    +0.000 HD
ENDBRANCH  30  32
ENDBRANCH  29  30
ENDBRANCH  28  29
ENDBRANCH  10  28
TORSDOF 8
ENDMDL
MODEL 6
REMARK VINA RESULT:      -8.0      1.767      2.287
REMARK  Name = 
REMARK  10 active torsions:
REMARK  status: ('A' for Active; 'I' for Inactive)
REMARK    1  A    between atoms: C_1  and  C_2
REMARK    2  A    between atoms: C_2  and  C_3
REMARK    3  A    between atoms: C_2  and  O_4
REMARK    4  A    between atoms: O_4  and  C_5
REMARK    5  A    between atoms: C_8  and  C_9
REMARK    6  A    between atoms: C_11  and  C_12
REMARK    7  A    between atoms: C_21  and  C_23
REMARK    8  A    between atoms: C_23  and  C_24
REMARK    9  A    between atoms: C_24  and  C_25
REMARK   10  A    between atoms: C_25  and  O_27
REMARK                            x       y       z     vdW  Elec       q    Type
REMARK                         _______ _______ _______ _____ _____    ______ ____
ROOT
ATOM      1  C   UNL     1       1.321   9.353  19.742  0.00  0.00    +0.000 A 
ATOM      2  C   UNL     1       1.926   9.403  18.471  0.00  0.00    +0.000 A 
ATOM      3  C   UNL     1       2.622   8.302  17.946  0.00  0.00    +0.000 A 
ATOM      4  C   UNL     1       2.708   7.146  18.703  0.00  0.00    +0.000 A 
ATOM      5  C   UNL     1       2.088   7.076  19.952  0.00  0.00    +0.000 A 
ATOM      6  C   UNL     1       1.397   8.158  20.483  0.00  0.00    +0.000 A 
ATOM      7  C   UNL     1       2.235   5.717  20.558  0.00  0.00    +0.000 C 
ATOM      8  C   UNL     1       3.251   5.071  19.619  0.00  0.00    +0.000 C 
ATOM      9  N   UNL     1       3.375   5.934  18.428  0.00  0.00    +0.000 N 
ATOM     10  C   UNL     1       4.151   5.650  17.315  0.00  0.00    +0.000 C 
ATOM     11  O   UNL     1       4.313   6.400  16.353  0.00  0.00    +0.000 OA
ENDROOT
BRANCH   1  14
ATOM     12  C   UNL     1      -0.890  11.597  21.283  0.00  0.00    +0.000 A 
ATOM     13  N   UNL     1      -0.597  10.371  20.913  0.00  0.00    +0.000 NA
ATOM     14  C   UNL     1       0.627  10.508  20.308  0.00  0.00    +0.000 A 
ATOM     15  N   UNL     1       1.090  11.771  20.305  0.00  0.00    +0.000 NA
ATOM     16  O   UNL     1       0.078  12.498  20.954  0.00  0.00    +0.000 OA
BRANCH  12  20
ATOM     17  C   UNL     1      -4.544  13.058  23.010  0.00  0.00    +0.000 A 
ATOM     18  C   UNL     1      -3.550  12.505  23.842  0.00  0.00    +0.000 A 
ATOM     19  C   UNL     1      -2.337  12.015  23.322  0.00  0.00    +0.000 A 
ATOM     20  C   UNL     1      -2.103  12.055  21.948  0.00  0.00    +0.000 A 
ATOM     21  C   UNL     1      -3.090  12.622  21.128  0.00  0.00    +0.000 A 
ATOM     22  C   UNL     1      -4.274  13.158  21.643  0.00  0.00    +0.000 A 
ATOM     23 BR   UNL     1      -5.299  14.106  20.353  0.00  0.00    +0.000 Br
BRANCH  17  24
ATOM     24  O   UNL     1      -5.641  13.517  23.688  0.00  0.00    +0.000 OA
BRANCH  24  26
ATOM     25  C   UNL     1      -7.546  12.033  23.681  0.00  0.00    +0.000 C 
ATOM     26  C   UNL     1      -6.940  13.313  23.110  0.00  0.00    +0.000 C 
ATOM     27  C   UNL     1      -7.828  14.497  23.489  0.00  0.00    +0.000 C 
ENDBRANCH  24  26
ENDBRANCH  17  24
ENDBRANCH  12  20
ENDBRANCH   1  14
BRANCH  10  28
ATOM     28  C   UNL     1       4.786   4.266  17.322  0.00  0.00    +0.000 C 
BRANCH  28  29
ATOM     29  C   UNL     1       5.835   4.075  16.236  0.00  0.00    +0.000 C 
BRANCH  29  30
ATOM     30  C   UNL     1       7.117   4.768  16.643  0.00  0.00    +0.000 C 
ATOM     31  O   UNL     1       7.580   5.762  16.107  0.00  0.00    +0.000 OA
BRANCH  30  32
ATOM     32  O   UNL     1       7.727   4.162  17.684  0.00  0.00    +0.000 OA
ATOM     33  H   UNL     1       8.619   3.825  17.475  0.00  0.00    +0.000 HD
ENDBRANCH  30  32
ENDBRANCH  29  30
ENDBRANCH  28  29
ENDBRANCH  10  28
TORSDOF 8
ENDMDL
MODEL 7
REMARK VINA RESULT:      -8.0      1.203      1.463
REMARK  Name = 
REMARK  10 active torsions:
REMARK  status: ('A' for Active; 'I' for Inactive)
REMARK    1  A    between atoms: C_1  and  C_2
REMARK    2  A    between atoms: C_2  and  C_3
REMARK    3  A    between atoms: C_2  and  O_4
REMARK    4  A    between atoms: O_4  and  C_5
REMARK    5  A    between atoms: C_8  and  C_9
REMARK    6  A    between atoms: C_11  and  C_12
REMARK    7  A    between atoms: C_21  and  C_23
REMARK    8  A    between atoms: C_23  and  C_24
REMARK    9  A    between atoms: C_24  and  C_25
REMARK   10  A    between atoms: C_25  and  O_27
REMARK                            x       y       z     vdW  Elec       q    Type
REMARK                         _______ _______ _______ _____ _____    ______ ____
ROOT
ATOM      1  C   UNL     1       1.403   8.968  19.894  0.00  0.00    +0.000 A 
ATOM      2  C   UNL     1       2.006   9.148  18.633  0.00  0.00    +0.000 A 
ATOM      3  C   UNL     1       2.732   8.118  18.013  0.00  0.00    +0.000 A 
ATOM      4  C   UNL     1       2.849   6.902  18.663  0.00  0.00    +0.000 A 
ATOM      5  C   UNL     1       2.231   6.704  19.900  0.00  0.00    +0.000 A 
ATOM      6  C   UNL     1       1.512   7.715  20.525  0.00  0.00    +0.000 A 
ATOM      7  C   UNL     1       2.415   5.300  20.382  0.00  0.00    +0.000 C 
ATOM      8  C   UNL     1       3.448   4.768  19.391  0.00  0.00    +0.000 C 
ATOM      9  N   UNL     1       3.549   5.737  18.283  0.00  0.00    +0.000 N 
ATOM     10  C   UNL     1       4.332   5.576  17.150  0.00  0.00    +0.000 C 
ATOM     11  O   UNL     1       4.473   6.413  16.260  0.00  0.00    +0.000 OA
ENDROOT
BRANCH   1  14
ATOM     12  C   UNL     1      -0.898  11.383  20.977  0.00  0.00    +0.000 A 
ATOM     13  N   UNL     1      -0.590  10.397  20.165  0.00  0.00    +0.000 NA
ATOM     14  C   UNL     1       0.679  10.049  20.559  0.00  0.00    +0.000 A 
ATOM     15  N   UNL     1       1.146  10.783  21.585  0.00  0.00    +0.000 NA
ATOM     16  O   UNL     1       0.096  11.674  21.864  0.00  0.00    +0.000 OA
BRANCH  12  20
ATOM     17  C   UNL     1      -4.488  13.724  21.284  0.00  0.00    +0.000 A 
ATOM     18  C   UNL     1      -4.179  13.076  20.072  0.00  0.00    +0.000 A 
ATOM     19  C   UNL     1      -3.015  12.297  19.924  0.00  0.00    +0.000 A 
ATOM     20  C   UNL     1      -2.126  12.167  20.990  0.00  0.00    +0.000 A 
ATOM     21  C   UNL     1      -2.449  12.802  22.199  0.00  0.00    +0.000 A 
ATOM     22  C   UNL     1      -3.629  13.533  22.368  0.00  0.00    +0.000 A 
ATOM     23 BR   UNL     1      -3.949  14.046  24.170  0.00  0.00    +0.000 Br
BRANCH  17  24
ATOM     24  O   UNL     1      -5.675  14.407  21.259  0.00  0.00    +0.000 OA
BRANCH  24  26
ATOM     25  C   UNL     1      -7.370  15.708  20.135  0.00  0.00    +0.000 C 
ATOM     26  C   UNL     1      -5.880  15.387  20.229  0.00  0.00    +0.000 C 
ATOM     27  C   UNL     1      -5.121  16.656  20.614  0.00  0.00    +0.000 C 
ENDBRANCH  24  26
ENDBRANCH  17  24
ENDBRANCH  12  20
ENDBRANCH   1  14
BRANCH  10  28
ATOM     28  C   UNL     1       5.003   4.214  17.034  0.00  0.00    +0.000 C 
BRANCH  28  29
ATOM     29  C   UNL     1       5.782   4.031  15.739  0.00  0.00    +0.000 C 
BRANCH  29  30
ATOM     30  C   UNL     1       7.178   4.587  15.904  0.00  0.00    +0.000 C 
ATOM     31  O   UNL     1       7.917   4.362  16.850  0.00  0.00    +0.000 OA
BRANCH  30  32
ATOM     32  O   UNL     1       7.545   5.387  14.880  0.00  0.00    +0.000 OA
ATOM     33  H   UNL     1       7.483   6.339  15.083  0.00  0.00    +0.000 HD
ENDBRANCH  30  32
ENDBRANCH  29  30
ENDBRANCH  28  29
ENDBRANCH  10  28
TORSDOF 8
ENDMDL
MODEL 8
REMARK VINA RESULT:      -8.0      1.410      1.715
REMARK  Name = 
REMARK  10 active torsions:
REMARK  status: ('A' for Active; 'I' for Inactive)
REMARK    1  A    between atoms: C_1  and  C_2
REMARK    2  A    between atoms: C_2  and  C_3
REMARK    3  A    between atoms: C_2  and  O_4
REMARK    4  A    between atoms: O_4  and  C_5
REMARK    5  A    between atoms: C_8  and  C_9
REMARK    6  A    between atoms: C_11  and  C_12
REMARK    7  A    between atoms: C_21  and  C_23
REMARK    8  A    between atoms: C_23  and  C_24
REMARK    9  A    between atoms: C_24  and  C_25
REMARK   10  A    between atoms: C_25  and  O_27
REMARK                            x       y       z     vdW  Elec       q    Type
REMARK                         _______ _______ _______ _____ _____    ______ ____
ROOT
ATOM      1  C   UNL     1       1.895   8.062  19.652  0.00  0.00    +0.000 A 
ATOM      2  C   UNL     1       2.337   8.556  18.409  0.00  0.00    +0.000 A 
ATOM      3  C   UNL     1       3.192   7.807  17.585  0.00  0.00    +0.000 A 
ATOM      4  C   UNL     1       3.600   6.555  18.011  0.00  0.00    +0.000 A 
ATOM      5  C   UNL     1       3.145   6.045  19.229  0.00  0.00    +0.000 A 
ATOM      6  C   UNL     1       2.301   6.776  20.055  0.00  0.00    +0.000 A 
ATOM      7  C   UNL     1       3.641   4.652  19.455  0.00  0.00    +0.000 C 
ATOM      8  C   UNL     1       4.665   4.505  18.332  0.00  0.00    +0.000 C 
ATOM      9  N   UNL     1       4.477   5.634  17.400  0.00  0.00    +0.000 N 
ATOM     10  C   UNL     1       5.173   5.814  16.215  0.00  0.00    +0.000 C 
ATOM     11  O   UNL     1       5.068   6.790  15.474  0.00  0.00    +0.000 OA
ENDROOT
BRANCH   1  14
ATOM     12  C   UNL     1      -0.273  10.397  21.118  0.00  0.00    +0.000 A 
ATOM     13  N   UNL     1       0.381   9.966  20.063  0.00  0.00    +0.000 NA
ATOM     14  C   UNL     1       1.036   8.853  20.530  0.00  0.00    +0.000 A 
ATOM     15  N   UNL     1       0.796   8.591  21.828  0.00  0.00    +0.000 NA
ATOM     16  O   UNL     1      -0.076   9.620  22.221  0.00  0.00    +0.000 OA
BRANCH  12  20
ATOM     17  C   UNL     1      -2.861  13.789  21.631  0.00  0.00    +0.000 A 
ATOM     18  C   UNL     1      -2.148  13.630  20.426  0.00  0.00    +0.000 A 
ATOM     19  C   UNL     1      -1.290  12.535  20.211  0.00  0.00    +0.000 A 
ATOM     20  C   UNL     1      -1.116  11.582  21.214  0.00  0.00    +0.000 A 
ATOM     21  C   UNL     1      -1.842  11.738  22.405  0.00  0.00    +0.000 A 
ATOM     22  C   UNL     1      -2.735  12.795  22.604  0.00  0.00    +0.000 A 
ATOM     23 BR   UNL     1      -3.785  12.612  24.178  0.00  0.00    +0.000 Br
BRANCH  17  24
ATOM     24  O   UNL     1      -3.674  14.891  21.651  0.00  0.00    +0.000 OA
BRANCH  24  26
ATOM     25  C   UNL     1      -5.742  13.813  21.025  0.00  0.00    +0.000 C 
ATOM     26  C   UNL     1      -4.770  14.951  20.724  0.00  0.00    +0.000 C 
ATOM     27  C   UNL     1      -5.490  16.285  20.915  0.00  0.00    +0.000 C 
ENDBRANCH  24  26
ENDBRANCH  17  24
ENDBRANCH  12  20
ENDBRANCH   1  14
BRANCH  10  28
ATOM     28  C   UNL     1       6.084   4.656  15.833  0.00  0.00    +0.000 C 
BRANCH  28  29
ATOM     29  C   UNL     1       5.817   4.111  14.437  0.00  0.00    +0.000 C 
BRANCH  29  30
ATOM     30  C   UNL     1       6.916   4.558  13.500  0.00  0.00    +0.000 C 
ATOM     31  O   UNL     1       7.064   4.169  12.352  0.00  0.00    +0.000 OA
BRANCH  30  32
ATOM     32  O   UNL     1       7.753   5.452  14.069  0.00  0.00    +0.000 OA
ATOM     33  H   UNL     1       7.694   5.481  15.042  0.00  0.00    +0.000 HD
ENDBRANCH  30  32
ENDBRANCH  29  30
ENDBRANCH  28  29
ENDBRANCH  10  28
TORSDOF 8
ENDMDL
MODEL 9
REMARK VINA RESULT:      -8.0      1.593      1.990
REMARK  Name = 
REMARK  10 active torsions:
REMARK  status: ('A' for Active; 'I' for Inactive)
REMARK    1  A    between atoms: C_1  and  C_2
REMARK    2  A    between atoms: C_2  and  C_3
REMARK    3  A    between atoms: C_2  and  O_4
REMARK    4  A    between atoms: O_4  and  C_5
REMARK    5  A    between atoms: C_8  and  C_9
REMARK    6  A    between atoms: C_11  and  C_12
REMARK    7  A    between atoms: C_21  and  C_23
REMARK    8  A    between atoms: C_23  and  C_24
REMARK    9  A    between atoms: C_24  and  C_25
REMARK   10  A    between atoms: C_25  and  O_27
REMARK                            x       y       z     vdW  Elec       q    Type
REMARK                         _______ _______ _______ _____ _____    ______ ____
ROOT
ATOM      1  C   UNL     1       1.459   9.161  19.805  0.00  0.00    +0.000 A 
ATOM      2  C   UNL     1       2.067   9.366  18.551  0.00  0.00    +0.000 A 
ATOM      3  C   UNL     1       2.786   8.346  17.909  0.00  0.00    +0.000 A 
ATOM      4  C   UNL     1       2.893   7.113  18.530  0.00  0.00    +0.000 A 
ATOM      5  C   UNL     1       2.270   6.891  19.760  0.00  0.00    +0.000 A 
ATOM      6  C   UNL     1       1.557   7.892  20.407  0.00  0.00    +0.000 A 
ATOM      7  C   UNL     1       2.442   5.475  20.209  0.00  0.00    +0.000 C 
ATOM      8  C   UNL     1       3.474   4.959  19.208  0.00  0.00    +0.000 C 
ATOM      9  N   UNL     1       3.584   5.953  18.123  0.00  0.00    +0.000 N 
ATOM     10  C   UNL     1       4.369   5.812  16.989  0.00  0.00    +0.000 C 
ATOM     11  O   UNL     1       4.518   6.669  16.119  0.00  0.00    +0.000 OA
ENDROOT
BRANCH   1  14
ATOM     12  C   UNL     1      -0.879  11.452  21.063  0.00  0.00    +0.000 A 
ATOM     13  N   UNL     1      -0.603  10.425  20.292  0.00  0.00    +0.000 NA
ATOM     14  C   UNL     1       0.741  10.231  20.494  0.00  0.00    +0.000 A 
ATOM     15  N   UNL     1       1.287  11.098  21.366  0.00  0.00    +0.000 NA
ATOM     16  O   UNL     1       0.207  11.914  21.745  0.00  0.00    +0.000 OA
BRANCH  12  20
ATOM     17  C   UNL     1      -4.668  13.346  21.783  0.00  0.00    +0.000 A 
ATOM     18  C   UNL     1      -4.178  13.244  20.466  0.00  0.00    +0.000 A 
ATOM     19  C   UNL     1      -2.943  12.630  20.181  0.00  0.00    +0.000 A 
ATOM     20  C   UNL     1      -2.164  12.121  21.219  0.00  0.00    +0.000 A 
ATOM     21  C   UNL     1      -2.666  12.213  22.526  0.00  0.00    +0.000 A 
ATOM     22  C   UNL     1      -3.915  12.773  22.810  0.00  0.00    +0.000 A 
ATOM     23 BR   UNL     1      -4.467  12.517  24.611  0.00  0.00    +0.000 Br
BRANCH  17  24
ATOM     24  O   UNL     1      -5.900  13.939  21.870  0.00  0.00    +0.000 OA
BRANCH  24  26
ATOM     25  C   UNL     1      -6.646  11.830  20.961  0.00  0.00    +0.000 C 
ATOM     26  C   UNL     1      -7.066  13.134  21.637  0.00  0.00    +0.000 C 
ATOM     27  C   UNL     1      -7.707  12.811  22.986  0.00  0.00    +0.000 C 
ENDBRANCH  24  26
ENDBRANCH  17  24
ENDBRANCH  12  20
ENDBRANCH   1  14
BRANCH  10  28
ATOM     28  C   UNL     1       5.031   4.449  16.842  0.00  0.00    +0.000 C 
BRANCH  28  29
ATOM     29  C   UNL     1       6.544   4.523  16.693  0.00  0.00    +0.000 C 
BRANCH  29  30
ATOM     30  C   UNL     1       6.907   4.545  15.225  0.00  0.00    +0.000 C 
ATOM     31  O   UNL     1       7.603   5.390  14.685  0.00  0.00    +0.000 OA
BRANCH  30  32
ATOM     32  O   UNL     1       6.368   3.513  14.540  0.00  0.00    +0.000 OA
ATOM     33  H   UNL     1       5.470   3.273  14.835  0.00  0.00    +0.000 HD
ENDBRANCH  30  32
ENDBRANCH  29  30
ENDBRANCH  28  29
ENDBRANCH  10  28
TORSDOF 8
ENDMDL
