MODEL 1
REMARK VINA RESULT:      -7.9      0.000      0.000
REMARK  Name = 
REMARK  10 active torsions:
REMARK  status: ('A' for Active; 'I' for Inactive)
REMARK    1  A    between atoms: C_1  and  O_2
REMARK    2  A    between atoms: O_2  and  C_3
REMARK    3  A    between atoms: C_3  and  C_5
REMARK    4  A    between atoms: N_7  and  C_8
REMARK    5  A    between atoms: C_12  and  C_13
REMARK    6  A    between atoms: C_13  and  C_15
REMARK    7  A    between atoms: C_16  and  C_17
REMARK    8  A    between atoms: C_20  and  O_21
REMARK    9  A    between atoms: C_22  and  O_23
REMARK   10  A    between atoms: O_23  and  C_24
REMARK                            x       y       z     vdW  Elec       q    Type
REMARK                         _______ _______ _______ _____ _____    ______ ____
ROOT
ATOM      1  C   UNL     1       4.488   3.421  18.144  0.00  0.00    +0.000 A 
ATOM      2  C   UNL     1       3.811   2.339  17.570  0.00  0.00    +0.000 A 
ATOM      3  C   UNL     1       2.643   1.835  18.140  0.00  0.00    +0.000 A 
ATOM      4  C   UNL     1       2.129   2.416  19.294  0.00  0.00    +0.000 A 
ATOM      5  C   UNL     1       2.785   3.504  19.882  0.00  0.00    +0.000 A 
ATOM      6  C   UNL     1       3.982   3.986  19.323  0.00  0.00    +0.000 A 
ENDROOT
BRANCH   1   9
ATOM      7  C   UNL     1       5.730   4.628  16.362  0.00  0.00    +0.000 C 
ATOM      8  O   UNL     1       4.796   4.883  15.607  0.00  0.00    +0.000 OA
ATOM      9  N   UNL     1       5.663   3.964  17.578  0.00  0.00    +0.000 N 
ATOM     10  H   UNL     1       6.519   3.957  18.127  0.00  0.00    +0.000 HD
BRANCH   7  11
ATOM     11  C   UNL     1       7.145   5.121  15.998  0.00  0.00    +0.000 C 
ATOM     12  O   UNL     1       7.535   5.176  14.845  0.00  0.00    +0.000 OA
BRANCH  11  14
ATOM     13  C   UNL     1       7.561   6.743  17.646  0.00  0.00    +0.000 C 
ATOM     14  O   UNL     1       7.815   5.443  17.124  0.00  0.00    +0.000 OA
ENDBRANCH  11  14
ENDBRANCH   7  11
ENDBRANCH   1   9
BRANCH   5  15
ATOM     15  C   UNL     1       2.181   4.100  21.104  0.00  0.00    +0.000 C 
ATOM     16  O   UNL     1       2.055   3.432  22.124  0.00  0.00    +0.000 OA
BRANCH  15  17
ATOM     17  C   UNL     1       1.683   5.499  21.013  0.00  0.00    +0.000 C 
ATOM     18  C   UNL     1       2.175   6.333  20.086  0.00  0.00    +0.000 C 
BRANCH  18  19
ATOM     19  C   UNL     1       1.724   7.724  20.018  0.00  0.00    +0.000 A 
ATOM     20  C   UNL     1       1.822   8.429  18.815  0.00  0.00    +0.000 A 
ATOM     21  C   UNL     1       1.433   9.769  18.753  0.00  0.00    +0.000 A 
ATOM     22  C   UNL     1       0.946  10.398  19.898  0.00  0.00    +0.000 A 
ATOM     23  C   UNL     1       0.842   9.709  21.115  0.00  0.00    +0.000 A 
ATOM     24  C   UNL     1       1.231   8.365  21.164  0.00  0.00    +0.000 A 
BRANCH  22  25
ATOM     25  O   UNL     1       0.565  11.712  19.838  0.00  0.00    +0.000 OA
ATOM     26  H   UNL     1      -0.388  11.775  20.005  0.00  0.00    +0.000 HD
ENDBRANCH  22  25
BRANCH  23  27
ATOM     27  O   UNL     1       0.362  10.425  22.180  0.00  0.00    +0.000 OA
ATOM     28  C   UNL     1      -0.180   9.694  23.270  0.00  0.00    +0.000 C 
ENDBRANCH  23  27
ENDBRANCH  18  19
ENDBRANCH  15  17
ENDBRANCH   5  15
TORSDOF 8
ENDMDL
MODEL 2
REMARK VINA RESULT:      -7.8      4.350      7.583
REMARK  Name = 
REMARK  10 active torsions:
REMARK  status: ('A' for Active; 'I' for Inactive)
REMARK    1  A    between atoms: C_1  and  O_2
REMARK    2  A    between atoms: O_2  and  C_3
REMARK    3  A    between atoms: C_3  and  C_5
REMARK    4  A    between atoms: N_7  and  C_8
REMARK    5  A    between atoms: C_12  and  C_13
REMARK    6  A    between atoms: C_13  and  C_15
REMARK    7  A    between atoms: C_16  and  C_17
REMARK    8  A    between atoms: C_20  and  O_21
REMARK    9  A    between atoms: C_22  and  O_23
REMARK   10  A    between atoms: O_23  and  C_24
REMARK                            x       y       z     vdW  Elec       q    Type
REMARK                         _______ _______ _______ _____ _____    ______ ____
ROOT
ATOM      1  C   UNL     1       4.830   4.842  16.851  0.00  0.00    +0.000 A 
ATOM      2  C   UNL     1       5.324   4.546  15.575  0.00  0.00    +0.000 A 
ATOM      3  C   UNL     1       6.582   4.989  15.169  0.00  0.00    +0.000 A 
ATOM      4  C   UNL     1       7.370   5.731  16.042  0.00  0.00    +0.000 A 
ATOM      5  C   UNL     1       6.899   6.033  17.325  0.00  0.00    +0.000 A 
ATOM      6  C   UNL     1       5.615   5.613  17.718  0.00  0.00    +0.000 A 
ENDROOT
BRANCH   1   9
ATOM      7  C   UNL     1       3.362   3.361  18.203  0.00  0.00    +0.000 C 
ATOM      8  O   UNL     1       4.222   2.708  18.786  0.00  0.00    +0.000 OA
ATOM      9  N   UNL     1       3.568   4.390  17.295  0.00  0.00    +0.000 N 
ATOM     10  H   UNL     1       2.736   4.902  17.011  0.00  0.00    +0.000 HD
BRANCH   7  11
ATOM     11  C   UNL     1       1.876   3.088  18.510  0.00  0.00    +0.000 C 
ATOM     12  O   UNL     1       0.977   3.573  17.844  0.00  0.00    +0.000 OA
BRANCH  11  14
ATOM     13  C   UNL     1       1.217   2.867  20.755  0.00  0.00    +0.000 C 
ATOM     14  O   UNL     1       1.777   2.279  19.584  0.00  0.00    +0.000 OA
ENDBRANCH  11  14
ENDBRANCH   7  11
ENDBRANCH   1   9
BRANCH   5  15
ATOM     15  C   UNL     1       7.792   6.813  18.225  0.00  0.00    +0.000 C 
ATOM     16  O   UNL     1       8.173   6.336  19.288  0.00  0.00    +0.000 OA
BRANCH  15  17
ATOM     17  C   UNL     1       8.142   8.199  17.814  0.00  0.00    +0.000 C 
ATOM     18  C   UNL     1       8.688   9.049  18.697  0.00  0.00    +0.000 C 
BRANCH  18  19
ATOM     19  C   UNL     1       8.994  10.428  18.315  0.00  0.00    +0.000 A 
ATOM     20  C   UNL     1       7.969  11.273  17.879  0.00  0.00    +0.000 A 
ATOM     21  C   UNL     1       8.259  12.577  17.473  0.00  0.00    +0.000 A 
ATOM     22  C   UNL     1       9.578  13.031  17.506  0.00  0.00    +0.000 A 
ATOM     23  C   UNL     1      10.620  12.198  17.938  0.00  0.00    +0.000 A 
ATOM     24  C   UNL     1      10.317  10.895  18.346  0.00  0.00    +0.000 A 
BRANCH  22  25
ATOM     25  O   UNL     1       9.863  14.310  17.108  0.00  0.00    +0.000 OA
ATOM     26  H   UNL     1       9.278  14.553  16.375  0.00  0.00    +0.000 HD
ENDBRANCH  22  25
BRANCH  23  27
ATOM     27  O   UNL     1      11.879  12.740  17.919  0.00  0.00    +0.000 OA
ATOM     28  C   UNL     1      12.313  13.431  19.081  0.00  0.00    +0.000 C 
ENDBRANCH  23  27
ENDBRANCH  18  19
ENDBRANCH  15  17
ENDBRANCH   5  15
TORSDOF 8
ENDMDL
MODEL 3
REMARK VINA RESULT:      -7.8      0.855      1.224
REMARK  Name = 
REMARK  10 active torsions:
REMARK  status: ('A' for Active; 'I' for Inactive)
REMARK    1  A    between atoms: C_1  and  O_2
REMARK    2  A    between atoms: O_2  and  C_3
REMARK    3  A    between atoms: C_3  and  C_5
REMARK    4  A    between atoms: N_7  and  C_8
REMARK    5  A    between atoms: C_12  and  C_13
REMARK    6  A    between atoms: C_13  and  C_15
REMARK    7  A    between atoms: C_16  and  C_17
REMARK    8  A    between atoms: C_20  and  O_21
REMARK    9  A    between atoms: C_22  and  O_23
REMARK   10  A    between atoms: O_23  and  C_24
REMARK                            x       y       z     vdW  Elec       q    Type
REMARK                         _______ _______ _______ _____ _____    ______ ____
ROOT
ATOM      1  C   UNL     1       3.916   3.158  17.923  0.00  0.00    +0.000 A 
ATOM      2  C   UNL     1       2.883   2.400  17.360  0.00  0.00    +0.000 A 
ATOM      3  C   UNL     1       1.664   2.241  18.019  0.00  0.00    +0.000 A 
ATOM      4  C   UNL     1       1.459   2.849  19.253  0.00  0.00    +0.000 A 
ATOM      5  C   UNL     1       2.476   3.618  19.831  0.00  0.00    +0.000 A 
ATOM      6  C   UNL     1       3.715   3.747  19.179  0.00  0.00    +0.000 A 
ENDROOT
BRANCH   1   9
ATOM      7  C   UNL     1       5.455   4.414  16.430  0.00  0.00    +0.000 C 
ATOM      8  O   UNL     1       4.728   5.362  16.147  0.00  0.00    +0.000 OA
ATOM      9  N   UNL     1       5.153   3.352  17.270  0.00  0.00    +0.000 N 
ATOM     10  H   UNL     1       5.925   2.726  17.487  0.00  0.00    +0.000 HD
BRANCH   7  11
ATOM     11  C   UNL     1       6.888   4.371  15.862  0.00  0.00    +0.000 C 
ATOM     12  O   UNL     1       7.865   4.616  16.547  0.00  0.00    +0.000 OA
BRANCH  11  14
ATOM     13  C   UNL     1       7.415   4.995  13.658  0.00  0.00    +0.000 C 
ATOM     14  O   UNL     1       6.845   4.045  14.554  0.00  0.00    +0.000 OA
ENDBRANCH  11  14
ENDBRANCH   7  11
ENDBRANCH   1   9
BRANCH   5  15
ATOM     15  C   UNL     1       2.196   4.264  21.143  0.00  0.00    +0.000 C 
ATOM     16  O   UNL     1       2.300   3.626  22.184  0.00  0.00    +0.000 OA
BRANCH  15  17
ATOM     17  C   UNL     1       1.727   5.676  21.129  0.00  0.00    +0.000 C 
ATOM     18  C   UNL     1       2.037   6.481  20.103  0.00  0.00    +0.000 C 
BRANCH  18  19
ATOM     19  C   UNL     1       1.618   7.884  20.102  0.00  0.00    +0.000 A 
ATOM     20  C   UNL     1       1.628   8.612  18.908  0.00  0.00    +0.000 A 
ATOM     21  C   UNL     1       1.270   9.961  18.906  0.00  0.00    +0.000 A 
ATOM     22  C   UNL     1       0.903  10.578  20.103  0.00  0.00    +0.000 A 
ATOM     23  C   UNL     1       0.888   9.866  21.310  0.00  0.00    +0.000 A 
ATOM     24  C   UNL     1       1.245   8.512  21.299  0.00  0.00    +0.000 A 
BRANCH  22  25
ATOM     25  O   UNL     1       0.552  11.902  20.101  0.00  0.00    +0.000 OA
ATOM     26  H   UNL     1       1.007  12.352  20.829  0.00  0.00    +0.000 HD
ENDBRANCH  22  25
BRANCH  23  27
ATOM     27  O   UNL     1       0.524  10.571  22.428  0.00  0.00    +0.000 OA
ATOM     28  C   UNL     1      -0.778  10.347  22.947  0.00  0.00    +0.000 C 
ENDBRANCH  23  27
ENDBRANCH  18  19
ENDBRANCH  15  17
ENDBRANCH   5  15
TORSDOF 8
ENDMDL
MODEL 4
REMARK VINA RESULT:      -7.7      3.783      6.231
REMARK  Name = 
REMARK  10 active torsions:
REMARK  status: ('A' for Active; 'I' for Inactive)
REMARK    1  A    between atoms: C_1  and  O_2
REMARK    2  A    between atoms: O_2  and  C_3
REMARK    3  A    between atoms: C_3  and  C_5
REMARK    4  A    between atoms: N_7  and  C_8
REMARK    5  A    between atoms: C_12  and  C_13
REMARK    6  A    between atoms: C_13  and  C_15
REMARK    7  A    between atoms: C_16  and  C_17
REMARK    8  A    between atoms: C_20  and  O_21
REMARK    9  A    between atoms: C_22  and  O_23
REMARK   10  A    between atoms: O_23  and  C_24
REMARK                            x       y       z     vdW  Elec       q    Type
REMARK                         _______ _______ _______ _____ _____    ______ ____
ROOT
ATOM      1  C   UNL     1       2.334   6.821  19.731  0.00  0.00    +0.000 A 
ATOM      2  C   UNL     1       2.846   7.040  18.447  0.00  0.00    +0.000 A 
ATOM      3  C   UNL     1       2.628   8.245  17.780  0.00  0.00    +0.000 A 
ATOM      4  C   UNL     1       1.899   9.255  18.397  0.00  0.00    +0.000 A 
ATOM      5  C   UNL     1       1.384   9.061  19.684  0.00  0.00    +0.000 A 
ATOM      6  C   UNL     1       1.576   7.831  20.338  0.00  0.00    +0.000 A 
ENDROOT
BRANCH   1   9
ATOM      7  C   UNL     1       1.978   4.394  20.132  0.00  0.00    +0.000 C 
ATOM      8  O   UNL     1       1.222   4.148  19.197  0.00  0.00    +0.000 OA
ATOM      9  N   UNL     1       2.556   5.618  20.437  0.00  0.00    +0.000 N 
ATOM     10  H   UNL     1       3.257   5.605  21.174  0.00  0.00    +0.000 HD
BRANCH   7  11
ATOM     11  C   UNL     1       2.409   3.250  21.072  0.00  0.00    +0.000 C 
ATOM     12  O   UNL     1       2.241   3.304  22.277  0.00  0.00    +0.000 OA
BRANCH  11  14
ATOM     13  C   UNL     1       4.341   2.449  20.001  0.00  0.00    +0.000 C 
ATOM     14  O   UNL     1       2.972   2.260  20.349  0.00  0.00    +0.000 OA
ENDBRANCH  11  14
ENDBRANCH   7  11
ENDBRANCH   1   9
BRANCH   5  15
ATOM     15  C   UNL     1       0.628  10.183  20.304  0.00  0.00    +0.000 C 
ATOM     16  O   UNL     1       1.135  10.859  21.192  0.00  0.00    +0.000 OA
BRANCH  15  17
ATOM     17  C   UNL     1      -0.773  10.403  19.852  0.00  0.00    +0.000 C 
ATOM     18  C   UNL     1      -1.021  10.853  18.614  0.00  0.00    +0.000 C 
BRANCH  18  19
ATOM     19  C   UNL     1      -2.393  11.115  18.175  0.00  0.00    +0.000 A 
ATOM     20  C   UNL     1      -2.796  10.739  16.891  0.00  0.00    +0.000 A 
ATOM     21  C   UNL     1      -4.090  11.023  16.450  0.00  0.00    +0.000 A 
ATOM     22  C   UNL     1      -4.978  11.683  17.300  0.00  0.00    +0.000 A 
ATOM     23  C   UNL     1      -4.592  12.069  18.592  0.00  0.00    +0.000 A 
ATOM     24  C   UNL     1      -3.293  11.776  19.024  0.00  0.00    +0.000 A 
BRANCH  22  25
ATOM     25  O   UNL     1      -6.248  11.961  16.869  0.00  0.00    +0.000 OA
ATOM     26  H   UNL     1      -6.779  11.151  16.900  0.00  0.00    +0.000 HD
ENDBRANCH  22  25
BRANCH  23  27
ATOM     27  O   UNL     1      -5.538  12.722  19.339  0.00  0.00    +0.000 OA
ATOM     28  C   UNL     1      -5.907  12.141  20.581  0.00  0.00    +0.000 C 
ENDBRANCH  23  27
ENDBRANCH  18  19
ENDBRANCH  15  17
ENDBRANCH   5  15
TORSDOF 8
ENDMDL
MODEL 5
REMARK VINA RESULT:      -7.5      3.744      6.404
REMARK  Name = 
REMARK  10 active torsions:
REMARK  status: ('A' for Active; 'I' for Inactive)
REMARK    1  A    between atoms: C_1  and  O_2
REMARK    2  A    between atoms: O_2  and  C_3
REMARK    3  A    between atoms: C_3  and  C_5
REMARK    4  A    between atoms: N_7  and  C_8
REMARK    5  A    between atoms: C_12  and  C_13
REMARK    6  A    between atoms: C_13  and  C_15
REMARK    7  A    between atoms: C_16  and  C_17
REMARK    8  A    between atoms: C_20  and  O_21
REMARK    9  A    between atoms: C_22  and  O_23
REMARK   10  A    between atoms: O_23  and  C_24
REMARK                            x       y       z     vdW  Elec       q    Type
REMARK                         _______ _______ _______ _____ _____    ______ ____
ROOT
ATOM      1  C   UNL     1       2.585   6.334  19.695  0.00  0.00    +0.000 A 
ATOM      2  C   UNL     1       3.256   6.456  18.473  0.00  0.00    +0.000 A 
ATOM      3  C   UNL     1       3.127   7.604  17.691  0.00  0.00    +0.000 A 
ATOM      4  C   UNL     1       2.327   8.653  18.129  0.00  0.00    +0.000 A 
ATOM      5  C   UNL     1       1.652   8.556  19.352  0.00  0.00    +0.000 A 
ATOM      6  C   UNL     1       1.758   7.382  20.120  0.00  0.00    +0.000 A 
ENDROOT
BRANCH   1   9
ATOM      7  C   UNL     1       1.926   4.053  20.429  0.00  0.00    +0.000 C 
ATOM      8  O   UNL     1       1.029   3.836  19.620  0.00  0.00    +0.000 OA
ATOM      9  N   UNL     1       2.713   5.192  20.516  0.00  0.00    +0.000 N 
ATOM     10  H   UNL     1       3.493   5.142  21.167  0.00  0.00    +0.000 HD
BRANCH   7  11
ATOM     11  C   UNL     1       2.298   2.959  21.450  0.00  0.00    +0.000 C 
ATOM     12  O   UNL     1       1.481   2.489  22.222  0.00  0.00    +0.000 OA
BRANCH  11  14
ATOM     13  C   UNL     1       4.028   2.207  20.050  0.00  0.00    +0.000 C 
ATOM     14  O   UNL     1       3.607   2.658  21.333  0.00  0.00    +0.000 OA
ENDBRANCH  11  14
ENDBRANCH   7  11
ENDBRANCH   1   9
BRANCH   5  15
ATOM     15  C   UNL     1       0.825   9.716  19.781  0.00  0.00    +0.000 C 
ATOM     16  O   UNL     1       1.182  10.421  20.719  0.00  0.00    +0.000 OA
BRANCH  15  17
ATOM     17  C   UNL     1      -0.466   9.941  19.076  0.00  0.00    +0.000 C 
ATOM     18  C   UNL     1      -1.107  11.112  19.195  0.00  0.00    +0.000 C 
BRANCH  18  19
ATOM     19  C   UNL     1      -2.400  11.326  18.542  0.00  0.00    +0.000 A 
ATOM     20  C   UNL     1      -3.402  12.044  19.200  0.00  0.00    +0.000 A 
ATOM     21  C   UNL     1      -4.651  12.216  18.602  0.00  0.00    +0.000 A 
ATOM     22  C   UNL     1      -4.892  11.668  17.342  0.00  0.00    +0.000 A 
ATOM     23  C   UNL     1      -3.900  10.944  16.665  0.00  0.00    +0.000 A 
ATOM     24  C   UNL     1      -2.651  10.781  17.274  0.00  0.00    +0.000 A 
BRANCH  22  25
ATOM     25  O   UNL     1      -6.117  11.837  16.753  0.00  0.00    +0.000 OA
ATOM     26  H   UNL     1      -6.330  11.049  16.230  0.00  0.00    +0.000 HD
ENDBRANCH  22  25
BRANCH  23  27
ATOM     27  O   UNL     1      -4.247  10.438  15.439  0.00  0.00    +0.000 OA
ATOM     28  C   UNL     1      -3.237  10.391  14.441  0.00  0.00    +0.000 C 
ENDBRANCH  23  27
ENDBRANCH  18  19
ENDBRANCH  15  17
ENDBRANCH   5  15
TORSDOF 8
ENDMDL
MODEL 6
REMARK VINA RESULT:      -7.5      4.129      7.159
REMARK  Name = 
REMARK  10 active torsions:
REMARK  status: ('A' for Active; 'I' for Inactive)
REMARK    1  A    between atoms: C_1  and  O_2
REMARK    2  A    between atoms: O_2  and  C_3
REMARK    3  A    between atoms: C_3  and  C_5
REMARK    4  A    between atoms: N_7  and  C_8
REMARK    5  A    between atoms: C_12  and  C_13
REMARK    6  A    between atoms: C_13  and  C_15
REMARK    7  A    between atoms: C_16  and  C_17
REMARK    8  A    between atoms: C_20  and  O_21
REMARK    9  A    between atoms: C_22  and  O_23
REMARK   10  A    between atoms: O_23  and  C_24
REMARK                            x       y       z     vdW  Elec       q    Type
REMARK                         _______ _______ _______ _____ _____    ______ ____
ROOT
ATOM      1  C   UNL     1       4.801   4.826  17.561  0.00  0.00    +0.000 A 
ATOM      2  C   UNL     1       4.934   4.760  16.169  0.00  0.00    +0.000 A 
ATOM      3  C   UNL     1       5.989   5.395  15.515  0.00  0.00    +0.000 A 
ATOM      4  C   UNL     1       6.935   6.101  16.250  0.00  0.00    +0.000 A 
ATOM      5  C   UNL     1       6.825   6.174  17.644  0.00  0.00    +0.000 A 
ATOM      6  C   UNL     1       5.740   5.561  18.296  0.00  0.00    +0.000 A 
ENDROOT
BRANCH   1   9
ATOM      7  C   UNL     1       3.921   3.182  19.203  0.00  0.00    +0.000 C 
ATOM      8  O   UNL     1       4.983   2.733  19.624  0.00  0.00    +0.000 OA
ATOM      9  N   UNL     1       3.754   4.176  18.251  0.00  0.00    +0.000 N 
ATOM     10  H   UNL     1       2.801   4.509  18.121  0.00  0.00    +0.000 HD
BRANCH   7  11
ATOM     11  C   UNL     1       2.597   2.659  19.797  0.00  0.00    +0.000 C 
ATOM     12  O   UNL     1       1.804   2.009  19.139  0.00  0.00    +0.000 OA
BRANCH  11  14
ATOM     13  C   UNL     1       2.098   4.393  21.302  0.00  0.00    +0.000 C 
ATOM     14  O   UNL     1       2.498   3.043  21.086  0.00  0.00    +0.000 OA
ENDBRANCH  11  14
ENDBRANCH   7  11
ENDBRANCH   1   9
BRANCH   5  15
ATOM     15  C   UNL     1       7.876   6.926  18.383  0.00  0.00    +0.000 C 
ATOM     16  O   UNL     1       8.435   6.424  19.352  0.00  0.00    +0.000 OA
BRANCH  15  17
ATOM     17  C   UNL     1       8.166   8.318  17.941  0.00  0.00    +0.000 C 
ATOM     18  C   UNL     1       8.867   9.146  18.730  0.00  0.00    +0.000 C 
BRANCH  18  19
ATOM     19  C   UNL     1       9.118  10.529  18.324  0.00  0.00    +0.000 A 
ATOM     20  C   UNL     1      10.398  11.073  18.462  0.00  0.00    +0.000 A 
ATOM     21  C   UNL     1      10.637  12.404  18.116  0.00  0.00    +0.000 A 
ATOM     22  C   UNL     1       9.589  13.188  17.632  0.00  0.00    +0.000 A 
ATOM     23  C   UNL     1       8.298  12.661  17.487  0.00  0.00    +0.000 A 
ATOM     24  C   UNL     1       8.072  11.324  17.834  0.00  0.00    +0.000 A 
BRANCH  22  25
ATOM     25  O   UNL     1       9.822  14.494  17.292  0.00  0.00    +0.000 OA
ATOM     26  H   UNL     1       8.976  14.964  17.235  0.00  0.00    +0.000 HD
ENDBRANCH  22  25
BRANCH  23  27
ATOM     27  O   UNL     1       7.340  13.521  17.014  0.00  0.00    +0.000 OA
ATOM     28  C   UNL     1       6.649  14.318  17.965  0.00  0.00    +0.000 C 
ENDBRANCH  23  27
ENDBRANCH  18  19
ENDBRANCH  15  17
ENDBRANCH   5  15
TORSDOF 8
ENDMDL
MODEL 7
REMARK VINA RESULT:      -7.4      3.590      8.755
REMARK  Name = 
REMARK  10 active torsions:
REMARK  status: ('A' for Active; 'I' for Inactive)
REMARK    1  A    between atoms: C_1  and  O_2
REMARK    2  A    between atoms: O_2  and  C_3
REMARK    3  A    between atoms: C_3  and  C_5
REMARK    4  A    between atoms: N_7  and  C_8
REMARK    5  A    between atoms: C_12  and  C_13
REMARK    6  A    between atoms: C_13  and  C_15
REMARK    7  A    between atoms: C_16  and  C_17
REMARK    8  A    between atoms: C_20  and  O_21
REMARK    9  A    between atoms: C_22  and  O_23
REMARK   10  A    between atoms: O_23  and  C_24
REMARK                            x       y       z     vdW  Elec       q    Type
REMARK                         _______ _______ _______ _____ _____    ______ ____
ROOT
ATOM      1  C   UNL     1      -0.546  11.394  18.659  0.00  0.00    +0.000 A 
ATOM      2  C   UNL     1       0.303  12.505  18.717  0.00  0.00    +0.000 A 
ATOM      3  C   UNL     1       1.249  12.636  19.733  0.00  0.00    +0.000 A 
ATOM      4  C   UNL     1       1.364  11.648  20.704  0.00  0.00    +0.000 A 
ATOM      5  C   UNL     1       0.530  10.525  20.661  0.00  0.00    +0.000 A 
ATOM      6  C   UNL     1      -0.446  10.414  19.655  0.00  0.00    +0.000 A 
ENDROOT
BRANCH   1   9
ATOM      7  C   UNL     1      -2.856  11.488  17.749  0.00  0.00    +0.000 C 
ATOM      8  O   UNL     1      -3.439  11.933  18.733  0.00  0.00    +0.000 OA
ATOM      9  N   UNL     1      -1.499  11.226  17.630  0.00  0.00    +0.000 N 
ATOM     10  H   UNL     1      -1.175  10.981  16.698  0.00  0.00    +0.000 HD
BRANCH   7  11
ATOM     11  C   UNL     1      -3.658  11.219  16.459  0.00  0.00    +0.000 C 
ATOM     12  O   UNL     1      -4.873  11.126  16.459  0.00  0.00    +0.000 OA
BRANCH  11  14
ATOM     13  C   UNL     1      -3.107  10.071  14.484  0.00  0.00    +0.000 C 
ATOM     14  O   UNL     1      -2.810  11.106  15.416  0.00  0.00    +0.000 OA
ENDBRANCH  11  14
ENDBRANCH   7  11
ENDBRANCH   1   9
BRANCH   5  15
ATOM     15  C   UNL     1       0.710   9.488  21.714  0.00  0.00    +0.000 C 
ATOM     16  O   UNL     1       0.750   9.804  22.898  0.00  0.00    +0.000 OA
BRANCH  15  17
ATOM     17  C   UNL     1       0.901   8.080  21.269  0.00  0.00    +0.000 C 
ATOM     18  C   UNL     1       1.886   7.770  20.414  0.00  0.00    +0.000 C 
BRANCH  18  19
ATOM     19  C   UNL     1       2.054   6.396  19.936  0.00  0.00    +0.000 A 
ATOM     20  C   UNL     1       1.565   5.330  20.696  0.00  0.00    +0.000 A 
ATOM     21  C   UNL     1       1.758   4.016  20.267  0.00  0.00    +0.000 A 
ATOM     22  C   UNL     1       2.441   3.774  19.075  0.00  0.00    +0.000 A 
ATOM     23  C   UNL     1       2.941   4.830  18.299  0.00  0.00    +0.000 A 
ATOM     24  C   UNL     1       2.738   6.143  18.738  0.00  0.00    +0.000 A 
BRANCH  22  25
ATOM     25  O   UNL     1       2.631   2.484  18.653  0.00  0.00    +0.000 OA
ATOM     26  H   UNL     1       3.061   1.979  19.360  0.00  0.00    +0.000 HD
ENDBRANCH  22  25
BRANCH  23  27
ATOM     27  O   UNL     1       3.607   4.480  17.154  0.00  0.00    +0.000 OA
ATOM     28  C   UNL     1       4.808   5.176  16.856  0.00  0.00    +0.000 C 
ENDBRANCH  23  27
ENDBRANCH  18  19
ENDBRANCH  15  17
ENDBRANCH   5  15
TORSDOF 8
ENDMDL
MODEL 8
REMARK VINA RESULT:      -7.3      4.126      9.173
REMARK  Name = 
REMARK  10 active torsions:
REMARK  status: ('A' for Active; 'I' for Inactive)
REMARK    1  A    between atoms: C_1  and  O_2
REMARK    2  A    between atoms: O_2  and  C_3
REMARK    3  A    between atoms: C_3  and  C_5
REMARK    4  A    between atoms: N_7  and  C_8
REMARK    5  A    between atoms: C_12  and  C_13
REMARK    6  A    between atoms: C_13  and  C_15
REMARK    7  A    between atoms: C_16  and  C_17
REMARK    8  A    between atoms: C_20  and  O_21
REMARK    9  A    between atoms: C_22  and  O_23
REMARK   10  A    between atoms: O_23  and  C_24
REMARK                            x       y       z     vdW  Elec       q    Type
REMARK                         _______ _______ _______ _____ _____    ______ ____
ROOT
ATOM      1  C   UNL     1      -1.538  10.983  19.115  0.00  0.00    +0.000 A 
ATOM      2  C   UNL     1      -1.255  11.192  20.469  0.00  0.00    +0.000 A 
ATOM      3  C   UNL     1      -0.033  10.808  21.018  0.00  0.00    +0.000 A 
ATOM      4  C   UNL     1       0.932  10.213  20.212  0.00  0.00    +0.000 A 
ATOM      5  C   UNL     1       0.673  10.000  18.853  0.00  0.00    +0.000 A 
ATOM      6  C   UNL     1      -0.574  10.358  18.312  0.00  0.00    +0.000 A 
ENDROOT
BRANCH   1   9
ATOM      7  C   UNL     1      -3.675  10.525  17.932  0.00  0.00    +0.000 C 
ATOM      8  O   UNL     1      -3.597   9.302  17.847  0.00  0.00    +0.000 OA
ATOM      9  N   UNL     1      -2.760  11.380  18.528  0.00  0.00    +0.000 N 
ATOM     10  H   UNL     1      -3.054  12.350  18.617  0.00  0.00    +0.000 HD
BRANCH   7  11
ATOM     11  C   UNL     1      -4.927  11.237  17.381  0.00  0.00    +0.000 C 
ATOM     12  O   UNL     1      -4.858  12.091  16.515  0.00  0.00    +0.000 OA
BRANCH  11  14
ATOM     13  C   UNL     1      -6.279  11.309  19.302  0.00  0.00    +0.000 C 
ATOM     14  O   UNL     1      -6.026  10.769  18.008  0.00  0.00    +0.000 OA
ENDBRANCH  11  14
ENDBRANCH   7  11
ENDBRANCH   1   9
BRANCH   5  15
ATOM     15  C   UNL     1       1.748   9.379  18.032  0.00  0.00    +0.000 C 
ATOM     16  O   UNL     1       2.554  10.079  17.430  0.00  0.00    +0.000 OA
BRANCH  15  17
ATOM     17  C   UNL     1       1.760   7.894  17.924  0.00  0.00    +0.000 C 
ATOM     18  C   UNL     1       2.644   7.172  18.628  0.00  0.00    +0.000 C 
BRANCH  18  19
ATOM     19  C   UNL     1       2.693   5.715  18.493  0.00  0.00    +0.000 A 
ATOM     20  C   UNL     1       3.446   5.136  17.468  0.00  0.00    +0.000 A 
ATOM     21  C   UNL     1       3.464   3.749  17.308  0.00  0.00    +0.000 A 
ATOM     22  C   UNL     1       2.727   2.946  18.178  0.00  0.00    +0.000 A 
ATOM     23  C   UNL     1       1.964   3.508  19.212  0.00  0.00    +0.000 A 
ATOM     24  C   UNL     1       1.957   4.899  19.365  0.00  0.00    +0.000 A 
BRANCH  22  25
ATOM     25  O   UNL     1       2.744   1.585  18.021  0.00  0.00    +0.000 OA
ATOM     26  H   UNL     1       3.350   1.198  18.671  0.00  0.00    +0.000 HD
ENDBRANCH  22  25
BRANCH  23  27
ATOM     27  O   UNL     1       1.268   2.629  20.000  0.00  0.00    +0.000 OA
ATOM     28  C   UNL     1       1.385   2.778  21.408  0.00  0.00    +0.000 C 
ENDBRANCH  23  27
ENDBRANCH  18  19
ENDBRANCH  15  17
ENDBRANCH   5  15
TORSDOF 8
ENDMDL
MODEL 9
REMARK VINA RESULT:      -7.3      3.737      8.699
REMARK  Name = 
REMARK  10 active torsions:
REMARK  status: ('A' for Active; 'I' for Inactive)
REMARK    1  A    between atoms: C_1  and  O_2
REMARK    2  A    between atoms: O_2  and  C_3
REMARK    3  A    between atoms: C_3  and  C_5
REMARK    4  A    between atoms: N_7  and  C_8
REMARK    5  A    between atoms: C_12  and  C_13
REMARK    6  A    between atoms: C_13  and  C_15
REMARK    7  A    between atoms: C_16  and  C_17
REMARK    8  A    between atoms: C_20  and  O_21
REMARK    9  A    between atoms: C_22  and  O_23
REMARK   10  A    between atoms: O_23  and  C_24
REMARK                            x       y       z     vdW  Elec       q    Type
REMARK                         _______ _______ _______ _____ _____    ______ ____
ROOT
ATOM      1  C   UNL     1      -1.314  11.016  19.386  0.00  0.00    +0.000 A 
ATOM      2  C   UNL     1      -1.721  11.992  20.303  0.00  0.00    +0.000 A 
ATOM      3  C   UNL     1      -1.265  11.977  21.621  0.00  0.00    +0.000 A 
ATOM      4  C   UNL     1      -0.384  10.985  22.038  0.00  0.00    +0.000 A 
ATOM      5  C   UNL     1       0.042  10.003  21.136  0.00  0.00    +0.000 A 
ATOM      6  C   UNL     1      -0.448  10.002  19.817  0.00  0.00    +0.000 A 
ENDROOT
BRANCH   1   9
ATOM      7  C   UNL     1      -2.689  10.156  17.503  0.00  0.00    +0.000 C 
ATOM      8  O   UNL     1      -3.322   9.289  18.100  0.00  0.00    +0.000 OA
ATOM      9  N   UNL     1      -1.745  11.018  18.041  0.00  0.00    +0.000 N 
ATOM     10  H   UNL     1      -1.417  11.756  17.423  0.00  0.00    +0.000 HD
BRANCH   7  11
ATOM     11  C   UNL     1      -2.968  10.393  16.006  0.00  0.00    +0.000 C 
ATOM     12  O   UNL     1      -2.603   9.610  15.146  0.00  0.00    +0.000 OA
BRANCH  11  14
ATOM     13  C   UNL     1      -4.813  11.705  16.636  0.00  0.00    +0.000 C 
ATOM     14  O   UNL     1      -3.635  11.554  15.849  0.00  0.00    +0.000 OA
ENDBRANCH  11  14
ENDBRANCH   7  11
ENDBRANCH   1   9
BRANCH   5  15
ATOM     15  C   UNL     1       1.001   8.977  21.630  0.00  0.00    +0.000 C 
ATOM     16  O   UNL     1       1.866   9.276  22.444  0.00  0.00    +0.000 OA
BRANCH  15  17
ATOM     17  C   UNL     1       0.905   7.610  21.050  0.00  0.00    +0.000 C 
ATOM     18  C   UNL     1       1.997   7.003  20.564  0.00  0.00    +0.000 C 
BRANCH  18  19
ATOM     19  C   UNL     1       1.905   5.677  19.951  0.00  0.00    +0.000 A 
ATOM     20  C   UNL     1       1.184   4.665  20.589  0.00  0.00    +0.000 A 
ATOM     21  C   UNL     1       1.126   3.386  20.032  0.00  0.00    +0.000 A 
ATOM     22  C   UNL     1       1.792   3.126  18.834  0.00  0.00    +0.000 A 
ATOM     23  C   UNL     1       2.522   4.128  18.179  0.00  0.00    +0.000 A 
ATOM     24  C   UNL     1       2.569   5.407  18.745  0.00  0.00    +0.000 A 
BRANCH  22  25
ATOM     25  O   UNL     1       1.735   1.871  18.287  0.00  0.00    +0.000 OA
ATOM     26  H   UNL     1       1.403   1.249  18.952  0.00  0.00    +0.000 HD
ENDBRANCH  22  25
BRANCH  23  27
ATOM     27  O   UNL     1       3.147   3.762  17.015  0.00  0.00    +0.000 OA
ATOM     28  C   UNL     1       4.541   4.016  16.914  0.00  0.00    +0.000 C 
ENDBRANCH  23  27
ENDBRANCH  18  19
ENDBRANCH  15  17
ENDBRANCH   5  15
TORSDOF 8
ENDMDL
