MODEL 1
REMARK VINA RESULT:      -8.8      0.000      0.000
REMARK  Name = 
REMARK  10 active torsions:
REMARK  status: ('A' for Active; 'I' for Inactive)
REMARK    1  A    between atoms: C_1  and  C_2
REMARK    2  A    between atoms: C_2  and  C_3
REMARK    3  A    between atoms: C_7  and  O_8
REMARK    4  A    between atoms: O_8  and  C_9
REMARK    5  A    between atoms: C_9  and  C_10
REMARK    6  A    between atoms: N_12  and  C_13
REMARK    7  A    between atoms: C_16  and  S_17
REMARK    8  A    between atoms: S_17  and  N_20
REMARK    9  A    between atoms: C_23  and  C_24
REMARK   10  A    between atoms: C_26  and  C_27
REMARK                            x       y       z     vdW  Elec       q    Type
REMARK                         _______ _______ _______ _____ _____    ______ ____
ROOT
ATOM      1  C   UNL     1       2.916   6.507  18.370  0.00  0.00    +0.000 A 
ATOM      2  C   UNL     1       2.598   7.797  17.924  0.00  0.00    +0.000 A 
ATOM      3  C   UNL     1       1.925   8.699  18.749  0.00  0.00    +0.000 A 
ATOM      4  C   UNL     1       1.548   8.311  20.033  0.00  0.00    +0.000 A 
ATOM      5  C   UNL     1       1.873   7.037  20.509  0.00  0.00    +0.000 A 
ATOM      6  C   UNL     1       2.537   6.131  19.668  0.00  0.00    +0.000 A 
ENDROOT
BRANCH   1   9
ATOM      7  C   UNL     1       4.937   5.223  17.669  0.00  0.00    +0.000 C 
ATOM      8  O   UNL     1       5.722   5.627  18.523  0.00  0.00    +0.000 OA
ATOM      9  N   UNL     1       3.594   5.566  17.565  0.00  0.00    +0.000 N 
ATOM     10  H   UNL     1       3.028   5.014  16.930  0.00  0.00    +0.000 HD
BRANCH   7  11
ATOM     11  C   UNL     1       5.412   4.258  16.593  0.00  0.00    +0.000 C 
BRANCH  11  12
ATOM     12  O   UNL     1       6.539   4.830  15.946  0.00  0.00    +0.000 OA
BRANCH  12  17
ATOM     13  C   UNL     1       6.098   3.572  12.473  0.00  0.00    +0.000 A 
ATOM     14  C   UNL     1       7.119   4.303  11.857  0.00  0.00    +0.000 A 
ATOM     15  C   UNL     1       7.889   5.196  12.601  0.00  0.00    +0.000 A 
ATOM     16  C   UNL     1       7.650   5.350  13.967  0.00  0.00    +0.000 A 
ATOM     17  C   UNL     1       6.636   4.627  14.597  0.00  0.00    +0.000 A 
ATOM     18  C   UNL     1       5.850   3.754  13.843  0.00  0.00    +0.000 A 
BRANCH  13  20
ATOM     19  C   UNL     1       4.045   3.113  11.149  0.00  0.00    +0.000 C 
ATOM     20  C   UNL     1       5.334   2.524  11.705  0.00  0.00    +0.000 C 
ENDBRANCH  13  20
ENDBRANCH  12  17
ENDBRANCH  11  12
ENDBRANCH   7  11
ENDBRANCH   1   9
BRANCH   4  21
ATOM     21  S   UNL     1       0.676   9.478  21.066  0.00  0.00    +0.000 S 
ATOM     22  O   UNL     1      -0.688   9.022  21.209  0.00  0.00    +0.000 OA
ATOM     23  O   UNL     1       1.510   9.722  22.224  0.00  0.00    +0.000 OA
BRANCH  21  24
ATOM     24  N   UNL     1       0.699  10.906  20.149  0.00  0.00    +0.000 N 
ATOM     25  C   UNL     1      -0.562  11.298  19.652  0.00  0.00    +0.000 A 
ATOM     26  C   UNL     1      -1.425  12.041  20.417  0.00  0.00    +0.000 A 
ATOM     27  C   UNL     1      -2.653  12.284  19.848  0.00  0.00    +0.000 A 
ATOM     28  C   UNL     1      -3.682  13.118  20.548  0.00  0.00    +0.000 C 
ATOM     29  N   UNL     1      -2.995  11.784  18.641  0.00  0.00    +0.000 NA
ATOM     30  C   UNL     1      -2.072  11.055  17.985  0.00  0.00    +0.000 A 
ATOM     31  C   UNL     1      -2.472  10.433  16.685  0.00  0.00    +0.000 C 
ATOM     32  N   UNL     1      -0.836  10.801  18.442  0.00  0.00    +0.000 NA
ATOM     33  H   UNL     1       1.375  10.813  19.393  0.00  0.00    +0.000 HD
ENDBRANCH  21  24
ENDBRANCH   4  21
TORSDOF 7
ENDMDL
MODEL 2
REMARK VINA RESULT:      -8.5      2.634      9.459
REMARK  Name = 
REMARK  10 active torsions:
REMARK  status: ('A' for Active; 'I' for Inactive)
REMARK    1  A    between atoms: C_1  and  C_2
REMARK    2  A    between atoms: C_2  and  C_3
REMARK    3  A    between atoms: C_7  and  O_8
REMARK    4  A    between atoms: O_8  and  C_9
REMARK    5  A    between atoms: C_9  and  C_10
REMARK    6  A    between atoms: N_12  and  C_13
REMARK    7  A    between atoms: C_16  and  S_17
REMARK    8  A    between atoms: S_17  and  N_20
REMARK    9  A    between atoms: C_23  and  C_24
REMARK   10  A    between atoms: C_26  and  C_27
REMARK                            x       y       z     vdW  Elec       q    Type
REMARK                         _______ _______ _______ _____ _____    ______ ____
ROOT
ATOM      1  C   UNL     1       1.936   7.331  19.784  0.00  0.00    +0.000 A 
ATOM      2  C   UNL     1       2.069   6.218  20.623  0.00  0.00    +0.000 A 
ATOM      3  C   UNL     1       2.334   4.951  20.103  0.00  0.00    +0.000 A 
ATOM      4  C   UNL     1       2.454   4.781  18.725  0.00  0.00    +0.000 A 
ATOM      5  C   UNL     1       2.347   5.881  17.868  0.00  0.00    +0.000 A 
ATOM      6  C   UNL     1       2.065   7.149  18.398  0.00  0.00    +0.000 A 
ENDROOT
BRANCH   1   9
ATOM      7  C   UNL     1       0.599   8.985  21.088  0.00  0.00    +0.000 C 
ATOM      8  O   UNL     1      -0.228   8.218  21.574  0.00  0.00    +0.000 OA
ATOM      9  N   UNL     1       1.666   8.629  20.271  0.00  0.00    +0.000 N 
ATOM     10  H   UNL     1       2.369   9.338  20.101  0.00  0.00    +0.000 HD
BRANCH   7  11
ATOM     11  C   UNL     1       0.505  10.480  21.363  0.00  0.00    +0.000 C 
BRANCH  11  12
ATOM     12  O   UNL     1       0.484  11.162  20.118  0.00  0.00    +0.000 OA
BRANCH  12  17
ATOM     13  C   UNL     1      -2.219  10.578  17.632  0.00  0.00    +0.000 A 
ATOM     14  C   UNL     1      -3.188  11.428  18.176  0.00  0.00    +0.000 A 
ATOM     15  C   UNL     1      -2.923  12.134  19.348  0.00  0.00    +0.000 A 
ATOM     16  C   UNL     1      -1.682  12.003  19.973  0.00  0.00    +0.000 A 
ATOM     17  C   UNL     1      -0.704  11.161  19.442  0.00  0.00    +0.000 A 
ATOM     18  C   UNL     1      -0.984  10.435  18.282  0.00  0.00    +0.000 A 
BRANCH  13  20
ATOM     19  C   UNL     1      -3.135  10.853  15.338  0.00  0.00    +0.000 C 
ATOM     20  C   UNL     1      -2.453   9.897  16.307  0.00  0.00    +0.000 C 
ENDBRANCH  13  20
ENDBRANCH  12  17
ENDBRANCH  11  12
ENDBRANCH   7  11
ENDBRANCH   1   9
BRANCH   4  21
ATOM     21  S   UNL     1       2.780   3.148  18.082  0.00  0.00    +0.000 S 
ATOM     22  O   UNL     1       2.165   2.184  18.966  0.00  0.00    +0.000 OA
ATOM     23  O   UNL     1       2.463   3.180  16.669  0.00  0.00    +0.000 OA
BRANCH  21  24
ATOM     24  N   UNL     1       4.468   3.014  18.191  0.00  0.00    +0.000 N 
ATOM     25  C   UNL     1       5.178   3.939  17.396  0.00  0.00    +0.000 A 
ATOM     26  C   UNL     1       5.450   5.204  17.854  0.00  0.00    +0.000 A 
ATOM     27  C   UNL     1       6.072   6.033  16.951  0.00  0.00    +0.000 A 
ATOM     28  C   UNL     1       6.471   7.428  17.324  0.00  0.00    +0.000 C 
ATOM     29  N   UNL     1       6.351   5.639  15.690  0.00  0.00    +0.000 NA
ATOM     30  C   UNL     1       6.025   4.379  15.345  0.00  0.00    +0.000 A 
ATOM     31  C   UNL     1       6.258   3.963  13.927  0.00  0.00    +0.000 C 
ATOM     32  N   UNL     1       5.454   3.487  16.170  0.00  0.00    +0.000 NA
ATOM     33  H   UNL     1       4.748   2.059  17.974  0.00  0.00    +0.000 HD
ENDBRANCH  21  24
ENDBRANCH   4  21
TORSDOF 7
ENDMDL
MODEL 3
REMARK VINA RESULT:      -8.5      0.666      1.094
REMARK  Name = 
REMARK  10 active torsions:
REMARK  status: ('A' for Active; 'I' for Inactive)
REMARK    1  A    between atoms: C_1  and  C_2
REMARK    2  A    between atoms: C_2  and  C_3
REMARK    3  A    between atoms: C_7  and  O_8
REMARK    4  A    between atoms: O_8  and  C_9
REMARK    5  A    between atoms: C_9  and  C_10
REMARK    6  A    between atoms: N_12  and  C_13
REMARK    7  A    between atoms: C_16  and  S_17
REMARK    8  A    between atoms: S_17  and  N_20
REMARK    9  A    between atoms: C_23  and  C_24
REMARK   10  A    between atoms: C_26  and  C_27
REMARK                            x       y       z     vdW  Elec       q    Type
REMARK                         _______ _______ _______ _____ _____    ______ ____
ROOT
ATOM      1  C   UNL     1       3.017   6.768  18.274  0.00  0.00    +0.000 A 
ATOM      2  C   UNL     1       2.650   6.400  19.575  0.00  0.00    +0.000 A 
ATOM      3  C   UNL     1       1.929   7.270  20.394  0.00  0.00    +0.000 A 
ATOM      4  C   UNL     1       1.580   8.533  19.921  0.00  0.00    +0.000 A 
ATOM      5  C   UNL     1       1.916   8.915  18.618  0.00  0.00    +0.000 A 
ATOM      6  C   UNL     1       2.653   8.040  17.806  0.00  0.00    +0.000 A 
ENDROOT
BRANCH   1   9
ATOM      7  C   UNL     1       3.946   4.554  17.599  0.00  0.00    +0.000 C 
ATOM      8  O   UNL     1       3.457   3.864  18.490  0.00  0.00    +0.000 OA
ATOM      9  N   UNL     1       3.747   5.917  17.416  0.00  0.00    +0.000 N 
ATOM     10  H   UNL     1       4.060   6.312  16.536  0.00  0.00    +0.000 HD
BRANCH   7  11
ATOM     11  C   UNL     1       4.869   3.921  16.566  0.00  0.00    +0.000 C 
BRANCH  11  12
ATOM     12  O   UNL     1       5.525   4.961  15.857  0.00  0.00    +0.000 OA
BRANCH  12  17
ATOM     13  C   UNL     1       5.855   3.555  12.429  0.00  0.00    +0.000 A 
ATOM     14  C   UNL     1       7.099   4.106  12.099  0.00  0.00    +0.000 A 
ATOM     15  C   UNL     1       7.760   4.935  13.003  0.00  0.00    +0.000 A 
ATOM     16  C   UNL     1       7.188   5.206  14.246  0.00  0.00    +0.000 A 
ATOM     17  C   UNL     1       5.950   4.663  14.592  0.00  0.00    +0.000 A 
ATOM     18  C   UNL     1       5.278   3.854  13.673  0.00  0.00    +0.000 A 
BRANCH  13  20
ATOM     19  C   UNL     1       3.848   3.121  11.029  0.00  0.00    +0.000 C 
ATOM     20  C   UNL     1       5.184   2.569  11.507  0.00  0.00    +0.000 C 
ENDBRANCH  13  20
ENDBRANCH  12  17
ENDBRANCH  11  12
ENDBRANCH   7  11
ENDBRANCH   1   9
BRANCH   4  21
ATOM     21  S   UNL     1       0.669   9.634  20.991  0.00  0.00    +0.000 S 
ATOM     22  O   UNL     1      -0.677   9.124  21.123  0.00  0.00    +0.000 OA
ATOM     23  O   UNL     1       1.498   9.874  22.154  0.00  0.00    +0.000 OA
BRANCH  21  24
ATOM     24  N   UNL     1       0.636  11.089  20.119  0.00  0.00    +0.000 N 
ATOM     25  C   UNL     1      -0.635  11.436  19.614  0.00  0.00    +0.000 A 
ATOM     26  C   UNL     1      -1.545  12.113  20.388  0.00  0.00    +0.000 A 
ATOM     27  C   UNL     1      -2.775  12.313  19.808  0.00  0.00    +0.000 A 
ATOM     28  C   UNL     1      -3.853  13.075  20.516  0.00  0.00    +0.000 C 
ATOM     29  N   UNL     1      -3.075  11.836  18.581  0.00  0.00    +0.000 NA
ATOM     30  C   UNL     1      -2.109  11.173  17.918  0.00  0.00    +0.000 A 
ATOM     31  C   UNL     1      -2.460  10.573  16.593  0.00  0.00    +0.000 C 
ATOM     32  N   UNL     1      -0.868  10.964  18.386  0.00  0.00    +0.000 NA
ATOM     33  H   UNL     1       1.326  11.053  19.371  0.00  0.00    +0.000 HD
ENDBRANCH  21  24
ENDBRANCH   4  21
TORSDOF 7
ENDMDL
MODEL 4
REMARK VINA RESULT:      -8.4      2.998      4.517
REMARK  Name = 
REMARK  10 active torsions:
REMARK  status: ('A' for Active; 'I' for Inactive)
REMARK    1  A    between atoms: C_1  and  C_2
REMARK    2  A    between atoms: C_2  and  C_3
REMARK    3  A    between atoms: C_7  and  O_8
REMARK    4  A    between atoms: O_8  and  C_9
REMARK    5  A    between atoms: C_9  and  C_10
REMARK    6  A    between atoms: N_12  and  C_13
REMARK    7  A    between atoms: C_16  and  S_17
REMARK    8  A    between atoms: S_17  and  N_20
REMARK    9  A    between atoms: C_23  and  C_24
REMARK   10  A    between atoms: C_26  and  C_27
REMARK                            x       y       z     vdW  Elec       q    Type
REMARK                         _______ _______ _______ _____ _____    ______ ____
ROOT
ATOM      1  C   UNL     1       2.242   7.440  19.666  0.00  0.00    +0.000 A 
ATOM      2  C   UNL     1       1.452   7.985  20.687  0.00  0.00    +0.000 A 
ATOM      3  C   UNL     1       0.683   9.129  20.470  0.00  0.00    +0.000 A 
ATOM      4  C   UNL     1       0.709   9.752  19.224  0.00  0.00    +0.000 A 
ATOM      5  C   UNL     1       1.472   9.215  18.183  0.00  0.00    +0.000 A 
ATOM      6  C   UNL     1       2.255   8.073  18.414  0.00  0.00    +0.000 A 
ENDROOT
BRANCH   1   9
ATOM      7  C   UNL     1       2.768   5.026  19.326  0.00  0.00    +0.000 C 
ATOM      8  O   UNL     1       1.847   4.737  18.566  0.00  0.00    +0.000 OA
ATOM      9  N   UNL     1       3.035   6.286  19.847  0.00  0.00    +0.000 N 
ATOM     10  H   UNL     1       3.930   6.412  20.305  0.00  0.00    +0.000 HD
BRANCH   7  11
ATOM     11  C   UNL     1       3.745   3.951  19.781  0.00  0.00    +0.000 C 
BRANCH  11  12
ATOM     12  O   UNL     1       4.350   3.381  18.630  0.00  0.00    +0.000 OA
BRANCH  12  17
ATOM     13  C   UNL     1       7.006   5.828  17.744  0.00  0.00    +0.000 A 
ATOM     14  C   UNL     1       6.880   5.776  16.351  0.00  0.00    +0.000 A 
ATOM     15  C   UNL     1       5.949   4.921  15.764  0.00  0.00    +0.000 A 
ATOM     16  C   UNL     1       5.131   4.125  16.567  0.00  0.00    +0.000 A 
ATOM     17  C   UNL     1       5.243   4.168  17.958  0.00  0.00    +0.000 A 
ATOM     18  C   UNL     1       6.195   5.006  18.541  0.00  0.00    +0.000 A 
BRANCH  13  20
ATOM     19  C   UNL     1       7.863   8.160  17.656  0.00  0.00    +0.000 C 
ATOM     20  C   UNL     1       7.929   6.829  18.393  0.00  0.00    +0.000 C 
ENDBRANCH  13  20
ENDBRANCH  12  17
ENDBRANCH  11  12
ENDBRANCH   7  11
ENDBRANCH   1   9
BRANCH   4  21
ATOM     21  S   UNL     1      -0.273  11.222  18.974  0.00  0.00    +0.000 S 
ATOM     22  O   UNL     1      -1.330  10.905  18.041  0.00  0.00    +0.000 OA
ATOM     23  O   UNL     1      -0.567  11.763  20.285  0.00  0.00    +0.000 OA
BRANCH  21  24
ATOM     24  N   UNL     1       0.815  12.301  18.245  0.00  0.00    +0.000 N 
ATOM     25  C   UNL     1       1.021  13.496  18.965  0.00  0.00    +0.000 A 
ATOM     26  C   UNL     1       1.945  13.563  19.978  0.00  0.00    +0.000 A 
ATOM     27  C   UNL     1       1.987  14.759  20.656  0.00  0.00    +0.000 A 
ATOM     28  C   UNL     1       2.976  14.993  21.756  0.00  0.00    +0.000 C 
ATOM     29  N   UNL     1       1.144  15.774  20.371  0.00  0.00    +0.000 NA
ATOM     30  C   UNL     1       0.267  15.591  19.366  0.00  0.00    +0.000 A 
ATOM     31  C   UNL     1      -0.723  16.681  19.098  0.00  0.00    +0.000 C 
ATOM     32  N   UNL     1       0.181  14.477  18.622  0.00  0.00    +0.000 NA
ATOM     33  H   UNL     1       0.511  12.498  17.293  0.00  0.00    +0.000 HD
ENDBRANCH  21  24
ENDBRANCH   4  21
TORSDOF 7
ENDMDL
MODEL 5
REMARK VINA RESULT:      -8.4      2.784      9.568
REMARK  Name = 
REMARK  10 active torsions:
REMARK  status: ('A' for Active; 'I' for Inactive)
REMARK    1  A    between atoms: C_1  and  C_2
REMARK    2  A    between atoms: C_2  and  C_3
REMARK    3  A    between atoms: C_7  and  O_8
REMARK    4  A    between atoms: O_8  and  C_9
REMARK    5  A    between atoms: C_9  and  C_10
REMARK    6  A    between atoms: N_12  and  C_13
REMARK    7  A    between atoms: C_16  and  S_17
REMARK    8  A    between atoms: S_17  and  N_20
REMARK    9  A    between atoms: C_23  and  C_24
REMARK   10  A    between atoms: C_26  and  C_27
REMARK                            x       y       z     vdW  Elec       q    Type
REMARK                         _______ _______ _______ _____ _____    ______ ____
ROOT
ATOM      1  C   UNL     1       1.960   6.945  20.358  0.00  0.00    +0.000 A 
ATOM      2  C   UNL     1       1.994   5.670  20.937  0.00  0.00    +0.000 A 
ATOM      3  C   UNL     1       2.243   4.535  20.165  0.00  0.00    +0.000 A 
ATOM      4  C   UNL     1       2.447   4.664  18.793  0.00  0.00    +0.000 A 
ATOM      5  C   UNL     1       2.440   5.928  18.196  0.00  0.00    +0.000 A 
ATOM      6  C   UNL     1       2.174   7.064  18.976  0.00  0.00    +0.000 A 
ENDROOT
BRANCH   1   9
ATOM      7  C   UNL     1       0.467   8.544  21.557  0.00  0.00    +0.000 C 
ATOM      8  O   UNL     1      -0.593   7.933  21.444  0.00  0.00    +0.000 OA
ATOM      9  N   UNL     1       1.710   8.117  21.105  0.00  0.00    +0.000 N 
ATOM     10  H   UNL     1       2.518   8.634  21.432  0.00  0.00    +0.000 HD
BRANCH   7  11
ATOM     11  C   UNL     1       0.493   9.903  22.242  0.00  0.00    +0.000 C 
BRANCH  11  12
ATOM     12  O   UNL     1      -0.713  10.584  21.930  0.00  0.00    +0.000 OA
BRANCH  12  17
ATOM     13  C   UNL     1      -1.421  11.809  18.491  0.00  0.00    +0.000 A 
ATOM     14  C   UNL     1      -0.471  12.835  18.436  0.00  0.00    +0.000 A 
ATOM     15  C   UNL     1       0.341  13.097  19.539  0.00  0.00    +0.000 A 
ATOM     16  C   UNL     1       0.215  12.326  20.695  0.00  0.00    +0.000 A 
ATOM     17  C   UNL     1      -0.727  11.298  20.764  0.00  0.00    +0.000 A 
ATOM     18  C   UNL     1      -1.555  11.055  19.667  0.00  0.00    +0.000 A 
BRANCH  13  20
ATOM     19  C   UNL     1      -2.027   9.973  16.929  0.00  0.00    +0.000 C 
ATOM     20  C   UNL     1      -2.225  11.444  17.268  0.00  0.00    +0.000 C 
ENDBRANCH  13  20
ENDBRANCH  12  17
ENDBRANCH  11  12
ENDBRANCH   7  11
ENDBRANCH   1   9
BRANCH   4  21
ATOM     21  S   UNL     1       2.751   3.196  17.823  0.00  0.00    +0.000 S 
ATOM     22  O   UNL     1       2.073   2.088  18.458  0.00  0.00    +0.000 OA
ATOM     23  O   UNL     1       2.492   3.541  16.441  0.00  0.00    +0.000 OA
BRANCH  21  24
ATOM     24  N   UNL     1       4.429   2.979  17.956  0.00  0.00    +0.000 N 
ATOM     25  C   UNL     1       5.196   3.903  17.215  0.00  0.00    +0.000 A 
ATOM     26  C   UNL     1       5.516   5.133  17.732  0.00  0.00    +0.000 A 
ATOM     27  C   UNL     1       6.193   5.970  16.876  0.00  0.00    +0.000 A 
ATOM     28  C   UNL     1       6.648   7.328  17.317  0.00  0.00    +0.000 C 
ATOM     29  N   UNL     1       6.478   5.618  15.604  0.00  0.00    +0.000 NA
ATOM     30  C   UNL     1       6.101   4.390  15.200  0.00  0.00    +0.000 A 
ATOM     31  C   UNL     1       6.343   4.024  13.769  0.00  0.00    +0.000 C 
ATOM     32  N   UNL     1       5.475   3.491  15.975  0.00  0.00    +0.000 NA
ATOM     33  H   UNL     1       4.668   2.022  17.703  0.00  0.00    +0.000 HD
ENDBRANCH  21  24
ENDBRANCH   4  21
TORSDOF 7
ENDMDL
MODEL 6
REMARK VINA RESULT:      -8.3      3.082      4.743
REMARK  Name = 
REMARK  10 active torsions:
REMARK  status: ('A' for Active; 'I' for Inactive)
REMARK    1  A    between atoms: C_1  and  C_2
REMARK    2  A    between atoms: C_2  and  C_3
REMARK    3  A    between atoms: C_7  and  O_8
REMARK    4  A    between atoms: O_8  and  C_9
REMARK    5  A    between atoms: C_9  and  C_10
REMARK    6  A    between atoms: N_12  and  C_13
REMARK    7  A    between atoms: C_16  and  S_17
REMARK    8  A    between atoms: S_17  and  N_20
REMARK    9  A    between atoms: C_23  and  C_24
REMARK   10  A    between atoms: C_26  and  C_27
REMARK                            x       y       z     vdW  Elec       q    Type
REMARK                         _______ _______ _______ _____ _____    ______ ____
ROOT
ATOM      1  C   UNL     1       2.283   7.052  19.082  0.00  0.00    +0.000 A 
ATOM      2  C   UNL     1       1.763   7.346  20.349  0.00  0.00    +0.000 A 
ATOM      3  C   UNL     1       1.198   8.592  20.625  0.00  0.00    +0.000 A 
ATOM      4  C   UNL     1       1.161   9.568  19.632  0.00  0.00    +0.000 A 
ATOM      5  C   UNL     1       1.654   9.291  18.353  0.00  0.00    +0.000 A 
ATOM      6  C   UNL     1       2.235   8.041  18.088  0.00  0.00    +0.000 A 
ENDROOT
BRANCH   1   9
ATOM      7  C   UNL     1       3.082   4.759  19.655  0.00  0.00    +0.000 C 
ATOM      8  O   UNL     1       2.734   4.727  20.833  0.00  0.00    +0.000 OA
ATOM      9  N   UNL     1       2.864   5.805  18.766  0.00  0.00    +0.000 N 
ATOM     10  H   UNL     1       3.038   5.615  17.785  0.00  0.00    +0.000 HD
BRANCH   7  11
ATOM     11  C   UNL     1       3.827   3.578  19.049  0.00  0.00    +0.000 C 
BRANCH  11  12
ATOM     12  O   UNL     1       5.205   3.710  19.363  0.00  0.00    +0.000 OA
BRANCH  12  17
ATOM     13  C   UNL     1       7.449   6.365  18.042  0.00  0.00    +0.000 A 
ATOM     14  C   UNL     1       7.243   6.149  16.675  0.00  0.00    +0.000 A 
ATOM     15  C   UNL     1       6.400   5.126  16.247  0.00  0.00    +0.000 A 
ATOM     16  C   UNL     1       5.747   4.324  17.184  0.00  0.00    +0.000 A 
ATOM     17  C   UNL     1       5.941   4.528  18.551  0.00  0.00    +0.000 A 
ATOM     18  C   UNL     1       6.807   5.537  18.976  0.00  0.00    +0.000 A 
BRANCH  13  20
ATOM     19  C   UNL     1       7.925   8.782  17.711  0.00  0.00    +0.000 C 
ATOM     20  C   UNL     1       8.269   7.538  18.518  0.00  0.00    +0.000 C 
ENDBRANCH  13  20
ENDBRANCH  12  17
ENDBRANCH  11  12
ENDBRANCH   7  11
ENDBRANCH   1   9
BRANCH   4  21
ATOM     21  S   UNL     1       0.446  11.159  20.011  0.00  0.00    +0.000 S 
ATOM     22  O   UNL     1      -0.915  10.948  20.450  0.00  0.00    +0.000 OA
ATOM     23  O   UNL     1       1.400  11.865  20.840  0.00  0.00    +0.000 OA
BRANCH  21  24
ATOM     24  N   UNL     1       0.436  11.952  18.511  0.00  0.00    +0.000 N 
ATOM     25  C   UNL     1       1.164  13.161  18.487  0.00  0.00    +0.000 A 
ATOM     26  C   UNL     1       2.517  13.169  18.256  0.00  0.00    +0.000 A 
ATOM     27  C   UNL     1       3.120  14.402  18.344  0.00  0.00    +0.000 A 
ATOM     28  C   UNL     1       4.584  14.571  18.074  0.00  0.00    +0.000 C 
ATOM     29  N   UNL     1       2.432  15.514  18.680  0.00  0.00    +0.000 NA
ATOM     30  C   UNL     1       1.110  15.385  18.899  0.00  0.00    +0.000 A 
ATOM     31  C   UNL     1       0.357  16.597  19.348  0.00  0.00    +0.000 C 
ATOM     32  N   UNL     1       0.429  14.232  18.796  0.00  0.00    +0.000 NA
ATOM     33  H   UNL     1      -0.525  12.102  18.212  0.00  0.00    +0.000 HD
ENDBRANCH  21  24
ENDBRANCH   4  21
TORSDOF 7
ENDMDL
MODEL 7
REMARK VINA RESULT:      -8.3      2.867     10.736
REMARK  Name = 
REMARK  10 active torsions:
REMARK  status: ('A' for Active; 'I' for Inactive)
REMARK    1  A    between atoms: C_1  and  C_2
REMARK    2  A    between atoms: C_2  and  C_3
REMARK    3  A    between atoms: C_7  and  O_8
REMARK    4  A    between atoms: O_8  and  C_9
REMARK    5  A    between atoms: C_9  and  C_10
REMARK    6  A    between atoms: N_12  and  C_13
REMARK    7  A    between atoms: C_16  and  S_17
REMARK    8  A    between atoms: S_17  and  N_20
REMARK    9  A    between atoms: C_23  and  C_24
REMARK   10  A    between atoms: C_26  and  C_27
REMARK                            x       y       z     vdW  Elec       q    Type
REMARK                         _______ _______ _______ _____ _____    ______ ____
ROOT
ATOM      1  C   UNL     1       1.952   6.840  20.560  0.00  0.00    +0.000 A 
ATOM      2  C   UNL     1       1.897   5.519  21.025  0.00  0.00    +0.000 A 
ATOM      3  C   UNL     1       2.127   4.443  20.167  0.00  0.00    +0.000 A 
ATOM      4  C   UNL     1       2.402   4.678  18.822  0.00  0.00    +0.000 A 
ATOM      5  C   UNL     1       2.484   5.988  18.339  0.00  0.00    +0.000 A 
ATOM      6  C   UNL     1       2.236   7.065  19.204  0.00  0.00    +0.000 A 
ENDROOT
BRANCH   1   9
ATOM      7  C   UNL     1       0.480   8.430  21.795  0.00  0.00    +0.000 C 
ATOM      8  O   UNL     1      -0.607   7.912  21.549  0.00  0.00    +0.000 OA
ATOM      9  N   UNL     1       1.723   7.955  21.395  0.00  0.00    +0.000 N 
ATOM     10  H   UNL     1       2.536   8.378  21.828  0.00  0.00    +0.000 HD
BRANCH   7  11
ATOM     11  C   UNL     1       0.543   9.716  22.607  0.00  0.00    +0.000 C 
BRANCH  11  12
ATOM     12  O   UNL     1       0.421  10.814  21.716  0.00  0.00    +0.000 OA
BRANCH  12  17
ATOM     13  C   UNL     1      -2.803  12.366  22.733  0.00  0.00    +0.000 A 
ATOM     14  C   UNL     1      -3.251  12.760  21.467  0.00  0.00    +0.000 A 
ATOM     15  C   UNL     1      -2.465  12.524  20.341  0.00  0.00    +0.000 A 
ATOM     16  C   UNL     1      -1.234  11.881  20.473  0.00  0.00    +0.000 A 
ATOM     17  C   UNL     1      -0.774  11.480  21.728  0.00  0.00    +0.000 A 
ATOM     18  C   UNL     1      -1.552  11.741  22.857  0.00  0.00    +0.000 A 
BRANCH  13  20
ATOM     19  C   UNL     1      -3.502  13.888  24.570  0.00  0.00    +0.000 C 
ATOM     20  C   UNL     1      -3.692  12.514  23.941  0.00  0.00    +0.000 C 
ENDBRANCH  13  20
ENDBRANCH  12  17
ENDBRANCH  11  12
ENDBRANCH   7  11
ENDBRANCH   1   9
BRANCH   4  21
ATOM     21  S   UNL     1       2.680   3.285  17.741  0.00  0.00    +0.000 S 
ATOM     22  O   UNL     1       1.955   2.152  18.270  0.00  0.00    +0.000 OA
ATOM     23  O   UNL     1       2.461   3.750  16.387  0.00  0.00    +0.000 OA
BRANCH  21  24
ATOM     24  N   UNL     1       4.347   3.003  17.886  0.00  0.00    +0.000 N 
ATOM     25  C   UNL     1       5.155   3.899  17.153  0.00  0.00    +0.000 A 
ATOM     26  C   UNL     1       5.519   5.115  17.677  0.00  0.00    +0.000 A 
ATOM     27  C   UNL     1       6.234   5.928  16.829  0.00  0.00    +0.000 A 
ATOM     28  C   UNL     1       6.737   7.266  17.277  0.00  0.00    +0.000 C 
ATOM     29  N   UNL     1       6.515   5.568  15.558  0.00  0.00    +0.000 NA
ATOM     30  C   UNL     1       6.094   4.356  15.147  0.00  0.00    +0.000 A 
ATOM     31  C   UNL     1       6.333   3.985  13.717  0.00  0.00    +0.000 C 
ATOM     32  N   UNL     1       5.427   3.480  15.915  0.00  0.00    +0.000 NA
ATOM     33  H   UNL     1       4.552   2.039  17.632  0.00  0.00    +0.000 HD
ENDBRANCH  21  24
ENDBRANCH   4  21
TORSDOF 7
ENDMDL
MODEL 8
REMARK VINA RESULT:      -8.3      1.328      1.689
REMARK  Name = 
REMARK  10 active torsions:
REMARK  status: ('A' for Active; 'I' for Inactive)
REMARK    1  A    between atoms: C_1  and  C_2
REMARK    2  A    between atoms: C_2  and  C_3
REMARK    3  A    between atoms: C_7  and  O_8
REMARK    4  A    between atoms: O_8  and  C_9
REMARK    5  A    between atoms: C_9  and  C_10
REMARK    6  A    between atoms: N_12  and  C_13
REMARK    7  A    between atoms: C_16  and  S_17
REMARK    8  A    between atoms: S_17  and  N_20
REMARK    9  A    between atoms: C_23  and  C_24
REMARK   10  A    between atoms: C_26  and  C_27
REMARK                            x       y       z     vdW  Elec       q    Type
REMARK                         _______ _______ _______ _____ _____    ______ ____
ROOT
ATOM      1  C   UNL     1       2.531   6.397  18.715  0.00  0.00    +0.000 A 
ATOM      2  C   UNL     1       2.344   7.664  18.148  0.00  0.00    +0.000 A 
ATOM      3  C   UNL     1       1.782   8.707  18.884  0.00  0.00    +0.000 A 
ATOM      4  C   UNL     1       1.383   8.486  20.201  0.00  0.00    +0.000 A 
ATOM      5  C   UNL     1       1.579   7.236  20.796  0.00  0.00    +0.000 A 
ATOM      6  C   UNL     1       2.132   6.188  20.044  0.00  0.00    +0.000 A 
ENDROOT
BRANCH   1   9
ATOM      7  C   UNL     1       2.398   4.227  17.492  0.00  0.00    +0.000 C 
ATOM      8  O   UNL     1       1.179   4.072  17.513  0.00  0.00    +0.000 OA
ATOM      9  N   UNL     1       3.094   5.316  18.002  0.00  0.00    +0.000 N 
ATOM     10  H   UNL     1       4.072   5.395  17.747  0.00  0.00    +0.000 HD
BRANCH   7  11
ATOM     11  C   UNL     1       3.290   3.164  16.865  0.00  0.00    +0.000 C 
BRANCH  11  12
ATOM     12  O   UNL     1       4.634   3.435  17.232  0.00  0.00    +0.000 OA
BRANCH  12  17
ATOM     13  C   UNL     1       6.297   4.114  13.975  0.00  0.00    +0.000 A 
ATOM     14  C   UNL     1       7.331   4.935  14.438  0.00  0.00    +0.000 A 
ATOM     15  C   UNL     1       7.421   5.252  15.792  0.00  0.00    +0.000 A 
ATOM     16  C   UNL     1       6.486   4.738  16.691  0.00  0.00    +0.000 A 
ATOM     17  C   UNL     1       5.451   3.916  16.245  0.00  0.00    +0.000 A 
ATOM     18  C   UNL     1       5.348   3.622  14.885  0.00  0.00    +0.000 A 
BRANCH  13  20
ATOM     19  C   UNL     1       4.841   3.261  12.151  0.00  0.00    +0.000 C 
ATOM     20  C   UNL     1       6.255   3.674  12.534  0.00  0.00    +0.000 C 
ENDBRANCH  13  20
ENDBRANCH  12  17
ENDBRANCH  11  12
ENDBRANCH   7  11
ENDBRANCH   1   9
BRANCH   4  21
ATOM     21  S   UNL     1       0.654   9.832  21.120  0.00  0.00    +0.000 S 
ATOM     22  O   UNL     1      -0.669   9.427  21.538  0.00  0.00    +0.000 OA
ATOM     23  O   UNL     1       1.643  10.272  22.082  0.00  0.00    +0.000 OA
BRANCH  21  24
ATOM     24  N   UNL     1       0.525  11.069  19.966  0.00  0.00    +0.000 N 
ATOM     25  C   UNL     1      -0.800  11.376  19.588  0.00  0.00    +0.000 A 
ATOM     26  C   UNL     1      -1.560  12.254  20.319  0.00  0.00    +0.000 A 
ATOM     27  C   UNL     1      -2.859  12.400  19.894  0.00  0.00    +0.000 A 
ATOM     28  C   UNL     1      -3.794  13.357  20.568  0.00  0.00    +0.000 C 
ATOM     29  N   UNL     1      -3.358  11.693  18.858  0.00  0.00    +0.000 NA
ATOM     30  C   UNL     1      -2.524  10.849  18.222  0.00  0.00    +0.000 A 
ATOM     31  C   UNL     1      -3.091  10.004  17.125  0.00  0.00    +0.000 C 
ATOM     32  N   UNL     1      -1.232  10.671  18.539  0.00  0.00    +0.000 NA
ATOM     33  H   UNL     1       1.089  10.835  19.152  0.00  0.00    +0.000 HD
ENDBRANCH  21  24
ENDBRANCH   4  21
TORSDOF 7
ENDMDL
MODEL 9
REMARK VINA RESULT:      -8.3      2.975      4.538
REMARK  Name = 
REMARK  10 active torsions:
REMARK  status: ('A' for Active; 'I' for Inactive)
REMARK    1  A    between atoms: C_1  and  C_2
REMARK    2  A    between atoms: C_2  and  C_3
REMARK    3  A    between atoms: C_7  and  O_8
REMARK    4  A    between atoms: O_8  and  C_9
REMARK    5  A    between atoms: C_9  and  C_10
REMARK    6  A    between atoms: N_12  and  C_13
REMARK    7  A    between atoms: C_16  and  S_17
REMARK    8  A    between atoms: S_17  and  N_20
REMARK    9  A    between atoms: C_23  and  C_24
REMARK   10  A    between atoms: C_26  and  C_27
REMARK                            x       y       z     vdW  Elec       q    Type
REMARK                         _______ _______ _______ _____ _____    ______ ____
ROOT
ATOM      1  C   UNL     1       2.313   7.057  19.307  0.00  0.00    +0.000 A 
ATOM      2  C   UNL     1       2.259   8.041  18.312  0.00  0.00    +0.000 A 
ATOM      3  C   UNL     1       1.660   9.278  18.552  0.00  0.00    +0.000 A 
ATOM      4  C   UNL     1       1.090   9.538  19.797  0.00  0.00    +0.000 A 
ATOM      5  C   UNL     1       1.149   8.580  20.813  0.00  0.00    +0.000 A 
ATOM      6  C   UNL     1       1.741   7.333  20.559  0.00  0.00    +0.000 A 
ENDROOT
BRANCH   1   9
ATOM      7  C   UNL     1       2.391   4.767  18.320  0.00  0.00    +0.000 C 
ATOM      8  O   UNL     1       1.378   4.825  17.628  0.00  0.00    +0.000 OA
ATOM      9  N   UNL     1       2.909   5.793  19.102  0.00  0.00    +0.000 N 
ATOM     10  H   UNL     1       3.845   5.663  19.466  0.00  0.00    +0.000 HD
BRANCH   7  11
ATOM     11  C   UNL     1       3.202   3.480  18.376  0.00  0.00    +0.000 C 
BRANCH  11  12
ATOM     12  O   UNL     1       4.427   3.753  19.040  0.00  0.00    +0.000 OA
BRANCH  12  17
ATOM     13  C   UNL     1       7.198   5.959  17.907  0.00  0.00    +0.000 A 
ATOM     14  C   UNL     1       7.207   5.602  16.554  0.00  0.00    +0.000 A 
ATOM     15  C   UNL     1       6.323   4.634  16.079  0.00  0.00    +0.000 A 
ATOM     16  C   UNL     1       5.417   4.030  16.952  0.00  0.00    +0.000 A 
ATOM     17  C   UNL     1       5.395   4.377  18.303  0.00  0.00    +0.000 A 
ATOM     18  C   UNL     1       6.299   5.328  18.780  0.00  0.00    +0.000 A 
BRANCH  13  20
ATOM     19  C   UNL     1       7.777   8.361  17.636  0.00  0.00    +0.000 C 
ATOM     20  C   UNL     1       8.070   7.082  18.408  0.00  0.00    +0.000 C 
ENDBRANCH  13  20
ENDBRANCH  12  17
ENDBRANCH  11  12
ENDBRANCH   7  11
ENDBRANCH   1   9
BRANCH   4  21
ATOM     21  S   UNL     1       0.316  11.122  20.078  0.00  0.00    +0.000 S 
ATOM     22  O   UNL     1      -1.052  10.891  20.482  0.00  0.00    +0.000 OA
ATOM     23  O   UNL     1       1.222  11.895  20.903  0.00  0.00    +0.000 OA
BRANCH  21  24
ATOM     24  N   UNL     1       0.334  11.845  18.542  0.00  0.00    +0.000 N 
ATOM     25  C   UNL     1       1.002  13.086  18.491  0.00  0.00    +0.000 A 
ATOM     26  C   UNL     1       2.362  13.153  18.316  0.00  0.00    +0.000 A 
ATOM     27  C   UNL     1       2.899  14.417  18.370  0.00  0.00    +0.000 A 
ATOM     28  C   UNL     1       4.363  14.648  18.153  0.00  0.00    +0.000 C 
ATOM     29  N   UNL     1       2.144  15.507  18.623  0.00  0.00    +0.000 NA
ATOM     30  C   UNL     1       0.821  15.321  18.793  0.00  0.00    +0.000 A 
ATOM     31  C   UNL     1      -0.009  16.513  19.152  0.00  0.00    +0.000 C 
ATOM     32  N   UNL     1       0.202  14.132  18.717  0.00  0.00    +0.000 NA
ATOM     33  H   UNL     1      -0.620  11.931  18.196  0.00  0.00    +0.000 HD
ENDBRANCH  21  24
ENDBRANCH   4  21
TORSDOF 7
ENDMDL
