MODEL 1
REMARK VINA RESULT:      -7.6      0.000      0.000
REMARK  Name = 
REMARK  6 active torsions:
REMARK  status: ('A' for Active; 'I' for Inactive)
REMARK    1  A    between atoms: C_1  and  C_2
REMARK    2  A    between atoms: C_2  and  C_3
REMARK    3  A    between atoms: C_2  and  C_4
REMARK    4  A    between atoms: C_4  and  N_5
REMARK    5  A    between atoms: C_9  and  N_10
REMARK    6  A    between atoms: N_10  and  C_11
REMARK                            x       y       z     vdW  Elec       q    Type
REMARK                         _______ _______ _______ _____ _____    ______ ____
ROOT
ATOM      1  N   UNL     1       3.018   4.426  18.774  0.00  0.00    +0.000 N 
ATOM      2  C   UNL     1       3.196   5.688  18.297  0.00  0.00    +0.000 C 
ATOM      3  O   UNL     1       2.317   6.468  17.958  0.00  0.00    +0.000 OA
ATOM      4  C   UNL     1       4.656   6.000  18.218  0.00  0.00    +0.000 C 
ATOM      5  C   UNL     1       5.330   4.819  18.899  0.00  0.00    +0.000 C 
ATOM      6  C   UNL     1       4.205   3.800  19.036  0.00  0.00    +0.000 C 
ATOM      7  O   UNL     1       4.360   2.629  19.349  0.00  0.00    +0.000 OA
ENDROOT
BRANCH   5   8
ATOM      8  N   UNL     1       6.444   4.271  18.112  0.00  0.00    +0.000 N 
ATOM      9  H   UNL     1       7.347   4.606  18.458  0.00  0.00    +0.000 HD
BRANCH   8  10
ATOM     10  C   UNL     1       6.388   4.322  16.710  0.00  0.00    +0.000 A 
ATOM     11  C   UNL     1       5.506   3.524  15.944  0.00  0.00    +0.000 A 
ATOM     12  C   UNL     1       5.562   3.493  14.545  0.00  0.00    +0.000 A 
ATOM     13  C   UNL     1       6.520   4.258  13.925  0.00  0.00    +0.000 A 
ATOM     14  C   UNL     1       7.389   5.036  14.645  0.00  0.00    +0.000 A 
ATOM     15  C   UNL     1       7.354   5.080  16.026  0.00  0.00    +0.000 A 
ATOM     16  O   UNL     1       8.262   5.707  13.844  0.00  0.00    +0.000 OA
ATOM     17  C   UNL     1       7.874   5.211  12.544  0.00  0.00    +0.000 C 
ATOM     18  O   UNL     1       6.738   4.324  12.585  0.00  0.00    +0.000 OA
ENDBRANCH   8  10
ENDBRANCH   5   8
BRANCH   1  19
ATOM     19  C   UNL     1       1.717   3.805  18.942  0.00  0.00    +0.000 C 
BRANCH  19  21
ATOM     20  C   UNL     1       1.327   2.794  21.201  0.00  0.00    +0.000 C 
ATOM     21  C   UNL     1       1.087   4.030  20.330  0.00  0.00    +0.000 C 
ATOM     22  C   UNL     1       1.640   5.267  21.037  0.00  0.00    +0.000 C 
ENDBRANCH  19  21
ENDBRANCH   1  19
TORSDOF 4
ENDMDL
MODEL 2
REMARK VINA RESULT:      -7.5      2.081      6.684
REMARK  Name = 
REMARK  6 active torsions:
REMARK  status: ('A' for Active; 'I' for Inactive)
REMARK    1  A    between atoms: C_1  and  C_2
REMARK    2  A    between atoms: C_2  and  C_3
REMARK    3  A    between atoms: C_2  and  C_4
REMARK    4  A    between atoms: C_4  and  N_5
REMARK    5  A    between atoms: C_9  and  N_10
REMARK    6  A    between atoms: N_10  and  C_11
REMARK                            x       y       z     vdW  Elec       q    Type
REMARK                         _______ _______ _______ _____ _____    ______ ____
ROOT
ATOM      1  N   UNL     1       6.625   5.561  15.721  0.00  0.00    +0.000 N 
ATOM      2  C   UNL     1       7.060   4.984  16.874  0.00  0.00    +0.000 C 
ATOM      3  O   UNL     1       7.927   4.127  16.977  0.00  0.00    +0.000 OA
ATOM      4  C   UNL     1       6.300   5.538  18.037  0.00  0.00    +0.000 C 
ATOM      5  C   UNL     1       5.480   6.673  17.444  0.00  0.00    +0.000 C 
ATOM      6  C   UNL     1       5.624   6.465  15.941  0.00  0.00    +0.000 C 
ATOM      7  O   UNL     1       4.958   7.038  15.092  0.00  0.00    +0.000 OA
ENDROOT
BRANCH   5   8
ATOM      8  N   UNL     1       4.068   6.624  17.850  0.00  0.00    +0.000 N 
ATOM      9  H   UNL     1       3.821   7.423  18.441  0.00  0.00    +0.000 HD
BRANCH   8  10
ATOM     10  C   UNL     1       3.540   5.429  18.364  0.00  0.00    +0.000 A 
ATOM     11  C   UNL     1       3.128   4.353  17.545  0.00  0.00    +0.000 A 
ATOM     12  C   UNL     1       2.481   3.227  18.071  0.00  0.00    +0.000 A 
ATOM     13  C   UNL     1       2.238   3.203  19.423  0.00  0.00    +0.000 A 
ATOM     14  C   UNL     1       2.622   4.236  20.238  0.00  0.00    +0.000 A 
ATOM     15  C   UNL     1       3.260   5.357  19.740  0.00  0.00    +0.000 A 
ATOM     16  O   UNL     1       2.281   4.019  21.538  0.00  0.00    +0.000 OA
ATOM     17  C   UNL     1       1.587   2.757  21.430  0.00  0.00    +0.000 C 
ATOM     18  O   UNL     1       1.596   2.211  20.096  0.00  0.00    +0.000 OA
ENDBRANCH   8  10
ENDBRANCH   5   8
BRANCH   1  19
ATOM     19  C   UNL     1       7.139   5.219  14.407  0.00  0.00    +0.000 C 
BRANCH  19  21
ATOM     20  C   UNL     1       5.012   3.945  14.042  0.00  0.00    +0.000 C 
ATOM     21  C   UNL     1       6.525   3.943  13.803  0.00  0.00    +0.000 C 
ATOM     22  C   UNL     1       6.803   3.803  12.306  0.00  0.00    +0.000 C 
ENDBRANCH  19  21
ENDBRANCH   1  19
TORSDOF 4
ENDMDL
MODEL 3
REMARK VINA RESULT:      -7.5      2.237      6.691
REMARK  Name = 
REMARK  6 active torsions:
REMARK  status: ('A' for Active; 'I' for Inactive)
REMARK    1  A    between atoms: C_1  and  C_2
REMARK    2  A    between atoms: C_2  and  C_3
REMARK    3  A    between atoms: C_2  and  C_4
REMARK    4  A    between atoms: C_4  and  N_5
REMARK    5  A    between atoms: C_9  and  N_10
REMARK    6  A    between atoms: N_10  and  C_11
REMARK                            x       y       z     vdW  Elec       q    Type
REMARK                         _______ _______ _______ _____ _____    ______ ____
ROOT
ATOM      1  N   UNL     1       6.293   6.127  16.653  0.00  0.00    +0.000 N 
ATOM      2  C   UNL     1       6.822   5.320  15.694  0.00  0.00    +0.000 C 
ATOM      3  O   UNL     1       7.710   5.613  14.905  0.00  0.00    +0.000 OA
ATOM      4  C   UNL     1       6.141   3.989  15.718  0.00  0.00    +0.000 C 
ATOM      5  C   UNL     1       5.259   4.041  16.955  0.00  0.00    +0.000 C 
ATOM      6  C   UNL     1       5.295   5.511  17.354  0.00  0.00    +0.000 C 
ATOM      7  O   UNL     1       4.557   6.027  18.181  0.00  0.00    +0.000 OA
ENDROOT
BRANCH   5   8
ATOM      8  N   UNL     1       3.881   3.601  16.689  0.00  0.00    +0.000 N 
ATOM      9  H   UNL     1       3.425   4.200  15.995  0.00  0.00    +0.000 HD
BRANCH   8  10
ATOM     10  C   UNL     1       3.024   3.330  17.767  0.00  0.00    +0.000 A 
ATOM     11  C   UNL     1       1.638   3.610  17.739  0.00  0.00    +0.000 A 
ATOM     12  C   UNL     1       0.828   3.456  18.872  0.00  0.00    +0.000 A 
ATOM     13  C   UNL     1       1.428   3.036  20.034  0.00  0.00    +0.000 A 
ATOM     14  C   UNL     1       2.770   2.763  20.089  0.00  0.00    +0.000 A 
ATOM     15  C   UNL     1       3.588   2.909  18.984  0.00  0.00    +0.000 A 
ATOM     16  O   UNL     1       3.164   2.370  21.331  0.00  0.00    +0.000 OA
ATOM     17  C   UNL     1       1.923   2.486  22.060  0.00  0.00    +0.000 C 
ATOM     18  O   UNL     1       0.806   2.865  21.231  0.00  0.00    +0.000 OA
ENDBRANCH   8  10
ENDBRANCH   5   8
BRANCH   1  19
ATOM     19  C   UNL     1       6.714   7.499  16.872  0.00  0.00    +0.000 C 
BRANCH  19  21
ATOM     20  C   UNL     1       8.228   9.093  18.075  0.00  0.00    +0.000 C 
ATOM     21  C   UNL     1       8.038   7.635  17.646  0.00  0.00    +0.000 C 
ATOM     22  C   UNL     1       8.099   6.730  18.878  0.00  0.00    +0.000 C 
ENDBRANCH  19  21
ENDBRANCH   1  19
TORSDOF 4
ENDMDL
MODEL 4
REMARK VINA RESULT:      -7.2      2.346      6.249
REMARK  Name = 
REMARK  6 active torsions:
REMARK  status: ('A' for Active; 'I' for Inactive)
REMARK    1  A    between atoms: C_1  and  C_2
REMARK    2  A    between atoms: C_2  and  C_3
REMARK    3  A    between atoms: C_2  and  C_4
REMARK    4  A    between atoms: C_4  and  N_5
REMARK    5  A    between atoms: C_9  and  N_10
REMARK    6  A    between atoms: N_10  and  C_11
REMARK                            x       y       z     vdW  Elec       q    Type
REMARK                         _______ _______ _______ _____ _____    ______ ____
ROOT
ATOM      1  N   UNL     1       5.854   5.915  16.935  0.00  0.00    +0.000 N 
ATOM      2  C   UNL     1       5.355   5.930  15.670  0.00  0.00    +0.000 C 
ATOM      3  O   UNL     1       5.127   6.920  14.990  0.00  0.00    +0.000 OA
ATOM      4  C   UNL     1       5.093   4.531  15.210  0.00  0.00    +0.000 C 
ATOM      5  C   UNL     1       5.688   3.659  16.304  0.00  0.00    +0.000 C 
ATOM      6  C   UNL     1       5.968   4.646  17.431  0.00  0.00    +0.000 C 
ATOM      7  O   UNL     1       6.263   4.333  18.575  0.00  0.00    +0.000 OA
ENDROOT
BRANCH   5   8
ATOM      8  N   UNL     1       4.769   2.600  16.748  0.00  0.00    +0.000 N 
ATOM      9  H   UNL     1       4.445   2.032  15.961  0.00  0.00    +0.000 HD
BRANCH   8  10
ATOM     10  C   UNL     1       3.709   2.925  17.610  0.00  0.00    +0.000 A 
ATOM     11  C   UNL     1       2.681   3.831  17.260  0.00  0.00    +0.000 A 
ATOM     12  C   UNL     1       1.711   4.242  18.183  0.00  0.00    +0.000 A 
ATOM     13  C   UNL     1       1.793   3.747  19.461  0.00  0.00    +0.000 A 
ATOM     14  C   UNL     1       2.782   2.871  19.826  0.00  0.00    +0.000 A 
ATOM     15  C   UNL     1       3.751   2.454  18.934  0.00  0.00    +0.000 A 
ATOM     16  O   UNL     1       2.689   2.508  21.136  0.00  0.00    +0.000 OA
ATOM     17  C   UNL     1       1.562   3.305  21.560  0.00  0.00    +0.000 C 
ATOM     18  O   UNL     1       0.960   4.061  20.489  0.00  0.00    +0.000 OA
ENDBRANCH   8  10
ENDBRANCH   5   8
BRANCH   1  19
ATOM     19  C   UNL     1       6.187   7.114  17.683  0.00  0.00    +0.000 C 
BRANCH  19  21
ATOM     20  C   UNL     1       7.912   8.931  17.703  0.00  0.00    +0.000 C 
ATOM     21  C   UNL     1       7.695   7.416  17.751  0.00  0.00    +0.000 C 
ATOM     22  C   UNL     1       8.357   6.846  19.006  0.00  0.00    +0.000 C 
ENDBRANCH  19  21
ENDBRANCH   1  19
TORSDOF 4
ENDMDL
MODEL 5
REMARK VINA RESULT:      -7.1      4.828      7.556
REMARK  Name = 
REMARK  6 active torsions:
REMARK  status: ('A' for Active; 'I' for Inactive)
REMARK    1  A    between atoms: C_1  and  C_2
REMARK    2  A    between atoms: C_2  and  C_3
REMARK    3  A    between atoms: C_2  and  C_4
REMARK    4  A    between atoms: C_4  and  N_5
REMARK    5  A    between atoms: C_9  and  N_10
REMARK    6  A    between atoms: N_10  and  C_11
REMARK                            x       y       z     vdW  Elec       q    Type
REMARK                         _______ _______ _______ _____ _____    ______ ____
ROOT
ATOM      1  N   UNL     1       0.349  10.667  20.895  0.00  0.00    +0.000 N 
ATOM      2  C   UNL     1       0.118  10.276  22.177  0.00  0.00    +0.000 C 
ATOM      3  O   UNL     1      -0.303  10.976  23.087  0.00  0.00    +0.000 OA
ATOM      4  C   UNL     1       0.478   8.833  22.340  0.00  0.00    +0.000 C 
ATOM      5  C   UNL     1       0.774   8.358  20.927  0.00  0.00    +0.000 C 
ATOM      6  C   UNL     1       0.845   9.653  20.126  0.00  0.00    +0.000 C 
ATOM      7  O   UNL     1       1.263   9.741  18.980  0.00  0.00    +0.000 OA
ENDROOT
BRANCH   5   8
ATOM      8  N   UNL     1       2.036   7.610  20.833  0.00  0.00    +0.000 N 
ATOM      9  H   UNL     1       2.825   8.231  20.635  0.00  0.00    +0.000 HD
BRANCH   8  10
ATOM     10  C   UNL     1       2.093   6.451  20.042  0.00  0.00    +0.000 A 
ATOM     11  C   UNL     1       2.642   6.433  18.739  0.00  0.00    +0.000 A 
ATOM     12  C   UNL     1       2.566   5.300  17.919  0.00  0.00    +0.000 A 
ATOM     13  C   UNL     1       1.919   4.194  18.414  0.00  0.00    +0.000 A 
ATOM     14  C   UNL     1       1.374   4.188  19.672  0.00  0.00    +0.000 A 
ATOM     15  C   UNL     1       1.435   5.295  20.497  0.00  0.00    +0.000 A 
ATOM     16  O   UNL     1       0.774   3.001  19.966  0.00  0.00    +0.000 OA
ATOM     17  C   UNL     1       0.956   2.289  18.723  0.00  0.00    +0.000 C 
ATOM     18  O   UNL     1       1.723   3.025  17.749  0.00  0.00    +0.000 OA
ENDBRANCH   8  10
ENDBRANCH   5   8
BRANCH   1  19
ATOM     19  C   UNL     1       0.130  12.020  20.415  0.00  0.00    +0.000 C 
BRANCH  19  21
ATOM     20  C   UNL     1      -2.138  13.085  20.405  0.00  0.00    +0.000 C 
ATOM     21  C   UNL     1      -1.171  12.201  19.612  0.00  0.00    +0.000 C 
ATOM     22  C   UNL     1      -0.934  12.815  18.232  0.00  0.00    +0.000 C 
ENDBRANCH  19  21
ENDBRANCH   1  19
TORSDOF 4
ENDMDL
MODEL 6
REMARK VINA RESULT:      -7.1      2.805      6.565
REMARK  Name = 
REMARK  6 active torsions:
REMARK  status: ('A' for Active; 'I' for Inactive)
REMARK    1  A    between atoms: C_1  and  C_2
REMARK    2  A    between atoms: C_2  and  C_3
REMARK    3  A    between atoms: C_2  and  C_4
REMARK    4  A    between atoms: C_4  and  N_5
REMARK    5  A    between atoms: C_9  and  N_10
REMARK    6  A    between atoms: N_10  and  C_11
REMARK                            x       y       z     vdW  Elec       q    Type
REMARK                         _______ _______ _______ _____ _____    ______ ____
ROOT
ATOM      1  N   UNL     1       4.062   3.966  17.745  0.00  0.00    +0.000 N 
ATOM      2  C   UNL     1       2.722   3.792  17.587  0.00  0.00    +0.000 C 
ATOM      3  O   UNL     1       2.158   3.353  16.594  0.00  0.00    +0.000 OA
ATOM      4  C   UNL     1       2.003   4.242  18.818  0.00  0.00    +0.000 C 
ATOM      5  C   UNL     1       3.112   4.530  19.817  0.00  0.00    +0.000 C 
ATOM      6  C   UNL     1       4.374   4.503  18.963  0.00  0.00    +0.000 C 
ATOM      7  O   UNL     1       5.474   4.885  19.333  0.00  0.00    +0.000 OA
ENDROOT
BRANCH   5   8
ATOM      8  N   UNL     1       2.953   5.832  20.481  0.00  0.00    +0.000 N 
ATOM      9  H   UNL     1       2.495   5.734  21.391  0.00  0.00    +0.000 HD
BRANCH   8  10
ATOM     10  C   UNL     1       2.422   6.913  19.760  0.00  0.00    +0.000 A 
ATOM     11  C   UNL     1       2.835   7.242  18.448  0.00  0.00    +0.000 A 
ATOM     12  C   UNL     1       2.390   8.402  17.800  0.00  0.00    +0.000 A 
ATOM     13  C   UNL     1       1.540   9.233  18.489  0.00  0.00    +0.000 A 
ATOM     14  C   UNL     1       1.129   8.939  19.762  0.00  0.00    +0.000 A 
ATOM     15  C   UNL     1       1.557   7.802  20.422  0.00  0.00    +0.000 A 
ATOM     16  O   UNL     1       0.298   9.893  20.267  0.00  0.00    +0.000 OA
ATOM     17  C   UNL     1       0.286  10.845  19.182  0.00  0.00    +0.000 C 
ATOM     18  O   UNL     1       1.038  10.410  18.030  0.00  0.00    +0.000 OA
ENDBRANCH   8  10
ENDBRANCH   5   8
BRANCH   1  19
ATOM     19  C   UNL     1       5.041   3.654  16.719  0.00  0.00    +0.000 C 
BRANCH  19  21
ATOM     20  C   UNL     1       5.437   6.010  15.963  0.00  0.00    +0.000 C 
ATOM     21  C   UNL     1       5.013   4.609  15.512  0.00  0.00    +0.000 C 
ATOM     22  C   UNL     1       5.918   4.146  14.369  0.00  0.00    +0.000 C 
ENDBRANCH  19  21
ENDBRANCH   1  19
TORSDOF 4
ENDMDL
MODEL 7
REMARK VINA RESULT:      -7.1      0.900      1.242
REMARK  Name = 
REMARK  6 active torsions:
REMARK  status: ('A' for Active; 'I' for Inactive)
REMARK    1  A    between atoms: C_1  and  C_2
REMARK    2  A    between atoms: C_2  and  C_3
REMARK    3  A    between atoms: C_2  and  C_4
REMARK    4  A    between atoms: C_4  and  N_5
REMARK    5  A    between atoms: C_9  and  N_10
REMARK    6  A    between atoms: N_10  and  C_11
REMARK                            x       y       z     vdW  Elec       q    Type
REMARK                         _______ _______ _______ _____ _____    ______ ____
ROOT
ATOM      1  N   UNL     1       3.904   5.304  19.137  0.00  0.00    +0.000 N 
ATOM      2  C   UNL     1       4.043   6.377  18.311  0.00  0.00    +0.000 C 
ATOM      3  O   UNL     1       3.171   7.177  18.005  0.00  0.00    +0.000 OA
ATOM      4  C   UNL     1       5.445   6.440  17.794  0.00  0.00    +0.000 C 
ATOM      5  C   UNL     1       6.183   5.366  18.577  0.00  0.00    +0.000 C 
ATOM      6  C   UNL     1       5.062   4.588  19.255  0.00  0.00    +0.000 C 
ATOM      7  O   UNL     1       5.202   3.514  19.821  0.00  0.00    +0.000 OA
ENDROOT
BRANCH   5   8
ATOM      8  N   UNL     1       6.988   4.487  17.715  0.00  0.00    +0.000 N 
ATOM      9  H   UNL     1       7.990   4.631  17.866  0.00  0.00    +0.000 HD
BRANCH   8  10
ATOM     10  C   UNL     1       6.688   4.404  16.346  0.00  0.00    +0.000 A 
ATOM     11  C   UNL     1       5.687   3.549  15.826  0.00  0.00    +0.000 A 
ATOM     12  C   UNL     1       5.498   3.383  14.448  0.00  0.00    +0.000 A 
ATOM     13  C   UNL     1       6.333   4.069  13.600  0.00  0.00    +0.000 A 
ATOM     14  C   UNL     1       7.313   4.899  14.078  0.00  0.00    +0.000 A 
ATOM     15  C   UNL     1       7.520   5.077  15.434  0.00  0.00    +0.000 A 
ATOM     16  O   UNL     1       8.033   5.475  13.076  0.00  0.00    +0.000 OA
ATOM     17  C   UNL     1       7.425   4.863  11.919  0.00  0.00    +0.000 C 
ATOM     18  O   UNL     1       6.314   4.003  12.243  0.00  0.00    +0.000 OA
ENDBRANCH   8  10
ENDBRANCH   5   8
BRANCH   1  19
ATOM     19  C   UNL     1       2.654   4.942  19.781  0.00  0.00    +0.000 C 
BRANCH  19  21
ATOM     20  C   UNL     1       0.770   3.309  20.027  0.00  0.00    +0.000 C 
ATOM     21  C   UNL     1       1.938   3.741  19.136  0.00  0.00    +0.000 C 
ATOM     22  C   UNL     1       1.420   4.046  17.730  0.00  0.00    +0.000 C 
ENDBRANCH  19  21
ENDBRANCH   1  19
TORSDOF 4
ENDMDL
MODEL 8
REMARK VINA RESULT:      -7.1      2.126      6.438
REMARK  Name = 
REMARK  6 active torsions:
REMARK  status: ('A' for Active; 'I' for Inactive)
REMARK    1  A    between atoms: C_1  and  C_2
REMARK    2  A    between atoms: C_2  and  C_3
REMARK    3  A    between atoms: C_2  and  C_4
REMARK    4  A    between atoms: C_4  and  N_5
REMARK    5  A    between atoms: C_9  and  N_10
REMARK    6  A    between atoms: N_10  and  C_11
REMARK                            x       y       z     vdW  Elec       q    Type
REMARK                         _______ _______ _______ _____ _____    ______ ____
ROOT
ATOM      1  N   UNL     1       6.320   5.568  16.578  0.00  0.00    +0.000 N 
ATOM      2  C   UNL     1       6.400   5.198  17.885  0.00  0.00    +0.000 C 
ATOM      3  O   UNL     1       7.110   4.317  18.349  0.00  0.00    +0.000 OA
ATOM      4  C   UNL     1       5.461   6.023  18.705  0.00  0.00    +0.000 C 
ATOM      5  C   UNL     1       4.944   7.077  17.738  0.00  0.00    +0.000 C 
ATOM      6  C   UNL     1       5.411   6.569  16.379  0.00  0.00    +0.000 C 
ATOM      7  O   UNL     1       5.035   7.012  15.303  0.00  0.00    +0.000 OA
ENDROOT
BRANCH   5   8
ATOM      8  N   UNL     1       3.481   7.213  17.776  0.00  0.00    +0.000 N 
ATOM      9  H   UNL     1       3.200   8.158  18.050  0.00  0.00    +0.000 HD
BRANCH   8  10
ATOM     10  C   UNL     1       2.716   6.243  18.445  0.00  0.00    +0.000 A 
ATOM     11  C   UNL     1       2.412   6.318  19.823  0.00  0.00    +0.000 A 
ATOM     12  C   UNL     1       1.764   5.274  20.496  0.00  0.00    +0.000 A 
ATOM     13  C   UNL     1       1.441   4.150  19.775  0.00  0.00    +0.000 A 
ATOM     14  C   UNL     1       1.730   4.051  18.438  0.00  0.00    +0.000 A 
ATOM     15  C   UNL     1       2.370   5.068  17.755  0.00  0.00    +0.000 A 
ATOM     16  O   UNL     1       1.335   2.858  17.914  0.00  0.00    +0.000 OA
ATOM     17  C   UNL     1       0.820   2.201  19.092  0.00  0.00    +0.000 C 
ATOM     18  O   UNL     1       0.843   3.034  20.269  0.00  0.00    +0.000 OA
ENDBRANCH   8  10
ENDBRANCH   5   8
BRANCH   1  19
ATOM     19  C   UNL     1       7.083   4.939  15.515  0.00  0.00    +0.000 C 
BRANCH  19  21
ATOM     20  C   UNL     1       5.033   3.499  15.553  0.00  0.00    +0.000 C 
ATOM     21  C   UNL     1       6.382   3.732  14.866  0.00  0.00    +0.000 C 
ATOM     22  C   UNL     1       6.163   3.911  13.364  0.00  0.00    +0.000 C 
ENDBRANCH  19  21
ENDBRANCH   1  19
TORSDOF 4
ENDMDL
MODEL 9
REMARK VINA RESULT:      -7.0      4.438      6.992
REMARK  Name = 
REMARK  6 active torsions:
REMARK  status: ('A' for Active; 'I' for Inactive)
REMARK    1  A    between atoms: C_1  and  C_2
REMARK    2  A    between atoms: C_2  and  C_3
REMARK    3  A    between atoms: C_2  and  C_4
REMARK    4  A    between atoms: C_4  and  N_5
REMARK    5  A    between atoms: C_9  and  N_10
REMARK    6  A    between atoms: N_10  and  C_11
REMARK                            x       y       z     vdW  Elec       q    Type
REMARK                         _______ _______ _______ _____ _____    ______ ____
ROOT
ATOM      1  N   UNL     1       1.020  10.393  19.835  0.00  0.00    +0.000 N 
ATOM      2  C   UNL     1       0.892  10.346  21.189  0.00  0.00    +0.000 C 
ATOM      3  O   UNL     1       0.660  11.289  21.931  0.00  0.00    +0.000 OA
ATOM      4  C   UNL     1       1.099   8.944  21.669  0.00  0.00    +0.000 C 
ATOM      5  C   UNL     1       1.177   8.118  20.396  0.00  0.00    +0.000 C 
ATOM      6  C   UNL     1       1.307   9.169  19.299  0.00  0.00    +0.000 C 
ATOM      7  O   UNL     1       1.601   8.930  18.137  0.00  0.00    +0.000 OA
ENDROOT
BRANCH   5   8
ATOM      8  N   UNL     1       2.326   7.200  20.385  0.00  0.00    +0.000 N 
ATOM      9  H   UNL     1       3.129   7.612  19.902  0.00  0.00    +0.000 HD
BRANCH   8  10
ATOM     10  C   UNL     1       2.136   5.863  20.003  0.00  0.00    +0.000 A 
ATOM     11  C   UNL     1       1.418   4.931  20.788  0.00  0.00    +0.000 A 
ATOM     12  C   UNL     1       1.356   3.572  20.453  0.00  0.00    +0.000 A 
ATOM     13  C   UNL     1       2.034   3.158  19.333  0.00  0.00    +0.000 A 
ATOM     14  C   UNL     1       2.741   4.040  18.558  0.00  0.00    +0.000 A 
ATOM     15  C   UNL     1       2.818   5.384  18.870  0.00  0.00    +0.000 A 
ATOM     16  O   UNL     1       3.345   3.427  17.502  0.00  0.00    +0.000 OA
ATOM     17  C   UNL     1       2.981   2.051  17.742  0.00  0.00    +0.000 C 
ATOM     18  O   UNL     1       2.110   1.879  18.879  0.00  0.00    +0.000 OA
ENDBRANCH   8  10
ENDBRANCH   5   8
BRANCH   1  19
ATOM     19  C   UNL     1       0.907  11.614  19.059  0.00  0.00    +0.000 C 
BRANCH  19  21
ATOM     20  C   UNL     1      -0.487  13.584  18.382  0.00  0.00    +0.000 C 
ATOM     21  C   UNL     1      -0.527  12.166  18.958  0.00  0.00    +0.000 C 
ATOM     22  C   UNL     1      -1.438  11.291  18.097  0.00  0.00    +0.000 C 
ENDBRANCH  19  21
ENDBRANCH   1  19
TORSDOF 4
ENDMDL
