MODEL 1
REMARK VINA RESULT:      -7.0      0.000      0.000
REMARK  Name = 
REMARK  11 active torsions:
REMARK  status: ('A' for Active; 'I' for Inactive)
REMARK    1  A    between atoms: C_1  and  N_2
REMARK    2  A    between atoms: N_2  and  C_3
REMARK    3  A    between atoms: N_2  and  C_4
REMARK    4  A    between atoms: C_4  and  C_5
REMARK    5  A    between atoms: C_7  and  O_8
REMARK    6  A    between atoms: O_8  and  C_9
REMARK    7  A    between atoms: C_9  and  C_10
REMARK    8  A    between atoms: C_10  and  C_11
REMARK    9  A    between atoms: C_15  and  S_16
REMARK   10  A    between atoms: S_16  and  C_17
REMARK   11  A    between atoms: C_22  and  N_23
REMARK                            x       y       z     vdW  Elec       q    Type
REMARK                         _______ _______ _______ _____ _____    ______ ____
ROOT
ATOM      1  C   UNL     1       6.172   5.794  16.650  0.00  0.00    +0.000 A 
ATOM      2  C   UNL     1       6.760   5.484  15.403  0.00  0.00    +0.000 A 
ATOM      3  C   UNL     1       6.255   4.478  14.606  0.00  0.00    +0.000 A 
ATOM      4  C   UNL     1       5.213   3.698  15.088  0.00  0.00    +0.000 A 
ATOM      5  C   UNL     1       4.722   3.882  16.409  0.00  0.00    +0.000 A 
ATOM      6  C   UNL     1       5.198   4.908  17.238  0.00  0.00    +0.000 A 
ENDROOT
BRANCH   1   7
ATOM      7  C   UNL     1       6.471   7.227  17.079  0.00  0.00    +0.000 C 
BRANCH   7   9
ATOM      8  C   UNL     1       8.176   8.752  17.940  0.00  0.00    +0.000 C 
ATOM      9  N   UNL     1       7.723   7.392  17.760  0.00  0.00    +0.000 NA
ATOM     10  C   UNL     1       8.003   6.437  18.808  0.00  0.00    +0.000 C 
ENDBRANCH   7   9
ENDBRANCH   1   7
BRANCH   3  11
ATOM     11  O   UNL     1       6.875   4.319  13.399  0.00  0.00    +0.000 OA
BRANCH  11  12
ATOM     12  C   UNL     1       6.190   3.478  12.464  0.00  0.00    +0.000 C 
BRANCH  12  13
ATOM     13  C   UNL     1       7.242   2.883  11.517  0.00  0.00    +0.000 C 
BRANCH  13  14
ATOM     14  C   UNL     1       6.887   1.480  11.075  0.00  0.00    +0.000 C 
ATOM     15  F   UNL     1       5.579   1.240  11.355  0.00  0.00    +0.000 F 
ENDBRANCH  13  14
ENDBRANCH  12  13
ENDBRANCH  11  12
ENDBRANCH   3  11
BRANCH   6  16
ATOM     16  S   UNL     1       4.400   5.293  18.794  0.00  0.00    +0.000 S 
BRANCH  16  17
ATOM     17  C   UNL     1       3.374   4.171  19.739  0.00  0.00    +0.000 A 
ATOM     18  C   UNL     1       2.101   4.755  20.008  0.00  0.00    +0.000 A 
ATOM     19  C   UNL     1       1.081   4.121  20.727  0.00  0.00    +0.000 A 
ATOM     20  C   UNL     1       1.295   2.853  21.235  0.00  0.00    +0.000 A 
ATOM     21  C   UNL     1       2.537   2.251  21.045  0.00  0.00    +0.000 A 
ATOM     22  C   UNL     1       3.605   2.921  20.355  0.00  0.00    +0.000 A 
BRANCH  22  23
ATOM     23  N   UNL     1       4.783   2.162  20.157  0.00  0.00    +0.000 N 
ATOM     24  H   UNL     1       4.916   1.967  19.164  0.00  0.00    +0.000 HD
ATOM     25  H   UNL     1       5.584   2.702  20.476  0.00  0.00    +0.000 HD
ENDBRANCH  22  23
ENDBRANCH  16  17
ENDBRANCH   6  16
TORSDOF 9
ENDMDL
MODEL 2
REMARK VINA RESULT:      -6.9      3.008      4.785
REMARK  Name = 
REMARK  11 active torsions:
REMARK  status: ('A' for Active; 'I' for Inactive)
REMARK    1  A    between atoms: C_1  and  N_2
REMARK    2  A    between atoms: N_2  and  C_3
REMARK    3  A    between atoms: N_2  and  C_4
REMARK    4  A    between atoms: C_4  and  C_5
REMARK    5  A    between atoms: C_7  and  O_8
REMARK    6  A    between atoms: O_8  and  C_9
REMARK    7  A    between atoms: C_9  and  C_10
REMARK    8  A    between atoms: C_10  and  C_11
REMARK    9  A    between atoms: C_15  and  S_16
REMARK   10  A    between atoms: S_16  and  C_17
REMARK   11  A    between atoms: C_22  and  N_23
REMARK                            x       y       z     vdW  Elec       q    Type
REMARK                         _______ _______ _______ _____ _____    ______ ____
ROOT
ATOM      1  C   UNL     1       4.080   4.138  17.717  0.00  0.00    +0.000 A 
ATOM      2  C   UNL     1       4.666   3.573  16.563  0.00  0.00    +0.000 A 
ATOM      3  C   UNL     1       5.326   4.358  15.641  0.00  0.00    +0.000 A 
ATOM      4  C   UNL     1       5.325   5.736  15.808  0.00  0.00    +0.000 A 
ATOM      5  C   UNL     1       4.593   6.337  16.868  0.00  0.00    +0.000 A 
ATOM      6  C   UNL     1       3.929   5.568  17.835  0.00  0.00    +0.000 A 
ENDROOT
BRANCH   1   7
ATOM      7  C   UNL     1       3.933   3.115  18.840  0.00  0.00    +0.000 C 
BRANCH   7   9
ATOM      8  C   UNL     1       1.662   2.296  18.466  0.00  0.00    +0.000 C 
ATOM      9  N   UNL     1       2.595   2.970  19.338  0.00  0.00    +0.000 NA
ATOM     10  C   UNL     1       2.470   2.760  20.763  0.00  0.00    +0.000 C 
ENDBRANCH   7   9
ENDBRANCH   1   7
BRANCH   3  11
ATOM     11  O   UNL     1       5.901   3.683  14.602  0.00  0.00    +0.000 OA
BRANCH  11  12
ATOM     12  C   UNL     1       6.757   4.465  13.760  0.00  0.00    +0.000 C 
BRANCH  12  13
ATOM     13  C   UNL     1       6.682   3.876  12.345  0.00  0.00    +0.000 C 
BRANCH  13  14
ATOM     14  C   UNL     1       5.376   3.154  12.093  0.00  0.00    +0.000 C 
ATOM     15  F   UNL     1       5.636   1.877  11.710  0.00  0.00    +0.000 F 
ENDBRANCH  13  14
ENDBRANCH  12  13
ENDBRANCH  11  12
ENDBRANCH   3  11
BRANCH   6  16
ATOM     16  S   UNL     1       3.232   6.320  19.303  0.00  0.00    +0.000 S 
BRANCH  16  17
ATOM     17  C   UNL     1       2.164   7.755  19.326  0.00  0.00    +0.000 A 
ATOM     18  C   UNL     1       2.010   8.292  18.013  0.00  0.00    +0.000 A 
ATOM     19  C   UNL     1       1.232   9.416  17.710  0.00  0.00    +0.000 A 
ATOM     20  C   UNL     1       0.570  10.080  18.725  0.00  0.00    +0.000 A 
ATOM     21  C   UNL     1       0.722   9.629  20.035  0.00  0.00    +0.000 A 
ATOM     22  C   UNL     1       1.563   8.510  20.358  0.00  0.00    +0.000 A 
BRANCH  22  23
ATOM     23  N   UNL     1       1.559   8.106  21.715  0.00  0.00    +0.000 N 
ATOM     24  H   UNL     1       1.970   7.176  21.808  0.00  0.00    +0.000 HD
ATOM     25  H   UNL     1       2.127   8.752  22.256  0.00  0.00    +0.000 HD
ENDBRANCH  22  23
ENDBRANCH  16  17
ENDBRANCH   6  16
TORSDOF 9
ENDMDL
MODEL 3
REMARK VINA RESULT:      -6.8      4.140      8.322
REMARK  Name = 
REMARK  11 active torsions:
REMARK  status: ('A' for Active; 'I' for Inactive)
REMARK    1  A    between atoms: C_1  and  N_2
REMARK    2  A    between atoms: N_2  and  C_3
REMARK    3  A    between atoms: N_2  and  C_4
REMARK    4  A    between atoms: C_4  and  C_5
REMARK    5  A    between atoms: C_7  and  O_8
REMARK    6  A    between atoms: O_8  and  C_9
REMARK    7  A    between atoms: C_9  and  C_10
REMARK    8  A    between atoms: C_10  and  C_11
REMARK    9  A    between atoms: C_15  and  S_16
REMARK   10  A    between atoms: S_16  and  C_17
REMARK   11  A    between atoms: C_22  and  N_23
REMARK                            x       y       z     vdW  Elec       q    Type
REMARK                         _______ _______ _______ _____ _____    ______ ____
ROOT
ATOM      1  C   UNL     1       2.822   4.922  17.984  0.00  0.00    +0.000 A 
ATOM      2  C   UNL     1       2.204   5.942  18.742  0.00  0.00    +0.000 A 
ATOM      3  C   UNL     1       2.597   7.259  18.621  0.00  0.00    +0.000 A 
ATOM      4  C   UNL     1       3.682   7.565  17.811  0.00  0.00    +0.000 A 
ATOM      5  C   UNL     1       4.426   6.533  17.176  0.00  0.00    +0.000 A 
ATOM      6  C   UNL     1       4.042   5.186  17.261  0.00  0.00    +0.000 A 
ENDROOT
BRANCH   1   7
ATOM      7  C   UNL     1       1.913   3.708  17.816  0.00  0.00    +0.000 C 
BRANCH   7   9
ATOM      8  C   UNL     1       3.251   2.170  19.163  0.00  0.00    +0.000 C 
ATOM      9  N   UNL     1       1.966   2.774  18.905  0.00  0.00    +0.000 NA
ATOM     10  C   UNL     1       1.114   3.072  20.034  0.00  0.00    +0.000 C 
ENDBRANCH   7   9
ENDBRANCH   1   7
BRANCH   3  11
ATOM     11  O   UNL     1       1.880   8.154  19.362  0.00  0.00    +0.000 OA
BRANCH  11  12
ATOM     12  C   UNL     1       1.560   7.731  20.693  0.00  0.00    +0.000 C 
BRANCH  12  13
ATOM     13  C   UNL     1       1.225   8.986  21.511  0.00  0.00    +0.000 C 
BRANCH  13  14
ATOM     14  C   UNL     1      -0.224   9.014  21.949  0.00  0.00    +0.000 C 
ATOM     15  F   UNL     1      -0.839   7.875  21.538  0.00  0.00    +0.000 F 
ENDBRANCH  13  14
ENDBRANCH  12  13
ENDBRANCH  11  12
ENDBRANCH   3  11
BRANCH   6  16
ATOM     16  S   UNL     1       4.826   3.931  16.254  0.00  0.00    +0.000 S 
BRANCH  16  17
ATOM     17  C   UNL     1       5.828   4.240  14.804  0.00  0.00    +0.000 A 
ATOM     18  C   UNL     1       5.364   3.471  13.696  0.00  0.00    +0.000 A 
ATOM     19  C   UNL     1       5.944   3.498  12.422  0.00  0.00    +0.000 A 
ATOM     20  C   UNL     1       7.047   4.300  12.194  0.00  0.00    +0.000 A 
ATOM     21  C   UNL     1       7.574   5.038  13.252  0.00  0.00    +0.000 A 
ATOM     22  C   UNL     1       7.015   4.971  14.574  0.00  0.00    +0.000 A 
BRANCH  22  23
ATOM     23  N   UNL     1       7.593   5.836  15.533  0.00  0.00    +0.000 N 
ATOM     24  H   UNL     1       7.474   5.453  16.472  0.00  0.00    +0.000 HD
ATOM     25  H   UNL     1       8.590   5.914  15.354  0.00  0.00    +0.000 HD
ENDBRANCH  22  23
ENDBRANCH  16  17
ENDBRANCH   6  16
TORSDOF 9
ENDMDL
MODEL 4
REMARK VINA RESULT:      -6.8      1.274      1.749
REMARK  Name = 
REMARK  11 active torsions:
REMARK  status: ('A' for Active; 'I' for Inactive)
REMARK    1  A    between atoms: C_1  and  N_2
REMARK    2  A    between atoms: N_2  and  C_3
REMARK    3  A    between atoms: N_2  and  C_4
REMARK    4  A    between atoms: C_4  and  C_5
REMARK    5  A    between atoms: C_7  and  O_8
REMARK    6  A    between atoms: O_8  and  C_9
REMARK    7  A    between atoms: C_9  and  C_10
REMARK    8  A    between atoms: C_10  and  C_11
REMARK    9  A    between atoms: C_15  and  S_16
REMARK   10  A    between atoms: S_16  and  C_17
REMARK   11  A    between atoms: C_22  and  N_23
REMARK                            x       y       z     vdW  Elec       q    Type
REMARK                         _______ _______ _______ _____ _____    ______ ____
ROOT
ATOM      1  C   UNL     1       6.848   5.019  16.905  0.00  0.00    +0.000 A 
ATOM      2  C   UNL     1       7.239   4.902  15.552  0.00  0.00    +0.000 A 
ATOM      3  C   UNL     1       6.398   4.340  14.613  0.00  0.00    +0.000 A 
ATOM      4  C   UNL     1       5.192   3.796  15.031  0.00  0.00    +0.000 A 
ATOM      5  C   UNL     1       4.858   3.748  16.412  0.00  0.00    +0.000 A 
ATOM      6  C   UNL     1       5.679   4.329  17.391  0.00  0.00    +0.000 A 
ENDROOT
BRANCH   1   7
ATOM      7  C   UNL     1       7.607   6.132  17.621  0.00  0.00    +0.000 C 
BRANCH   7   9
ATOM      8  C   UNL     1       5.769   7.681  17.187  0.00  0.00    +0.000 C 
ATOM      9  N   UNL     1       7.193   7.458  17.261  0.00  0.00    +0.000 NA
ATOM     10  C   UNL     1       8.028   8.534  17.746  0.00  0.00    +0.000 C 
ENDBRANCH   7   9
ENDBRANCH   1   7
BRANCH   3  11
ATOM     11  O   UNL     1       6.869   4.341  13.331  0.00  0.00    +0.000 OA
BRANCH  11  12
ATOM     12  C   UNL     1       6.002   3.745  12.359  0.00  0.00    +0.000 C 
BRANCH  12  13
ATOM     13  C   UNL     1       6.739   2.541  11.756  0.00  0.00    +0.000 C 
BRANCH  13  14
ATOM     14  C   UNL     1       5.786   1.466  11.278  0.00  0.00    +0.000 C 
ATOM     15  F   UNL     1       6.499   0.374  10.897  0.00  0.00    +0.000 F 
ENDBRANCH  13  14
ENDBRANCH  12  13
ENDBRANCH  11  12
ENDBRANCH   3  11
BRANCH   6  16
ATOM     16  S   UNL     1       5.131   4.491  19.087  0.00  0.00    +0.000 S 
BRANCH  16  17
ATOM     17  C   UNL     1       3.463   4.208  19.670  0.00  0.00    +0.000 A 
ATOM     18  C   UNL     1       3.106   2.834  19.535  0.00  0.00    +0.000 A 
ATOM     19  C   UNL     1       1.865   2.303  19.906  0.00  0.00    +0.000 A 
ATOM     20  C   UNL     1       0.896   3.140  20.427  0.00  0.00    +0.000 A 
ATOM     21  C   UNL     1       1.171   4.501  20.539  0.00  0.00    +0.000 A 
ATOM     22  C   UNL     1       2.423   5.059  20.109  0.00  0.00    +0.000 A 
BRANCH  22  23
ATOM     23  N   UNL     1       2.603   6.440  20.359  0.00  0.00    +0.000 N 
ATOM     24  H   UNL     1       2.842   6.594  21.339  0.00  0.00    +0.000 HD
ATOM     25  H   UNL     1       3.376   6.783  19.794  0.00  0.00    +0.000 HD
ENDBRANCH  22  23
ENDBRANCH  16  17
ENDBRANCH   6  16
TORSDOF 9
ENDMDL
MODEL 5
REMARK VINA RESULT:      -6.7      3.208      4.994
REMARK  Name = 
REMARK  11 active torsions:
REMARK  status: ('A' for Active; 'I' for Inactive)
REMARK    1  A    between atoms: C_1  and  N_2
REMARK    2  A    between atoms: N_2  and  C_3
REMARK    3  A    between atoms: N_2  and  C_4
REMARK    4  A    between atoms: C_4  and  C_5
REMARK    5  A    between atoms: C_7  and  O_8
REMARK    6  A    between atoms: O_8  and  C_9
REMARK    7  A    between atoms: C_9  and  C_10
REMARK    8  A    between atoms: C_10  and  C_11
REMARK    9  A    between atoms: C_15  and  S_16
REMARK   10  A    between atoms: S_16  and  C_17
REMARK   11  A    between atoms: C_22  and  N_23
REMARK                            x       y       z     vdW  Elec       q    Type
REMARK                         _______ _______ _______ _____ _____    ______ ____
ROOT
ATOM      1  C   UNL     1       3.534   4.373  17.549  0.00  0.00    +0.000 A 
ATOM      2  C   UNL     1       4.380   3.852  16.544  0.00  0.00    +0.000 A 
ATOM      3  C   UNL     1       5.656   4.343  16.360  0.00  0.00    +0.000 A 
ATOM      4  C   UNL     1       6.072   5.432  17.114  0.00  0.00    +0.000 A 
ATOM      5  C   UNL     1       5.176   6.080  18.006  0.00  0.00    +0.000 A 
ATOM      6  C   UNL     1       3.879   5.595  18.233  0.00  0.00    +0.000 A 
ENDROOT
BRANCH   1   7
ATOM      7  C   UNL     1       2.464   3.370  17.968  0.00  0.00    +0.000 C 
BRANCH   7   9
ATOM      8  C   UNL     1       1.350   2.584  19.996  0.00  0.00    +0.000 C 
ATOM      9  N   UNL     1       2.585   2.906  19.321  0.00  0.00    +0.000 NA
ATOM     10  C   UNL     1       3.750   2.101  19.611  0.00  0.00    +0.000 C 
ENDBRANCH   7   9
ENDBRANCH   1   7
BRANCH   3  11
ATOM     11  O   UNL     1       6.393   3.713  15.398  0.00  0.00    +0.000 OA
BRANCH  11  12
ATOM     12  C   UNL     1       6.591   4.458  14.191  0.00  0.00    +0.000 C 
BRANCH  12  13
ATOM     13  C   UNL     1       6.068   3.605  13.027  0.00  0.00    +0.000 C 
BRANCH  13  14
ATOM     14  C   UNL     1       6.952   3.702  11.803  0.00  0.00    +0.000 C 
ATOM     15  F   UNL     1       7.688   4.843  11.871  0.00  0.00    +0.000 F 
ENDBRANCH  13  14
ENDBRANCH  12  13
ENDBRANCH  11  12
ENDBRANCH   3  11
BRANCH   6  16
ATOM     16  S   UNL     1       2.853   6.258  19.542  0.00  0.00    +0.000 S 
BRANCH  16  17
ATOM     17  C   UNL     1       2.000   7.831  19.495  0.00  0.00    +0.000 A 
ATOM     18  C   UNL     1       1.978   8.355  18.168  0.00  0.00    +0.000 A 
ATOM     19  C   UNL     1       1.381   9.570  17.813  0.00  0.00    +0.000 A 
ATOM     20  C   UNL     1       0.779  10.343  18.788  0.00  0.00    +0.000 A 
ATOM     21  C   UNL     1       0.810   9.904  20.110  0.00  0.00    +0.000 A 
ATOM     22  C   UNL     1       1.469   8.684  20.488  0.00  0.00    +0.000 A 
BRANCH  22  23
ATOM     23  N   UNL     1       1.351   8.314  21.848  0.00  0.00    +0.000 N 
ATOM     24  H   UNL     1       2.126   7.708  22.119  0.00  0.00    +0.000 HD
ATOM     25  H   UNL     1       1.395   9.150  22.426  0.00  0.00    +0.000 HD
ENDBRANCH  22  23
ENDBRANCH  16  17
ENDBRANCH   6  16
TORSDOF 9
ENDMDL
MODEL 6
REMARK VINA RESULT:      -6.7      3.844      5.843
REMARK  Name = 
REMARK  11 active torsions:
REMARK  status: ('A' for Active; 'I' for Inactive)
REMARK    1  A    between atoms: C_1  and  N_2
REMARK    2  A    between atoms: N_2  and  C_3
REMARK    3  A    between atoms: N_2  and  C_4
REMARK    4  A    between atoms: C_4  and  C_5
REMARK    5  A    between atoms: C_7  and  O_8
REMARK    6  A    between atoms: O_8  and  C_9
REMARK    7  A    between atoms: C_9  and  C_10
REMARK    8  A    between atoms: C_10  and  C_11
REMARK    9  A    between atoms: C_15  and  S_16
REMARK   10  A    between atoms: S_16  and  C_17
REMARK   11  A    between atoms: C_22  and  N_23
REMARK                            x       y       z     vdW  Elec       q    Type
REMARK                         _______ _______ _______ _____ _____    ______ ____
ROOT
ATOM      1  C   UNL     1       5.907   6.226  17.246  0.00  0.00    +0.000 A 
ATOM      2  C   UNL     1       6.839   7.277  17.401  0.00  0.00    +0.000 A 
ATOM      3  C   UNL     1       7.822   7.222  18.368  0.00  0.00    +0.000 A 
ATOM      4  C   UNL     1       7.827   6.160  19.262  0.00  0.00    +0.000 A 
ATOM      5  C   UNL     1       6.795   5.183  19.232  0.00  0.00    +0.000 A 
ATOM      6  C   UNL     1       5.793   5.196  18.250  0.00  0.00    +0.000 A 
ENDROOT
BRANCH   1   7
ATOM      7  C   UNL     1       5.321   6.188  15.838  0.00  0.00    +0.000 C 
BRANCH   7   9
ATOM      8  C   UNL     1       7.366   4.964  15.302  0.00  0.00    +0.000 C 
ATOM      9  N   UNL     1       6.019   5.325  14.929  0.00  0.00    +0.000 NA
ATOM     10  C   UNL     1       5.212   4.337  14.250  0.00  0.00    +0.000 C 
ENDBRANCH   7   9
ENDBRANCH   1   7
BRANCH   3  11
ATOM     11  O   UNL     1       8.696   8.272  18.373  0.00  0.00    +0.000 OA
BRANCH  11  12
ATOM     12  C   UNL     1       8.190   9.495  17.825  0.00  0.00    +0.000 C 
BRANCH  12  13
ATOM     13  C   UNL     1       9.115  10.629  18.288  0.00  0.00    +0.000 C 
BRANCH  13  14
ATOM     14  C   UNL     1       9.448  10.533  19.761  0.00  0.00    +0.000 C 
ATOM     15  F   UNL     1      10.625  11.169  19.997  0.00  0.00    +0.000 F 
ENDBRANCH  13  14
ENDBRANCH  12  13
ENDBRANCH  11  12
ENDBRANCH   3  11
BRANCH   6  16
ATOM     16  S   UNL     1       4.656   3.827  18.064  0.00  0.00    +0.000 S 
BRANCH  16  17
ATOM     17  C   UNL     1       3.184   3.559  19.047  0.00  0.00    +0.000 A 
ATOM     18  C   UNL     1       3.516   2.979  20.306  0.00  0.00    +0.000 A 
ATOM     19  C   UNL     1       2.579   2.653  21.293  0.00  0.00    +0.000 A 
ATOM     20  C   UNL     1       1.236   2.882  21.058  0.00  0.00    +0.000 A 
ATOM     21  C   UNL     1       0.847   3.404  19.826  0.00  0.00    +0.000 A 
ATOM     22  C   UNL     1       1.801   3.688  18.790  0.00  0.00    +0.000 A 
BRANCH  22  23
ATOM     23  N   UNL     1       1.281   4.294  17.621  0.00  0.00    +0.000 N 
ATOM     24  H   UNL     1       1.099   3.588  16.907  0.00  0.00    +0.000 HD
ATOM     25  H   UNL     1       0.397   4.744  17.845  0.00  0.00    +0.000 HD
ENDBRANCH  22  23
ENDBRANCH  16  17
ENDBRANCH   6  16
TORSDOF 9
ENDMDL
MODEL 7
REMARK VINA RESULT:      -6.7      4.184      8.276
REMARK  Name = 
REMARK  11 active torsions:
REMARK  status: ('A' for Active; 'I' for Inactive)
REMARK    1  A    between atoms: C_1  and  N_2
REMARK    2  A    between atoms: N_2  and  C_3
REMARK    3  A    between atoms: N_2  and  C_4
REMARK    4  A    between atoms: C_4  and  C_5
REMARK    5  A    between atoms: C_7  and  O_8
REMARK    6  A    between atoms: O_8  and  C_9
REMARK    7  A    between atoms: C_9  and  C_10
REMARK    8  A    between atoms: C_10  and  C_11
REMARK    9  A    between atoms: C_15  and  S_16
REMARK   10  A    between atoms: S_16  and  C_17
REMARK   11  A    between atoms: C_22  and  N_23
REMARK                            x       y       z     vdW  Elec       q    Type
REMARK                         _______ _______ _______ _____ _____    ______ ____
ROOT
ATOM      1  C   UNL     1       3.095   4.999  18.428  0.00  0.00    +0.000 A 
ATOM      2  C   UNL     1       2.470   6.026  19.171  0.00  0.00    +0.000 A 
ATOM      3  C   UNL     1       2.550   7.345  18.773  0.00  0.00    +0.000 A 
ATOM      4  C   UNL     1       3.341   7.669  17.679  0.00  0.00    +0.000 A 
ATOM      5  C   UNL     1       4.115   6.674  17.023  0.00  0.00    +0.000 A 
ATOM      6  C   UNL     1       4.041   5.321  17.388  0.00  0.00    +0.000 A 
ENDROOT
BRANCH   1   7
ATOM      7  C   UNL     1       2.437   3.643  18.668  0.00  0.00    +0.000 C 
BRANCH   7   9
ATOM      8  C   UNL     1       1.669   2.494  20.682  0.00  0.00    +0.000 C 
ATOM      9  N   UNL     1       2.771   3.037  19.925  0.00  0.00    +0.000 NA
ATOM     10  C   UNL     1       4.039   2.345  19.974  0.00  0.00    +0.000 C 
ENDBRANCH   7   9
ENDBRANCH   1   7
BRANCH   3  11
ATOM     11  O   UNL     1       1.852   8.232  19.541  0.00  0.00    +0.000 OA
BRANCH  11  12
ATOM     12  C   UNL     1       1.459   7.749  20.831  0.00  0.00    +0.000 C 
BRANCH  12  13
ATOM     13  C   UNL     1       0.968   8.952  21.648  0.00  0.00    +0.000 C 
BRANCH  13  14
ATOM     14  C   UNL     1       0.613  10.133  20.771  0.00  0.00    +0.000 C 
ATOM     15  F   UNL     1      -0.715  10.096  20.486  0.00  0.00    +0.000 F 
ENDBRANCH  13  14
ENDBRANCH  12  13
ENDBRANCH  11  12
ENDBRANCH   3  11
BRANCH   6  16
ATOM     16  S   UNL     1       4.816   4.047  16.398  0.00  0.00    +0.000 S 
BRANCH  16  17
ATOM     17  C   UNL     1       5.850   4.331  14.965  0.00  0.00    +0.000 A 
ATOM     18  C   UNL     1       5.417   3.535  13.864  0.00  0.00    +0.000 A 
ATOM     19  C   UNL     1       6.026   3.538  12.604  0.00  0.00    +0.000 A 
ATOM     20  C   UNL     1       7.129   4.343  12.384  0.00  0.00    +0.000 A 
ATOM     21  C   UNL     1       7.626   5.107  13.437  0.00  0.00    +0.000 A 
ATOM     22  C   UNL     1       7.037   5.065  14.747  0.00  0.00    +0.000 A 
BRANCH  22  23
ATOM     23  N   UNL     1       7.587   5.955  15.700  0.00  0.00    +0.000 N 
ATOM     24  H   UNL     1       8.245   6.593  15.250  0.00  0.00    +0.000 HD
ATOM     25  H   UNL     1       6.840   6.515  16.103  0.00  0.00    +0.000 HD
ENDBRANCH  22  23
ENDBRANCH  16  17
ENDBRANCH   6  16
TORSDOF 9
ENDMDL
MODEL 8
REMARK VINA RESULT:      -6.7      1.464      1.839
REMARK  Name = 
REMARK  11 active torsions:
REMARK  status: ('A' for Active; 'I' for Inactive)
REMARK    1  A    between atoms: C_1  and  N_2
REMARK    2  A    between atoms: N_2  and  C_3
REMARK    3  A    between atoms: N_2  and  C_4
REMARK    4  A    between atoms: C_4  and  C_5
REMARK    5  A    between atoms: C_7  and  O_8
REMARK    6  A    between atoms: O_8  and  C_9
REMARK    7  A    between atoms: C_9  and  C_10
REMARK    8  A    between atoms: C_10  and  C_11
REMARK    9  A    between atoms: C_15  and  S_16
REMARK   10  A    between atoms: S_16  and  C_17
REMARK   11  A    between atoms: C_22  and  N_23
REMARK                            x       y       z     vdW  Elec       q    Type
REMARK                         _______ _______ _______ _____ _____    ______ ____
ROOT
ATOM      1  C   UNL     1       6.301   5.699  16.760  0.00  0.00    +0.000 A 
ATOM      2  C   UNL     1       6.734   5.493  15.431  0.00  0.00    +0.000 A 
ATOM      3  C   UNL     1       6.291   4.414  14.695  0.00  0.00    +0.000 A 
ATOM      4  C   UNL     1       5.484   3.467  15.310  0.00  0.00    +0.000 A 
ATOM      5  C   UNL     1       5.179   3.565  16.695  0.00  0.00    +0.000 A 
ATOM      6  C   UNL     1       5.594   4.660  17.468  0.00  0.00    +0.000 A 
ENDROOT
BRANCH   1   7
ATOM      7  C   UNL     1       6.413   7.163  17.174  0.00  0.00    +0.000 C 
BRANCH   7   9
ATOM      8  C   UNL     1       7.967   8.942  17.802  0.00  0.00    +0.000 C 
ATOM      9  N   UNL     1       7.689   7.527  17.722  0.00  0.00    +0.000 NA
ATOM     10  C   UNL     1       8.192   6.673  18.774  0.00  0.00    +0.000 C 
ENDBRANCH   7   9
ENDBRANCH   1   7
BRANCH   3  11
ATOM     11  O   UNL     1       6.736   4.362  13.404  0.00  0.00    +0.000 OA
BRANCH  11  12
ATOM     12  C   UNL     1       6.182   3.310  12.606  0.00  0.00    +0.000 C 
BRANCH  12  13
ATOM     13  C   UNL     1       4.759   3.728  12.209  0.00  0.00    +0.000 C 
BRANCH  13  14
ATOM     14  C   UNL     1       4.336   3.133  10.883  0.00  0.00    +0.000 C 
ATOM     15  F   UNL     1       3.019   2.805  10.939  0.00  0.00    +0.000 F 
ENDBRANCH  13  14
ENDBRANCH  12  13
ENDBRANCH  11  12
ENDBRANCH   3  11
BRANCH   6  16
ATOM     16  S   UNL     1       4.992   4.903  19.135  0.00  0.00    +0.000 S 
BRANCH  16  17
ATOM     17  C   UNL     1       3.361   4.462  19.724  0.00  0.00    +0.000 A 
ATOM     18  C   UNL     1       3.150   3.055  19.625  0.00  0.00    +0.000 A 
ATOM     19  C   UNL     1       1.970   2.408  20.009  0.00  0.00    +0.000 A 
ATOM     20  C   UNL     1       0.917   3.152  20.506  0.00  0.00    +0.000 A 
ATOM     21  C   UNL     1       1.047   4.537  20.583  0.00  0.00    +0.000 A 
ATOM     22  C   UNL     1       2.236   5.211  20.138  0.00  0.00    +0.000 A 
BRANCH  22  23
ATOM     23  N   UNL     1       2.269   6.610  20.352  0.00  0.00    +0.000 N 
ATOM     24  H   UNL     1       1.459   7.053  19.917  0.00  0.00    +0.000 HD
ATOM     25  H   UNL     1       2.224   6.795  21.351  0.00  0.00    +0.000 HD
ENDBRANCH  22  23
ENDBRANCH  16  17
ENDBRANCH   6  16
TORSDOF 9
ENDMDL
MODEL 9
REMARK VINA RESULT:      -6.6      1.163      1.468
REMARK  Name = 
REMARK  11 active torsions:
REMARK  status: ('A' for Active; 'I' for Inactive)
REMARK    1  A    between atoms: C_1  and  N_2
REMARK    2  A    between atoms: N_2  and  C_3
REMARK    3  A    between atoms: N_2  and  C_4
REMARK    4  A    between atoms: C_4  and  C_5
REMARK    5  A    between atoms: C_7  and  O_8
REMARK    6  A    between atoms: O_8  and  C_9
REMARK    7  A    between atoms: C_9  and  C_10
REMARK    8  A    between atoms: C_10  and  C_11
REMARK    9  A    between atoms: C_15  and  S_16
REMARK   10  A    between atoms: S_16  and  C_17
REMARK   11  A    between atoms: C_22  and  N_23
REMARK                            x       y       z     vdW  Elec       q    Type
REMARK                         _______ _______ _______ _____ _____    ______ ____
ROOT
ATOM      1  C   UNL     1       6.233   5.910  16.702  0.00  0.00    +0.000 A 
ATOM      2  C   UNL     1       6.799   5.605  15.443  0.00  0.00    +0.000 A 
ATOM      3  C   UNL     1       6.293   4.587  14.661  0.00  0.00    +0.000 A 
ATOM      4  C   UNL     1       5.275   3.792  15.169  0.00  0.00    +0.000 A 
ATOM      5  C   UNL     1       4.810   3.973  16.500  0.00  0.00    +0.000 A 
ATOM      6  C   UNL     1       5.287   5.011  17.315  0.00  0.00    +0.000 A 
ENDROOT
BRANCH   1   7
ATOM      7  C   UNL     1       6.517   7.350  17.119  0.00  0.00    +0.000 C 
BRANCH   7   9
ATOM      8  C   UNL     1       8.200   8.907  17.963  0.00  0.00    +0.000 C 
ATOM      9  N   UNL     1       7.782   7.539  17.769  0.00  0.00    +0.000 NA
ATOM     10  C   UNL     1       8.118   6.572  18.791  0.00  0.00    +0.000 C 
ENDBRANCH   7   9
ENDBRANCH   1   7
BRANCH   3  11
ATOM     11  O   UNL     1       6.890   4.433  13.442  0.00  0.00    +0.000 OA
BRANCH  11  12
ATOM     12  C   UNL     1       6.198   3.578  12.525  0.00  0.00    +0.000 C 
BRANCH  12  13
ATOM     13  C   UNL     1       7.252   2.891  11.645  0.00  0.00    +0.000 C 
BRANCH  13  14
ATOM     14  C   UNL     1       6.732   1.614  11.021  0.00  0.00    +0.000 C 
ATOM     15  F   UNL     1       5.531   1.302  11.572  0.00  0.00    +0.000 F 
ENDBRANCH  13  14
ENDBRANCH  12  13
ENDBRANCH  11  12
ENDBRANCH   3  11
BRANCH   6  16
ATOM     16  S   UNL     1       4.516   5.389  18.886  0.00  0.00    +0.000 S 
BRANCH  16  17
ATOM     17  C   UNL     1       3.123   4.517  19.595  0.00  0.00    +0.000 A 
ATOM     18  C   UNL     1       3.149   3.139  19.227  0.00  0.00    +0.000 A 
ATOM     19  C   UNL     1       2.191   2.201  19.629  0.00  0.00    +0.000 A 
ATOM     20  C   UNL     1       1.133   2.605  20.421  0.00  0.00    +0.000 A 
ATOM     21  C   UNL     1       1.030   3.949  20.773  0.00  0.00    +0.000 A 
ATOM     22  C   UNL     1       1.980   4.926  20.318  0.00  0.00    +0.000 A 
BRANCH  22  23
ATOM     23  N   UNL     1       1.806   6.238  20.819  0.00  0.00    +0.000 N 
ATOM     24  H   UNL     1       1.360   6.209  21.737  0.00  0.00    +0.000 HD
ATOM     25  H   UNL     1       2.717   6.675  20.932  0.00  0.00    +0.000 HD
ENDBRANCH  22  23
ENDBRANCH  16  17
ENDBRANCH   6  16
TORSDOF 9
ENDMDL
