MODEL 1
REMARK VINA RESULT:      -7.7      0.000      0.000
REMARK  Name = 
REMARK  3 active torsions:
REMARK  status: ('A' for Active; 'I' for Inactive)
REMARK    1  A    between atoms: C_1  and  C_2
REMARK    2  A    between atoms: C_9  and  C_10
REMARK    3  A    between atoms: C_12  and  C_13
REMARK                            x       y       z     vdW  Elec       q    Type
REMARK                         _______ _______ _______ _____ _____    ______ ____
ROOT
ATOM      1  C   UNL     1       2.331   9.274  17.763  0.00  0.00    +0.000 C 
ATOM      2  C   UNL     1       1.957   7.996  18.516  0.00  0.00    +0.000 C 
ATOM      3  C   UNL     1       1.679   8.282  19.991  0.00  0.00    +0.000 C 
ATOM      4  C   UNL     1       1.212   7.001  20.670  0.00  0.00    +0.000 C 
ATOM      5  C   UNL     1       2.089   5.803  20.385  0.00  0.00    +0.000 A 
ATOM      6  N   UNL     1       1.874   4.750  21.204  0.00  0.00    +0.000 NA
ATOM      7  C   UNL     1       2.608   3.640  21.037  0.00  0.00    +0.000 A 
ATOM      8  N   UNL     1       2.225   2.575  21.852  0.00  0.00    +0.000 N 
ATOM      9  C   UNL     1       3.607   3.533  20.067  0.00  0.00    +0.000 A 
ATOM     10  C   UNL     1       3.827   4.609  19.158  0.00  0.00    +0.000 A 
ATOM     11  C   UNL     1       2.998   5.766  19.318  0.00  0.00    +0.000 A 
ATOM     12  C   UNL     1       3.107   6.983  18.419  0.00  0.00    +0.000 C 
ATOM     13  H   UNL     1       1.526   2.913  22.509  0.00  0.00    +0.000 HD
ATOM     14  H   UNL     1       2.988   2.087  22.309  0.00  0.00    +0.000 HD
ENDROOT
BRANCH  10  15
ATOM     15  C   UNL     1       4.868   4.510  18.067  0.00  0.00    +0.000 A 
ATOM     16  C   UNL     1       4.560   4.077  16.766  0.00  0.00    +0.000 A 
ATOM     17  C   UNL     1       5.563   3.964  15.807  0.00  0.00    +0.000 A 
ATOM     18  N   UNL     1       6.840   4.333  16.011  0.00  0.00    +0.000 NA
ATOM     19  C   UNL     1       7.136   4.778  17.243  0.00  0.00    +0.000 A 
ATOM     20  C   UNL     1       6.218   4.833  18.285  0.00  0.00    +0.000 A 
ENDBRANCH  10  15
BRANCH   9  21
ATOM     21  C   UNL     1       4.402   2.335  20.068  0.00  0.00    +0.000 C 
ATOM     22  N   UNL     1       5.027   1.357  20.075  0.00  0.00    +0.000 NA
ENDBRANCH   9  21
TORSDOF 2
ENDMDL
MODEL 2
REMARK VINA RESULT:      -7.6      0.011      1.040
REMARK  Name = 
REMARK  3 active torsions:
REMARK  status: ('A' for Active; 'I' for Inactive)
REMARK    1  A    between atoms: C_1  and  C_2
REMARK    2  A    between atoms: C_9  and  C_10
REMARK    3  A    between atoms: C_12  and  C_13
REMARK                            x       y       z     vdW  Elec       q    Type
REMARK                         _______ _______ _______ _____ _____    ______ ____
ROOT
ATOM      1  C   UNL     1       2.332   9.282  17.767  0.00  0.00    +0.000 C 
ATOM      2  C   UNL     1       1.957   8.003  18.519  0.00  0.00    +0.000 C 
ATOM      3  C   UNL     1       1.677   8.288  19.994  0.00  0.00    +0.000 C 
ATOM      4  C   UNL     1       1.209   7.006  20.671  0.00  0.00    +0.000 C 
ATOM      5  C   UNL     1       2.086   5.809  20.386  0.00  0.00    +0.000 A 
ATOM      6  N   UNL     1       1.870   4.755  21.204  0.00  0.00    +0.000 NA
ATOM      7  C   UNL     1       2.604   3.645  21.036  0.00  0.00    +0.000 A 
ATOM      8  N   UNL     1       2.219   2.579  21.850  0.00  0.00    +0.000 N 
ATOM      9  C   UNL     1       3.605   3.539  20.068  0.00  0.00    +0.000 A 
ATOM     10  C   UNL     1       3.825   4.616  19.160  0.00  0.00    +0.000 A 
ATOM     11  C   UNL     1       2.996   5.773  19.320  0.00  0.00    +0.000 A 
ATOM     12  C   UNL     1       3.107   6.990  18.422  0.00  0.00    +0.000 C 
ATOM     13  H   UNL     1       1.520   2.917  22.506  0.00  0.00    +0.000 HD
ATOM     14  H   UNL     1       2.982   2.091  22.307  0.00  0.00    +0.000 HD
ENDROOT
BRANCH  10  15
ATOM     15  C   UNL     1       4.868   4.518  18.070  0.00  0.00    +0.000 A 
ATOM     16  C   UNL     1       6.215   4.861  18.280  0.00  0.00    +0.000 A 
ATOM     17  C   UNL     1       7.129   4.793  17.233  0.00  0.00    +0.000 A 
ATOM     18  N   UNL     1       6.831   4.326  16.008  0.00  0.00    +0.000 NA
ATOM     19  C   UNL     1       5.553   3.967  15.807  0.00  0.00    +0.000 A 
ATOM     20  C   UNL     1       4.557   4.091  16.768  0.00  0.00    +0.000 A 
ENDBRANCH  10  15
BRANCH   9  21
ATOM     21  C   UNL     1       4.399   2.341  20.068  0.00  0.00    +0.000 C 
ATOM     22  N   UNL     1       5.027   1.364  20.080  0.00  0.00    +0.000 NA
ENDBRANCH   9  21
TORSDOF 2
ENDMDL
MODEL 3
REMARK VINA RESULT:      -7.0      3.131      6.282
REMARK  Name = 
REMARK  3 active torsions:
REMARK  status: ('A' for Active; 'I' for Inactive)
REMARK    1  A    between atoms: C_1  and  C_2
REMARK    2  A    between atoms: C_9  and  C_10
REMARK    3  A    between atoms: C_12  and  C_13
REMARK                            x       y       z     vdW  Elec       q    Type
REMARK                         _______ _______ _______ _____ _____    ______ ____
ROOT
ATOM      1  C   UNL     1       4.532   2.902  11.703  0.00  0.00    +0.000 C 
ATOM      2  C   UNL     1       5.220   3.926  12.609  0.00  0.00    +0.000 C 
ATOM      3  C   UNL     1       6.739   3.861  12.467  0.00  0.00    +0.000 C 
ATOM      4  C   UNL     1       7.369   4.965  13.307  0.00  0.00    +0.000 C 
ATOM      5  C   UNL     1       6.841   5.035  14.721  0.00  0.00    +0.000 A 
ATOM      6  N   UNL     1       7.587   5.791  15.556  0.00  0.00    +0.000 NA
ATOM      7  C   UNL     1       7.206   5.910  16.836  0.00  0.00    +0.000 A 
ATOM      8  N   UNL     1       7.974   6.807  17.579  0.00  0.00    +0.000 N 
ATOM      9  C   UNL     1       6.082   5.262  17.354  0.00  0.00    +0.000 A 
ATOM     10  C   UNL     1       5.248   4.495  16.489  0.00  0.00    +0.000 A 
ATOM     11  C   UNL     1       5.642   4.422  15.113  0.00  0.00    +0.000 A 
ATOM     12  C   UNL     1       4.849   3.654  14.074  0.00  0.00    +0.000 C 
ATOM     13  H   UNL     1       8.763   7.099  17.007  0.00  0.00    +0.000 HD
ATOM     14  H   UNL     1       8.257   6.474  18.495  0.00  0.00    +0.000 HD
ENDROOT
BRANCH  10  15
ATOM     15  C   UNL     1       3.999   3.818  17.004  0.00  0.00    +0.000 A 
ATOM     16  C   UNL     1       2.776   4.496  17.144  0.00  0.00    +0.000 A 
ATOM     17  C   UNL     1       1.664   3.839  17.663  0.00  0.00    +0.000 A 
ATOM     18  N   UNL     1       1.644   2.531  17.974  0.00  0.00    +0.000 NA
ATOM     19  C   UNL     1       2.801   1.868  17.813  0.00  0.00    +0.000 A 
ATOM     20  C   UNL     1       3.982   2.468  17.392  0.00  0.00    +0.000 A 
ENDBRANCH  10  15
BRANCH   9  21
ATOM     21  C   UNL     1       5.848   5.376  18.767  0.00  0.00    +0.000 C 
ATOM     22  N   UNL     1       5.677   5.459  19.913  0.00  0.00    +0.000 NA
ENDBRANCH   9  21
TORSDOF 2
ENDMDL
MODEL 4
REMARK VINA RESULT:      -7.0      3.136      6.292
REMARK  Name = 
REMARK  3 active torsions:
REMARK  status: ('A' for Active; 'I' for Inactive)
REMARK    1  A    between atoms: C_1  and  C_2
REMARK    2  A    between atoms: C_9  and  C_10
REMARK    3  A    between atoms: C_12  and  C_13
REMARK                            x       y       z     vdW  Elec       q    Type
REMARK                         _______ _______ _______ _____ _____    ______ ____
ROOT
ATOM      1  C   UNL     1       4.545   2.897  11.705  0.00  0.00    +0.000 C 
ATOM      2  C   UNL     1       5.229   3.924  12.611  0.00  0.00    +0.000 C 
ATOM      3  C   UNL     1       6.748   3.864  12.470  0.00  0.00    +0.000 C 
ATOM      4  C   UNL     1       7.374   4.970  13.310  0.00  0.00    +0.000 C 
ATOM      5  C   UNL     1       6.844   5.038  14.724  0.00  0.00    +0.000 A 
ATOM      6  N   UNL     1       7.588   5.797  15.559  0.00  0.00    +0.000 NA
ATOM      7  C   UNL     1       7.205   5.915  16.840  0.00  0.00    +0.000 A 
ATOM      8  N   UNL     1       7.970   6.814  17.583  0.00  0.00    +0.000 N 
ATOM      9  C   UNL     1       6.083   5.263  17.357  0.00  0.00    +0.000 A 
ATOM     10  C   UNL     1       5.252   4.493  16.491  0.00  0.00    +0.000 A 
ATOM     11  C   UNL     1       5.647   4.421  15.116  0.00  0.00    +0.000 A 
ATOM     12  C   UNL     1       4.857   3.651  14.076  0.00  0.00    +0.000 C 
ATOM     13  H   UNL     1       8.758   7.109  17.012  0.00  0.00    +0.000 HD
ATOM     14  H   UNL     1       8.253   6.482  18.499  0.00  0.00    +0.000 HD
ENDROOT
BRANCH  10  15
ATOM     15  C   UNL     1       4.005   3.812  17.006  0.00  0.00    +0.000 A 
ATOM     16  C   UNL     1       3.984   2.457  17.380  0.00  0.00    +0.000 A 
ATOM     17  C   UNL     1       2.800   1.865  17.809  0.00  0.00    +0.000 A 
ATOM     18  N   UNL     1       1.647   2.535  17.982  0.00  0.00    +0.000 NA
ATOM     19  C   UNL     1       1.667   3.837  17.657  0.00  0.00    +0.000 A 
ATOM     20  C   UNL     1       2.779   4.485  17.132  0.00  0.00    +0.000 A 
ENDBRANCH  10  15
BRANCH   9  21
ATOM     21  C   UNL     1       5.848   5.375  18.770  0.00  0.00    +0.000 C 
ATOM     22  N   UNL     1       5.674   5.454  19.915  0.00  0.00    +0.000 NA
ENDBRANCH   9  21
TORSDOF 2
ENDMDL
MODEL 5
REMARK VINA RESULT:      -6.7      2.021      5.115
REMARK  Name = 
REMARK  3 active torsions:
REMARK  status: ('A' for Active; 'I' for Inactive)
REMARK    1  A    between atoms: C_1  and  C_2
REMARK    2  A    between atoms: C_9  and  C_10
REMARK    3  A    between atoms: C_12  and  C_13
REMARK                            x       y       z     vdW  Elec       q    Type
REMARK                         _______ _______ _______ _____ _____    ______ ____
ROOT
ATOM      1  C   UNL     1       7.629   8.056  17.371  0.00  0.00    +0.000 C 
ATOM      2  C   UNL     1       7.046   6.659  17.594  0.00  0.00    +0.000 C 
ATOM      3  C   UNL     1       7.272   5.762  16.378  0.00  0.00    +0.000 C 
ATOM      4  C   UNL     1       6.768   4.359  16.690  0.00  0.00    +0.000 C 
ATOM      5  C   UNL     1       5.379   4.326  17.284  0.00  0.00    +0.000 A 
ATOM      6  N   UNL     1       4.804   3.103  17.284  0.00  0.00    +0.000 NA
ATOM      7  C   UNL     1       3.566   2.970  17.785  0.00  0.00    +0.000 A 
ATOM      8  N   UNL     1       3.115   1.652  17.847  0.00  0.00    +0.000 N 
ATOM      9  C   UNL     1       2.832   4.049  18.282  0.00  0.00    +0.000 A 
ATOM     10  C   UNL     1       3.428   5.343  18.339  0.00  0.00    +0.000 A 
ATOM     11  C   UNL     1       4.769   5.455  17.849  0.00  0.00    +0.000 A 
ATOM     12  C   UNL     1       5.537   6.764  17.856  0.00  0.00    +0.000 C 
ATOM     13  H   UNL     1       3.793   1.061  17.373  0.00  0.00    +0.000 HD
ATOM     14  H   UNL     1       2.168   1.506  17.515  0.00  0.00    +0.000 HD
ENDROOT
BRANCH  10  15
ATOM     15  C   UNL     1       2.680   6.524  18.914  0.00  0.00    +0.000 A 
ATOM     16  C   UNL     1       2.281   6.583  20.260  0.00  0.00    +0.000 A 
ATOM     17  C   UNL     1       1.558   7.674  20.731  0.00  0.00    +0.000 A 
ATOM     18  N   UNL     1       1.273   8.760  19.992  0.00  0.00    +0.000 NA
ATOM     19  C   UNL     1       1.678   8.726  18.712  0.00  0.00    +0.000 A 
ATOM     20  C   UNL     1       2.321   7.637  18.135  0.00  0.00    +0.000 A 
ENDBRANCH  10  15
BRANCH   9  21
ATOM     21  C   UNL     1       1.474   3.795  18.680  0.00  0.00    +0.000 C 
ATOM     22  N   UNL     1       0.378   3.572  18.993  0.00  0.00    +0.000 NA
ENDBRANCH   9  21
TORSDOF 2
ENDMDL
MODEL 6
REMARK VINA RESULT:      -6.7      2.023      5.077
REMARK  Name = 
REMARK  3 active torsions:
REMARK  status: ('A' for Active; 'I' for Inactive)
REMARK    1  A    between atoms: C_1  and  C_2
REMARK    2  A    between atoms: C_9  and  C_10
REMARK    3  A    between atoms: C_12  and  C_13
REMARK                            x       y       z     vdW  Elec       q    Type
REMARK                         _______ _______ _______ _____ _____    ______ ____
ROOT
ATOM      1  C   UNL     1       7.649   8.076  17.383  0.00  0.00    +0.000 C 
ATOM      2  C   UNL     1       7.065   6.679  17.607  0.00  0.00    +0.000 C 
ATOM      3  C   UNL     1       7.301   5.778  16.396  0.00  0.00    +0.000 C 
ATOM      4  C   UNL     1       6.795   4.376  16.709  0.00  0.00    +0.000 C 
ATOM      5  C   UNL     1       5.401   4.344  17.292  0.00  0.00    +0.000 A 
ATOM      6  N   UNL     1       4.827   3.121  17.292  0.00  0.00    +0.000 NA
ATOM      7  C   UNL     1       3.585   2.990  17.783  0.00  0.00    +0.000 A 
ATOM      8  N   UNL     1       3.134   1.671  17.847  0.00  0.00    +0.000 N 
ATOM      9  C   UNL     1       2.846   4.070  18.271  0.00  0.00    +0.000 A 
ATOM     10  C   UNL     1       3.441   5.364  18.327  0.00  0.00    +0.000 A 
ATOM     11  C   UNL     1       4.786   5.476  17.848  0.00  0.00    +0.000 A 
ATOM     12  C   UNL     1       5.553   6.784  17.856  0.00  0.00    +0.000 C 
ATOM     13  H   UNL     1       3.817   1.079  17.380  0.00  0.00    +0.000 HD
ATOM     14  H   UNL     1       2.190   1.523  17.508  0.00  0.00    +0.000 HD
ENDROOT
BRANCH  10  15
ATOM     15  C   UNL     1       2.688   6.547  18.892  0.00  0.00    +0.000 A 
ATOM     16  C   UNL     1       2.337   7.661  18.111  0.00  0.00    +0.000 A 
ATOM     17  C   UNL     1       1.680   8.744  18.687  0.00  0.00    +0.000 A 
ATOM     18  N   UNL     1       1.261   8.773  19.964  0.00  0.00    +0.000 NA
ATOM     19  C   UNL     1       1.565   7.699  20.710  0.00  0.00    +0.000 A 
ATOM     20  C   UNL     1       2.300   6.617  20.240  0.00  0.00    +0.000 A 
ENDBRANCH  10  15
BRANCH   9  21
ATOM     21  C   UNL     1       1.486   3.817  18.659  0.00  0.00    +0.000 C 
ATOM     22  N   UNL     1       0.391   3.593  18.974  0.00  0.00    +0.000 NA
ENDBRANCH   9  21
TORSDOF 2
ENDMDL
MODEL 7
REMARK VINA RESULT:      -6.6      1.954      4.550
REMARK  Name = 
REMARK  3 active torsions:
REMARK  status: ('A' for Active; 'I' for Inactive)
REMARK    1  A    between atoms: C_1  and  C_2
REMARK    2  A    between atoms: C_9  and  C_10
REMARK    3  A    between atoms: C_12  and  C_13
REMARK                            x       y       z     vdW  Elec       q    Type
REMARK                         _______ _______ _______ _____ _____    ______ ____
ROOT
ATOM      1  C   UNL     1      -0.181   9.367  21.169  0.00  0.00    +0.000 C 
ATOM      2  C   UNL     1       1.040   9.145  20.274  0.00  0.00    +0.000 C 
ATOM      3  C   UNL     1       0.896   9.883  18.945  0.00  0.00    +0.000 C 
ATOM      4  C   UNL     1       2.176   9.715  18.137  0.00  0.00    +0.000 C 
ATOM      5  C   UNL     1       2.660   8.286  18.048  0.00  0.00    +0.000 A 
ATOM      6  N   UNL     1       3.603   8.077  17.103  0.00  0.00    +0.000 NA
ATOM      7  C   UNL     1       4.092   6.838  16.940  0.00  0.00    +0.000 A 
ATOM      8  N   UNL     1       5.142   6.756  16.025  0.00  0.00    +0.000 N 
ATOM      9  C   UNL     1       3.649   5.746  17.688  0.00  0.00    +0.000 A 
ATOM     10  C   UNL     1       2.689   5.942  18.724  0.00  0.00    +0.000 A 
ATOM     11  C   UNL     1       2.217   7.280  18.919  0.00  0.00    +0.000 A 
ATOM     12  C   UNL     1       1.206   7.645  19.989  0.00  0.00    +0.000 C 
ATOM     13  H   UNL     1       5.238   7.660  15.569  0.00  0.00    +0.000 HD
ATOM     14  H   UNL     1       5.076   5.989  15.364  0.00  0.00    +0.000 HD
ENDROOT
BRANCH  10  15
ATOM     15  C   UNL     1       2.221   4.791  19.585  0.00  0.00    +0.000 A 
ATOM     16  C   UNL     1       1.321   3.818  19.119  0.00  0.00    +0.000 A 
ATOM     17  C   UNL     1       0.887   2.800  19.964  0.00  0.00    +0.000 A 
ATOM     18  N   UNL     1       1.346   2.618  21.215  0.00  0.00    +0.000 NA
ATOM     19  C   UNL     1       2.231   3.526  21.657  0.00  0.00    +0.000 A 
ATOM     20  C   UNL     1       2.645   4.625  20.914  0.00  0.00    +0.000 A 
ENDBRANCH  10  15
BRANCH   9  21
ATOM     21  C   UNL     1       4.166   4.452  17.336  0.00  0.00    +0.000 C 
ATOM     22  N   UNL     1       4.570   3.398  17.064  0.00  0.00    +0.000 NA
ENDBRANCH   9  21
TORSDOF 2
ENDMDL
MODEL 8
REMARK VINA RESULT:      -6.6      1.942      4.653
REMARK  Name = 
REMARK  3 active torsions:
REMARK  status: ('A' for Active; 'I' for Inactive)
REMARK    1  A    between atoms: C_1  and  C_2
REMARK    2  A    between atoms: C_9  and  C_10
REMARK    3  A    between atoms: C_12  and  C_13
REMARK                            x       y       z     vdW  Elec       q    Type
REMARK                         _______ _______ _______ _____ _____    ______ ____
ROOT
ATOM      1  C   UNL     1      -0.171   9.337  21.199  0.00  0.00    +0.000 C 
ATOM      2  C   UNL     1       1.049   9.112  20.303  0.00  0.00    +0.000 C 
ATOM      3  C   UNL     1       0.903   9.845  18.971  0.00  0.00    +0.000 C 
ATOM      4  C   UNL     1       2.182   9.675  18.162  0.00  0.00    +0.000 C 
ATOM      5  C   UNL     1       2.668   8.246  18.079  0.00  0.00    +0.000 A 
ATOM      6  N   UNL     1       3.609   8.033  17.133  0.00  0.00    +0.000 NA
ATOM      7  C   UNL     1       4.099   6.794  16.975  0.00  0.00    +0.000 A 
ATOM      8  N   UNL     1       5.148   6.709  16.059  0.00  0.00    +0.000 N 
ATOM      9  C   UNL     1       3.658   5.705  17.729  0.00  0.00    +0.000 A 
ATOM     10  C   UNL     1       2.700   5.904  18.765  0.00  0.00    +0.000 A 
ATOM     11  C   UNL     1       2.227   7.243  18.955  0.00  0.00    +0.000 A 
ATOM     12  C   UNL     1       1.217   7.611  20.025  0.00  0.00    +0.000 C 
ATOM     13  H   UNL     1       5.243   7.611  15.599  0.00  0.00    +0.000 HD
ATOM     14  H   UNL     1       5.082   5.940  15.402  0.00  0.00    +0.000 HD
ENDROOT
BRANCH  10  15
ATOM     15  C   UNL     1       2.234   4.757  19.631  0.00  0.00    +0.000 A 
ATOM     16  C   UNL     1       2.688   4.571  20.948  0.00  0.00    +0.000 A 
ATOM     17  C   UNL     1       2.261   3.475  21.691  0.00  0.00    +0.000 A 
ATOM     18  N   UNL     1       1.344   2.590  21.261  0.00  0.00    +0.000 NA
ATOM     19  C   UNL     1       0.881   2.778  20.015  0.00  0.00    +0.000 A 
ATOM     20  C   UNL     1       1.325   3.790  19.171  0.00  0.00    +0.000 A 
ENDBRANCH  10  15
BRANCH   9  21
ATOM     21  C   UNL     1       4.176   4.410  17.382  0.00  0.00    +0.000 C 
ATOM     22  N   UNL     1       4.585   3.364  17.084  0.00  0.00    +0.000 NA
ENDBRANCH   9  21
TORSDOF 2
ENDMDL
MODEL 9
REMARK VINA RESULT:      -6.2      1.876      4.942
REMARK  Name = 
REMARK  3 active torsions:
REMARK  status: ('A' for Active; 'I' for Inactive)
REMARK    1  A    between atoms: C_1  and  C_2
REMARK    2  A    between atoms: C_9  and  C_10
REMARK    3  A    between atoms: C_12  and  C_13
REMARK                            x       y       z     vdW  Elec       q    Type
REMARK                         _______ _______ _______ _____ _____    ______ ____
ROOT
ATOM      1  C   UNL     1       7.702   8.183  17.251  0.00  0.00    +0.000 C 
ATOM      2  C   UNL     1       7.186   6.933  17.968  0.00  0.00    +0.000 C 
ATOM      3  C   UNL     1       7.556   5.663  17.205  0.00  0.00    +0.000 C 
ATOM      4  C   UNL     1       7.112   4.448  18.010  0.00  0.00    +0.000 C 
ATOM      5  C   UNL     1       5.686   4.529  18.503  0.00  0.00    +0.000 A 
ATOM      6  N   UNL     1       5.185   3.356  18.948  0.00  0.00    +0.000 NA
ATOM      7  C   UNL     1       3.922   3.321  19.400  0.00  0.00    +0.000 A 
ATOM      8  N   UNL     1       3.545   2.094  19.945  0.00  0.00    +0.000 N 
ATOM      9  C   UNL     1       3.091   4.443  19.407  0.00  0.00    +0.000 A 
ATOM     10  C   UNL     1       3.604   5.706  18.988  0.00  0.00    +0.000 A 
ATOM     11  C   UNL     1       4.970   5.734  18.558  0.00  0.00    +0.000 A 
ATOM     12  C   UNL     1       5.657   7.005  18.096  0.00  0.00    +0.000 C 
ATOM     13  H   UNL     1       4.291   1.425  19.769  0.00  0.00    +0.000 HD
ATOM     14  H   UNL     1       2.637   1.754  19.650  0.00  0.00    +0.000 HD
ENDROOT
BRANCH  10  15
ATOM     15  C   UNL     1       2.747   6.950  19.026  0.00  0.00    +0.000 A 
ATOM     16  C   UNL     1       2.160   7.428  20.210  0.00  0.00    +0.000 A 
ATOM     17  C   UNL     1       1.345   8.555  20.185  0.00  0.00    +0.000 A 
ATOM     18  N   UNL     1       1.134   9.303  19.088  0.00  0.00    +0.000 NA
ATOM     19  C   UNL     1       1.717   8.872  17.958  0.00  0.00    +0.000 A 
ATOM     20  C   UNL     1       2.468   7.705  17.874  0.00  0.00    +0.000 A 
ENDBRANCH  10  15
BRANCH   9  21
ATOM     21  C   UNL     1       1.724   4.249  19.806  0.00  0.00    +0.000 C 
ATOM     22  N   UNL     1       0.620   4.072  20.121  0.00  0.00    +0.000 NA
ENDBRANCH   9  21
TORSDOF 2
ENDMDL
