MODEL 1
REMARK VINA RESULT:      -7.0      0.000      0.000
REMARK  Name = 
REMARK  11 active torsions:
REMARK  status: ('A' for Active; 'I' for Inactive)
REMARK    1  A    between atoms: C_1  and  O_2
REMARK    2  A    between atoms: O_2  and  C_3
REMARK    3  A    between atoms: C_6  and  C_7
REMARK    4  A    between atoms: C_7  and  S_8
REMARK    5  A    between atoms: S_8  and  C_9
REMARK    6  A    between atoms: C_13  and  O_14
REMARK    7  A    between atoms: O_14  and  C_15
REMARK    8  A    between atoms: C_16  and  O_17
REMARK    9  A    between atoms: O_17  and  C_18
REMARK   10  A    between atoms: N_23  and  C_24
REMARK   11  A    between atoms: C_27  and  C_28
REMARK                            x       y       z     vdW  Elec       q    Type
REMARK                         _______ _______ _______ _____ _____    ______ ____
ROOT
ATOM      1  C   UNL     1       0.120  10.754  19.079  0.00  0.00    +0.000 A 
ATOM      2  N   UNL     1       0.662   9.947  18.221  0.00  0.00    +0.000 NA
ATOM      3  C   UNL     1       1.346   8.830  18.688  0.00  0.00    +0.000 A 
ATOM      4  C   UNL     1       2.166   8.141  17.801  0.00  0.00    +0.000 A 
ATOM      5  C   UNL     1       2.930   7.049  18.228  0.00  0.00    +0.000 A 
ATOM      6  C   UNL     1       2.819   6.588  19.554  0.00  0.00    +0.000 A 
ATOM      7  C   UNL     1       1.982   7.276  20.444  0.00  0.00    +0.000 A 
ATOM      8  C   UNL     1       1.288   8.415  20.009  0.00  0.00    +0.000 A 
ATOM      9  C   UNL     1       0.540   9.267  20.946  0.00  0.00    +0.000 A 
ATOM     10  O   UNL     1       0.331   8.825  22.075  0.00  0.00    +0.000 OA
ATOM     11  N   UNL     1       0.118  10.516  20.463  0.00  0.00    +0.000 N 
ENDROOT
BRANCH  11  12
ATOM     12  C   UNL     1      -0.233  11.497  21.451  0.00  0.00    +0.000 A 
ATOM     13  C   UNL     1       0.381  12.768  21.412  0.00  0.00    +0.000 A 
ATOM     14  C   UNL     1      -0.041  13.799  22.258  0.00  0.00    +0.000 A 
ATOM     15  C   UNL     1      -1.070  13.576  23.175  0.00  0.00    +0.000 A 
ATOM     16  C   UNL     1      -1.635  14.700  23.993  0.00  0.00    +0.000 C 
ATOM     17  C   UNL     1      -1.626  12.299  23.271  0.00  0.00    +0.000 A 
ATOM     18  C   UNL     1      -1.195  11.268  22.435  0.00  0.00    +0.000 A 
ENDBRANCH  11  12
BRANCH   5  19
ATOM     19  O   UNL     1       3.789   6.377  17.392  0.00  0.00    +0.000 OA
ATOM     20  C   UNL     1       5.004   7.057  17.084  0.00  0.00    +0.000 C 
ENDBRANCH   5  19
BRANCH   6  21
ATOM     21  O   UNL     1       3.584   5.502  19.890  0.00  0.00    +0.000 OA
ATOM     22  C   UNL     1       2.921   4.336  20.364  0.00  0.00    +0.000 C 
ENDBRANCH   6  21
BRANCH   1  23
ATOM     23  S   UNL     1      -0.519  12.245  18.385  0.00  0.00    +0.000 S 
BRANCH  23  24
ATOM     24  C   UNL     1      -2.073  11.649  17.641  0.00  0.00    +0.000 C 
BRANCH  24  28
ATOM     25  C   UNL     1      -5.524  12.194  20.232  0.00  0.00    +0.000 A 
ATOM     26  C   UNL     1      -5.640  11.515  19.020  0.00  0.00    +0.000 A 
ATOM     27  C   UNL     1      -4.530  11.335  18.188  0.00  0.00    +0.000 A 
ATOM     28  C   UNL     1      -3.278  11.865  18.537  0.00  0.00    +0.000 A 
ATOM     29  C   UNL     1      -3.170  12.556  19.753  0.00  0.00    +0.000 A 
ATOM     30  C   UNL     1      -4.285  12.720  20.597  0.00  0.00    +0.000 A 
BRANCH  25  32
ATOM     31  C   UNL     1      -7.639  11.259  20.770  0.00  0.00    +0.000 C 
ATOM     32  O   UNL     1      -6.689  12.306  20.938  0.00  0.00    +0.000 OA
ENDBRANCH  25  32
ENDBRANCH  24  28
ENDBRANCH  23  24
ENDBRANCH   1  23
TORSDOF 7
ENDMDL
MODEL 2
REMARK VINA RESULT:      -7.0      2.817      4.352
REMARK  Name = 
REMARK  11 active torsions:
REMARK  status: ('A' for Active; 'I' for Inactive)
REMARK    1  A    between atoms: C_1  and  O_2
REMARK    2  A    between atoms: O_2  and  C_3
REMARK    3  A    between atoms: C_6  and  C_7
REMARK    4  A    between atoms: C_7  and  S_8
REMARK    5  A    between atoms: S_8  and  C_9
REMARK    6  A    between atoms: C_13  and  O_14
REMARK    7  A    between atoms: O_14  and  C_15
REMARK    8  A    between atoms: C_16  and  O_17
REMARK    9  A    between atoms: O_17  and  C_18
REMARK   10  A    between atoms: N_23  and  C_24
REMARK   11  A    between atoms: C_27  and  C_28
REMARK                            x       y       z     vdW  Elec       q    Type
REMARK                         _______ _______ _______ _____ _____    ______ ____
ROOT
ATOM      1  C   UNL     1       1.510   8.796  20.924  0.00  0.00    +0.000 A 
ATOM      2  N   UNL     1       1.665   7.548  21.242  0.00  0.00    +0.000 NA
ATOM      3  C   UNL     1       1.775   6.605  20.226  0.00  0.00    +0.000 A 
ATOM      4  C   UNL     1       1.643   5.261  20.557  0.00  0.00    +0.000 A 
ATOM      5  C   UNL     1       1.680   4.270  19.570  0.00  0.00    +0.000 A 
ATOM      6  C   UNL     1       1.928   4.621  18.229  0.00  0.00    +0.000 A 
ATOM      7  C   UNL     1       2.073   5.976  17.898  0.00  0.00    +0.000 A 
ATOM      8  C   UNL     1       1.953   6.954  18.896  0.00  0.00    +0.000 A 
ATOM      9  C   UNL     1       1.924   8.388  18.571  0.00  0.00    +0.000 A 
ATOM     10  O   UNL     1       2.255   8.721  17.434  0.00  0.00    +0.000 OA
ATOM     11  N   UNL     1       1.528   9.260  19.599  0.00  0.00    +0.000 N 
ENDROOT
BRANCH  11  12
ATOM     12  C   UNL     1       1.105  10.571  19.196  0.00  0.00    +0.000 A 
ATOM     13  C   UNL     1      -0.238  10.776  18.811  0.00  0.00    +0.000 A 
ATOM     14  C   UNL     1      -0.728  12.061  18.558  0.00  0.00    +0.000 A 
ATOM     15  C   UNL     1       0.118  13.166  18.664  0.00  0.00    +0.000 A 
ATOM     16  C   UNL     1      -0.414  14.564  18.536  0.00  0.00    +0.000 C 
ATOM     17  C   UNL     1       1.466  12.961  18.967  0.00  0.00    +0.000 A 
ATOM     18  C   UNL     1       1.955  11.676  19.206  0.00  0.00    +0.000 A 
ENDBRANCH  11  12
BRANCH   5  19
ATOM     19  O   UNL     1       1.501   2.937  19.854  0.00  0.00    +0.000 OA
ATOM     20  C   UNL     1       1.599   2.585  21.233  0.00  0.00    +0.000 C 
ENDBRANCH   5  19
BRANCH   6  21
ATOM     21  O   UNL     1       1.968   3.593  17.325  0.00  0.00    +0.000 OA
ATOM     22  C   UNL     1       3.223   2.970  17.073  0.00  0.00    +0.000 C 
ENDBRANCH   6  21
BRANCH   1  23
ATOM     23  S   UNL     1       1.155   9.862  22.284  0.00  0.00    +0.000 S 
BRANCH  23  24
ATOM     24  C   UNL     1      -0.655  10.025  22.141  0.00  0.00    +0.000 C 
BRANCH  24  28
ATOM     25  C   UNL     1      -2.066  13.985  23.259  0.00  0.00    +0.000 A 
ATOM     26  C   UNL     1      -2.802  12.846  23.582  0.00  0.00    +0.000 A 
ATOM     27  C   UNL     1      -2.347  11.572  23.228  0.00  0.00    +0.000 A 
ATOM     28  C   UNL     1      -1.154  11.411  22.505  0.00  0.00    +0.000 A 
ATOM     29  C   UNL     1      -0.423  12.561  22.174  0.00  0.00    +0.000 A 
ATOM     30  C   UNL     1      -0.874  13.842  22.548  0.00  0.00    +0.000 A 
BRANCH  25  32
ATOM     31  C   UNL     1      -4.041  15.153  23.867  0.00  0.00    +0.000 C 
ATOM     32  O   UNL     1      -2.633  15.163  23.656  0.00  0.00    +0.000 OA
ENDBRANCH  25  32
ENDBRANCH  24  28
ENDBRANCH  23  24
ENDBRANCH   1  23
TORSDOF 7
ENDMDL
MODEL 3
REMARK VINA RESULT:      -6.9      4.862      9.305
REMARK  Name = 
REMARK  11 active torsions:
REMARK  status: ('A' for Active; 'I' for Inactive)
REMARK    1  A    between atoms: C_1  and  O_2
REMARK    2  A    between atoms: O_2  and  C_3
REMARK    3  A    between atoms: C_6  and  C_7
REMARK    4  A    between atoms: C_7  and  S_8
REMARK    5  A    between atoms: S_8  and  C_9
REMARK    6  A    between atoms: C_13  and  O_14
REMARK    7  A    between atoms: O_14  and  C_15
REMARK    8  A    between atoms: C_16  and  O_17
REMARK    9  A    between atoms: O_17  and  C_18
REMARK   10  A    between atoms: N_23  and  C_24
REMARK   11  A    between atoms: C_27  and  C_28
REMARK                            x       y       z     vdW  Elec       q    Type
REMARK                         _______ _______ _______ _____ _____    ______ ____
ROOT
ATOM      1  C   UNL     1       2.966   4.806  17.409  0.00  0.00    +0.000 A 
ATOM      2  N   UNL     1       3.531   3.994  16.571  0.00  0.00    +0.000 NA
ATOM      3  C   UNL     1       4.727   4.372  15.970  0.00  0.00    +0.000 A 
ATOM      4  C   UNL     1       5.169   3.647  14.869  0.00  0.00    +0.000 A 
ATOM      5  C   UNL     1       6.331   4.019  14.183  0.00  0.00    +0.000 A 
ATOM      6  C   UNL     1       7.110   5.095  14.651  0.00  0.00    +0.000 A 
ATOM      7  C   UNL     1       6.669   5.817  15.769  0.00  0.00    +0.000 A 
ATOM      8  C   UNL     1       5.460   5.471  16.390  0.00  0.00    +0.000 A 
ATOM      9  C   UNL     1       4.872   6.302  17.450  0.00  0.00    +0.000 A 
ATOM     10  O   UNL     1       5.584   7.171  17.954  0.00  0.00    +0.000 OA
ATOM     11  N   UNL     1       3.543   6.023  17.807  0.00  0.00    +0.000 N 
ENDROOT
BRANCH  11  12
ATOM     12  C   UNL     1       2.842   7.055  18.517  0.00  0.00    +0.000 A 
ATOM     13  C   UNL     1       2.437   8.216  17.825  0.00  0.00    +0.000 A 
ATOM     14  C   UNL     1       1.622   9.175  18.438  0.00  0.00    +0.000 A 
ATOM     15  C   UNL     1       1.214   9.003  19.762  0.00  0.00    +0.000 A 
ATOM     16  C   UNL     1       0.230   9.941  20.396  0.00  0.00    +0.000 C 
ATOM     17  C   UNL     1       1.678   7.895  20.475  0.00  0.00    +0.000 A 
ATOM     18  C   UNL     1       2.500   6.948  19.865  0.00  0.00    +0.000 A 
ENDBRANCH  11  12
BRANCH   5  19
ATOM     19  O   UNL     1       6.770   3.358  13.061  0.00  0.00    +0.000 OA
ATOM     20  C   UNL     1       5.766   3.055  12.095  0.00  0.00    +0.000 C 
ENDBRANCH   5  19
BRANCH   6  21
ATOM     21  O   UNL     1       8.244   5.384  13.937  0.00  0.00    +0.000 OA
ATOM     22  C   UNL     1       8.094   5.858  12.604  0.00  0.00    +0.000 C 
ENDBRANCH   6  21
BRANCH   1  23
ATOM     23  S   UNL     1       1.351   4.322  17.928  0.00  0.00    +0.000 S 
BRANCH  23  24
ATOM     24  C   UNL     1       1.573   2.526  18.143  0.00  0.00    +0.000 C 
BRANCH  24  28
ATOM     25  C   UNL     1       4.776   1.491  20.898  0.00  0.00    +0.000 A 
ATOM     26  C   UNL     1       3.738   2.334  21.292  0.00  0.00    +0.000 A 
ATOM     27  C   UNL     1       2.706   2.663  20.409  0.00  0.00    +0.000 A 
ATOM     28  C   UNL     1       2.707   2.181  19.090  0.00  0.00    +0.000 A 
ATOM     29  C   UNL     1       3.759   1.341  18.696  0.00  0.00    +0.000 A 
ATOM     30  C   UNL     1       4.789   0.997  19.593  0.00  0.00    +0.000 A 
BRANCH  25  32
ATOM     31  C   UNL     1       6.092  -0.095  22.078  0.00  0.00    +0.000 C 
ATOM     32  O   UNL     1       5.723   1.263  21.856  0.00  0.00    +0.000 OA
ENDBRANCH  25  32
ENDBRANCH  24  28
ENDBRANCH  23  24
ENDBRANCH   1  23
TORSDOF 7
ENDMDL
MODEL 4
REMARK VINA RESULT:      -6.9      0.491      1.022
REMARK  Name = 
REMARK  11 active torsions:
REMARK  status: ('A' for Active; 'I' for Inactive)
REMARK    1  A    between atoms: C_1  and  O_2
REMARK    2  A    between atoms: O_2  and  C_3
REMARK    3  A    between atoms: C_6  and  C_7
REMARK    4  A    between atoms: C_7  and  S_8
REMARK    5  A    between atoms: S_8  and  C_9
REMARK    6  A    between atoms: C_13  and  O_14
REMARK    7  A    between atoms: O_14  and  C_15
REMARK    8  A    between atoms: C_16  and  O_17
REMARK    9  A    between atoms: O_17  and  C_18
REMARK   10  A    between atoms: N_23  and  C_24
REMARK   11  A    between atoms: C_27  and  C_28
REMARK                            x       y       z     vdW  Elec       q    Type
REMARK                         _______ _______ _______ _____ _____    ______ ____
ROOT
ATOM      1  C   UNL     1       0.173  10.665  19.007  0.00  0.00    +0.000 A 
ATOM      2  N   UNL     1       0.734   9.881  18.140  0.00  0.00    +0.000 NA
ATOM      3  C   UNL     1       1.447   8.777  18.595  0.00  0.00    +0.000 A 
ATOM      4  C   UNL     1       2.283   8.118  17.700  0.00  0.00    +0.000 A 
ATOM      5  C   UNL     1       3.075   7.042  18.115  0.00  0.00    +0.000 A 
ATOM      6  C   UNL     1       2.977   6.564  19.436  0.00  0.00    +0.000 A 
ATOM      7  C   UNL     1       2.125   7.222  20.334  0.00  0.00    +0.000 A 
ATOM      8  C   UNL     1       1.402   8.347  19.912  0.00  0.00    +0.000 A 
ATOM      9  C   UNL     1       0.634   9.170  20.858  0.00  0.00    +0.000 A 
ATOM     10  O   UNL     1       0.437   8.711  21.983  0.00  0.00    +0.000 OA
ATOM     11  N   UNL     1       0.179  10.413  20.388  0.00  0.00    +0.000 N 
ENDROOT
BRANCH  11  12
ATOM     12  C   UNL     1      -0.195  11.374  21.387  0.00  0.00    +0.000 A 
ATOM     13  C   UNL     1       0.348  12.676  21.331  0.00  0.00    +0.000 A 
ATOM     14  C   UNL     1      -0.104  13.684  22.190  0.00  0.00    +0.000 A 
ATOM     15  C   UNL     1      -1.092  13.406  23.136  0.00  0.00    +0.000 A 
ATOM     16  C   UNL     1      -1.693  14.499  23.971  0.00  0.00    +0.000 C 
ATOM     17  C   UNL     1      -1.576  12.101  23.248  0.00  0.00    +0.000 A 
ATOM     18  C   UNL     1      -1.114  11.095  22.398  0.00  0.00    +0.000 A 
ENDBRANCH  11  12
BRANCH   5  19
ATOM     19  O   UNL     1       3.950   6.401  17.271  0.00  0.00    +0.000 OA
ATOM     20  C   UNL     1       5.213   7.039  17.096  0.00  0.00    +0.000 C 
ENDBRANCH   5  19
BRANCH   6  21
ATOM     21  O   UNL     1       3.770   5.495  19.760  0.00  0.00    +0.000 OA
ATOM     22  C   UNL     1       3.150   4.224  19.922  0.00  0.00    +0.000 C 
ENDBRANCH   6  21
BRANCH   1  23
ATOM     23  S   UNL     1      -0.505  12.146  18.329  0.00  0.00    +0.000 S 
BRANCH  23  24
ATOM     24  C   UNL     1      -2.089  11.536  17.663  0.00  0.00    +0.000 C 
BRANCH  24  28
ATOM     25  C   UNL     1      -5.452  12.404  20.282  0.00  0.00    +0.000 A 
ATOM     26  C   UNL     1      -4.163  12.821  20.611  0.00  0.00    +0.000 A 
ATOM     27  C   UNL     1      -3.082  12.547  19.767  0.00  0.00    +0.000 A 
ATOM     28  C   UNL     1      -3.262  11.813  18.584  0.00  0.00    +0.000 A 
ATOM     29  C   UNL     1      -4.560  11.387  18.264  0.00  0.00    +0.000 A 
ATOM     30  C   UNL     1      -5.649  11.680  19.106  0.00  0.00    +0.000 A 
BRANCH  25  32
ATOM     31  C   UNL     1      -5.958  12.993  22.525  0.00  0.00    +0.000 C 
ATOM     32  O   UNL     1      -6.410  12.729  21.201  0.00  0.00    +0.000 OA
ENDBRANCH  25  32
ENDBRANCH  24  28
ENDBRANCH  23  24
ENDBRANCH   1  23
TORSDOF 7
ENDMDL
MODEL 5
REMARK VINA RESULT:      -6.9      2.185      3.440
REMARK  Name = 
REMARK  11 active torsions:
REMARK  status: ('A' for Active; 'I' for Inactive)
REMARK    1  A    between atoms: C_1  and  O_2
REMARK    2  A    between atoms: O_2  and  C_3
REMARK    3  A    between atoms: C_6  and  C_7
REMARK    4  A    between atoms: C_7  and  S_8
REMARK    5  A    between atoms: S_8  and  C_9
REMARK    6  A    between atoms: C_13  and  O_14
REMARK    7  A    between atoms: O_14  and  C_15
REMARK    8  A    between atoms: C_16  and  O_17
REMARK    9  A    between atoms: O_17  and  C_18
REMARK   10  A    between atoms: N_23  and  C_24
REMARK   11  A    between atoms: C_27  and  C_28
REMARK                            x       y       z     vdW  Elec       q    Type
REMARK                         _______ _______ _______ _____ _____    ______ ____
ROOT
ATOM      1  C   UNL     1       2.238   8.182  18.640  0.00  0.00    +0.000 A 
ATOM      2  N   UNL     1       3.097   7.569  17.886  0.00  0.00    +0.000 NA
ATOM      3  C   UNL     1       3.608   6.346  18.305  0.00  0.00    +0.000 A 
ATOM      4  C   UNL     1       4.730   5.842  17.656  0.00  0.00    +0.000 A 
ATOM      5  C   UNL     1       5.328   4.649  18.074  0.00  0.00    +0.000 A 
ATOM      6  C   UNL     1       4.752   3.901  19.119  0.00  0.00    +0.000 A 
ATOM      7  C   UNL     1       3.613   4.404  19.766  0.00  0.00    +0.000 A 
ATOM      8  C   UNL     1       3.080   5.642  19.377  0.00  0.00    +0.000 A 
ATOM      9  C   UNL     1       2.000   6.289  20.135  0.00  0.00    +0.000 A 
ATOM     10  O   UNL     1       1.404   5.610  20.971  0.00  0.00    +0.000 OA
ATOM     11  N   UNL     1       1.732   7.633  19.829  0.00  0.00    +0.000 N 
ENDROOT
BRANCH  11  12
ATOM     12  C   UNL     1       0.994   8.376  20.811  0.00  0.00    +0.000 A 
ATOM     13  C   UNL     1       1.642   9.402  21.533  0.00  0.00    +0.000 A 
ATOM     14  C   UNL     1       0.925  10.248  22.386  0.00  0.00    +0.000 A 
ATOM     15  C   UNL     1      -0.450  10.073  22.552  0.00  0.00    +0.000 A 
ATOM     16  C   UNL     1      -1.264  11.050  23.348  0.00  0.00    +0.000 C 
ATOM     17  C   UNL     1      -1.081   9.011  21.901  0.00  0.00    +0.000 A 
ATOM     18  C   UNL     1      -0.362   8.161  21.061  0.00  0.00    +0.000 A 
ENDBRANCH  11  12
BRANCH   5  19
ATOM     19  O   UNL     1       6.467   4.149  17.490  0.00  0.00    +0.000 OA
ATOM     20  C   UNL     1       6.735   4.614  16.169  0.00  0.00    +0.000 C 
ENDBRANCH   5  19
BRANCH   6  21
ATOM     21  O   UNL     1       5.385   2.734  19.458  0.00  0.00    +0.000 OA
ATOM     22  C   UNL     1       4.691   1.812  20.291  0.00  0.00    +0.000 C 
ENDBRANCH   6  21
BRANCH   1  23
ATOM     23  S   UNL     1       1.837   9.819  18.119  0.00  0.00    +0.000 S 
BRANCH  23  24
ATOM     24  C   UNL     1       0.086   9.621  17.653  0.00  0.00    +0.000 C 
BRANCH  24  28
ATOM     25  C   UNL     1      -2.517  12.458  19.677  0.00  0.00    +0.000 A 
ATOM     26  C   UNL     1      -1.135  12.503  19.854  0.00  0.00    +0.000 A 
ATOM     27  C   UNL     1      -0.297  11.595  19.200  0.00  0.00    +0.000 A 
ATOM     28  C   UNL     1      -0.830  10.591  18.376  0.00  0.00    +0.000 A 
ATOM     29  C   UNL     1      -2.222  10.544  18.210  0.00  0.00    +0.000 A 
ATOM     30  C   UNL     1      -3.062  11.471  18.856  0.00  0.00    +0.000 A 
BRANCH  25  32
ATOM     31  C   UNL     1      -4.633  13.268  20.387  0.00  0.00    +0.000 C 
ATOM     32  O   UNL     1      -3.215  13.396  20.385  0.00  0.00    +0.000 OA
ENDBRANCH  25  32
ENDBRANCH  24  28
ENDBRANCH  23  24
ENDBRANCH   1  23
TORSDOF 7
ENDMDL
MODEL 6
REMARK VINA RESULT:      -6.9      2.067      4.242
REMARK  Name = 
REMARK  11 active torsions:
REMARK  status: ('A' for Active; 'I' for Inactive)
REMARK    1  A    between atoms: C_1  and  O_2
REMARK    2  A    between atoms: O_2  and  C_3
REMARK    3  A    between atoms: C_6  and  C_7
REMARK    4  A    between atoms: C_7  and  S_8
REMARK    5  A    between atoms: S_8  and  C_9
REMARK    6  A    between atoms: C_13  and  O_14
REMARK    7  A    between atoms: O_14  and  C_15
REMARK    8  A    between atoms: C_16  and  O_17
REMARK    9  A    between atoms: O_17  and  C_18
REMARK   10  A    between atoms: N_23  and  C_24
REMARK   11  A    between atoms: C_27  and  C_28
REMARK                            x       y       z     vdW  Elec       q    Type
REMARK                         _______ _______ _______ _____ _____    ______ ____
ROOT
ATOM      1  C   UNL     1       0.571   8.646  20.520  0.00  0.00    +0.000 A 
ATOM      2  N   UNL     1       1.463   7.742  20.780  0.00  0.00    +0.000 NA
ATOM      3  C   UNL     1       2.323   7.335  19.766  0.00  0.00    +0.000 A 
ATOM      4  C   UNL     1       3.067   6.176  19.958  0.00  0.00    +0.000 A 
ATOM      5  C   UNL     1       3.900   5.680  18.950  0.00  0.00    +0.000 A 
ATOM      6  C   UNL     1       4.052   6.397  17.747  0.00  0.00    +0.000 A 
ATOM      7  C   UNL     1       3.311   7.573  17.559  0.00  0.00    +0.000 A 
ATOM      8  C   UNL     1       2.424   8.004  18.556  0.00  0.00    +0.000 A 
ATOM      9  C   UNL     1       1.502   9.128  18.335  0.00  0.00    +0.000 A 
ATOM     10  O   UNL     1       1.696   9.838  17.348  0.00  0.00    +0.000 OA
ATOM     11  N   UNL     1       0.478   9.300  19.280  0.00  0.00    +0.000 N 
ENDROOT
BRANCH  11  12
ATOM     12  C   UNL     1      -0.640  10.102  18.871  0.00  0.00    +0.000 A 
ATOM     13  C   UNL     1      -1.668   9.514  18.103  0.00  0.00    +0.000 A 
ATOM     14  C   UNL     1      -2.844  10.215  17.813  0.00  0.00    +0.000 A 
ATOM     15  C   UNL     1      -3.007  11.525  18.267  0.00  0.00    +0.000 A 
ATOM     16  C   UNL     1      -4.311  12.248  18.092  0.00  0.00    +0.000 C 
ATOM     17  C   UNL     1      -1.961  12.137  18.961  0.00  0.00    +0.000 A 
ATOM     18  C   UNL     1      -0.785  11.440  19.237  0.00  0.00    +0.000 A 
ENDBRANCH  11  12
BRANCH   5  19
ATOM     19  O   UNL     1       4.609   4.511  19.085  0.00  0.00    +0.000 OA
ATOM     20  C   UNL     1       3.826   3.320  19.131  0.00  0.00    +0.000 C 
ENDBRANCH   5  19
BRANCH   6  21
ATOM     21  O   UNL     1       4.901   5.858  16.817  0.00  0.00    +0.000 OA
ATOM     22  C   UNL     1       6.220   6.384  16.727  0.00  0.00    +0.000 C 
ENDBRANCH   6  21
BRANCH   1  23
ATOM     23  S   UNL     1      -0.603   8.915  21.809  0.00  0.00    +0.000 S 
BRANCH  23  24
ATOM     24  C   UNL     1       0.122  10.361  22.650  0.00  0.00    +0.000 C 
BRANCH  24  28
ATOM     25  C   UNL     1      -2.559  13.781  22.832  0.00  0.00    +0.000 A 
ATOM     26  C   UNL     1      -2.992  12.512  23.213  0.00  0.00    +0.000 A 
ATOM     27  C   UNL     1      -2.130  11.413  23.160  0.00  0.00    +0.000 A 
ATOM     28  C   UNL     1      -0.815  11.553  22.687  0.00  0.00    +0.000 A 
ATOM     29  C   UNL     1      -0.388  12.830  22.294  0.00  0.00    +0.000 A 
ATOM     30  C   UNL     1      -1.254  13.939  22.366  0.00  0.00    +0.000 A 
BRANCH  25  32
ATOM     31  C   UNL     1      -4.278  14.792  24.120  0.00  0.00    +0.000 C 
ATOM     32  O   UNL     1      -3.508  14.760  22.923  0.00  0.00    +0.000 OA
ENDBRANCH  25  32
ENDBRANCH  24  28
ENDBRANCH  23  24
ENDBRANCH   1  23
TORSDOF 7
ENDMDL
MODEL 7
REMARK VINA RESULT:      -6.8      3.670      7.362
REMARK  Name = 
REMARK  11 active torsions:
REMARK  status: ('A' for Active; 'I' for Inactive)
REMARK    1  A    between atoms: C_1  and  O_2
REMARK    2  A    between atoms: O_2  and  C_3
REMARK    3  A    between atoms: C_6  and  C_7
REMARK    4  A    between atoms: C_7  and  S_8
REMARK    5  A    between atoms: S_8  and  C_9
REMARK    6  A    between atoms: C_13  and  O_14
REMARK    7  A    between atoms: O_14  and  C_15
REMARK    8  A    between atoms: C_16  and  O_17
REMARK    9  A    between atoms: O_17  and  C_18
REMARK   10  A    between atoms: N_23  and  C_24
REMARK   11  A    between atoms: C_27  and  C_28
REMARK                            x       y       z     vdW  Elec       q    Type
REMARK                         _______ _______ _______ _____ _____    ______ ____
ROOT
ATOM      1  C   UNL     1       0.575  11.950  20.138  0.00  0.00    +0.000 A 
ATOM      2  N   UNL     1       1.648  12.186  19.449  0.00  0.00    +0.000 NA
ATOM      3  C   UNL     1       2.267  13.426  19.573  0.00  0.00    +0.000 A 
ATOM      4  C   UNL     1       3.225  13.782  18.631  0.00  0.00    +0.000 A 
ATOM      5  C   UNL     1       3.835  15.040  18.665  0.00  0.00    +0.000 A 
ATOM      6  C   UNL     1       3.537  15.938  19.708  0.00  0.00    +0.000 A 
ATOM      7  C   UNL     1       2.580  15.573  20.666  0.00  0.00    +0.000 A 
ATOM      8  C   UNL     1       1.926  14.336  20.561  0.00  0.00    +0.000 A 
ATOM      9  C   UNL     1       0.798  13.985  21.435  0.00  0.00    +0.000 A 
ATOM     10  O   UNL     1       0.598  14.694  22.421  0.00  0.00    +0.000 OA
ATOM     11  N   UNL     1       0.046  12.855  21.072  0.00  0.00    +0.000 N 
ENDROOT
BRANCH  11  12
ATOM     12  C   UNL     1      -1.262  12.745  21.652  0.00  0.00    +0.000 A 
ATOM     13  C   UNL     1      -1.429  12.007  22.844  0.00  0.00    +0.000 A 
ATOM     14  C   UNL     1      -2.652  12.001  23.524  0.00  0.00    +0.000 A 
ATOM     15  C   UNL     1      -3.739  12.715  23.015  0.00  0.00    +0.000 A 
ATOM     16  C   UNL     1      -5.015  12.841  23.794  0.00  0.00    +0.000 C 
ATOM     17  C   UNL     1      -3.601  13.382  21.797  0.00  0.00    +0.000 A 
ATOM     18  C   UNL     1      -2.383  13.376  21.114  0.00  0.00    +0.000 A 
ENDBRANCH  11  12
BRANCH   5  19
ATOM     19  O   UNL     1       4.747  15.445  17.719  0.00  0.00    +0.000 OA
ATOM     20  C   UNL     1       6.007  14.778  17.756  0.00  0.00    +0.000 C 
ENDBRANCH   5  19
BRANCH   6  21
ATOM     21  O   UNL     1       4.190  17.142  19.683  0.00  0.00    +0.000 OA
ATOM     22  C   UNL     1       4.301  17.871  20.901  0.00  0.00    +0.000 C 
ENDBRANCH   6  21
BRANCH   1  23
ATOM     23  S   UNL     1      -0.244  10.442  19.729  0.00  0.00    +0.000 S 
BRANCH  23  24
ATOM     24  C   UNL     1       0.722   9.240  20.701  0.00  0.00    +0.000 C 
BRANCH  24  28
ATOM     25  C   UNL     1       3.181   6.640  18.229  0.00  0.00    +0.000 A 
ATOM     26  C   UNL     1       2.733   7.870  17.749  0.00  0.00    +0.000 A 
ATOM     27  C   UNL     1       1.946   8.708  18.544  0.00  0.00    +0.000 A 
ATOM     28  C   UNL     1       1.559   8.317  19.836  0.00  0.00    +0.000 A 
ATOM     29  C   UNL     1       2.005   7.075  20.310  0.00  0.00    +0.000 A 
ATOM     30  C   UNL     1       2.811   6.240  19.513  0.00  0.00    +0.000 A 
BRANCH  25  32
ATOM     31  C   UNL     1       4.896   6.643  16.588  0.00  0.00    +0.000 C 
ATOM     32  O   UNL     1       3.931   5.919  17.343  0.00  0.00    +0.000 OA
ENDBRANCH  25  32
ENDBRANCH  24  28
ENDBRANCH  23  24
ENDBRANCH   1  23
TORSDOF 7
ENDMDL
MODEL 8
REMARK VINA RESULT:      -6.8      0.675      1.392
REMARK  Name = 
REMARK  11 active torsions:
REMARK  status: ('A' for Active; 'I' for Inactive)
REMARK    1  A    between atoms: C_1  and  O_2
REMARK    2  A    between atoms: O_2  and  C_3
REMARK    3  A    between atoms: C_6  and  C_7
REMARK    4  A    between atoms: C_7  and  S_8
REMARK    5  A    between atoms: S_8  and  C_9
REMARK    6  A    between atoms: C_13  and  O_14
REMARK    7  A    between atoms: O_14  and  C_15
REMARK    8  A    between atoms: C_16  and  O_17
REMARK    9  A    between atoms: O_17  and  C_18
REMARK   10  A    between atoms: N_23  and  C_24
REMARK   11  A    between atoms: C_27  and  C_28
REMARK                            x       y       z     vdW  Elec       q    Type
REMARK                         _______ _______ _______ _____ _____    ______ ____
ROOT
ATOM      1  C   UNL     1      -0.316  10.935  18.975  0.00  0.00    +0.000 A 
ATOM      2  N   UNL     1       0.199  10.046  18.184  0.00  0.00    +0.000 NA
ATOM      3  C   UNL     1       0.938   9.004  18.733  0.00  0.00    +0.000 A 
ATOM      4  C   UNL     1       1.725   8.235  17.883  0.00  0.00    +0.000 A 
ATOM      5  C   UNL     1       2.540   7.215  18.385  0.00  0.00    +0.000 A 
ATOM      6  C   UNL     1       2.515   6.905  19.759  0.00  0.00    +0.000 A 
ATOM      7  C   UNL     1       1.712   7.674  20.613  0.00  0.00    +0.000 A 
ATOM      8  C   UNL     1       0.965   8.741  20.094  0.00  0.00    +0.000 A 
ATOM      9  C   UNL     1       0.248   9.679  20.970  0.00  0.00    +0.000 A 
ATOM     10  O   UNL     1       0.113   9.365  22.153  0.00  0.00    +0.000 OA
ATOM     11  N   UNL     1      -0.234  10.857  20.375  0.00  0.00    +0.000 N 
ENDROOT
BRANCH  11  12
ATOM     12  C   UNL     1      -0.555  11.936  21.265  0.00  0.00    +0.000 A 
ATOM     13  C   UNL     1      -1.710  11.847  22.071  0.00  0.00    +0.000 A 
ATOM     14  C   UNL     1      -1.978  12.801  23.058  0.00  0.00    +0.000 A 
ATOM     15  C   UNL     1      -1.107  13.877  23.245  0.00  0.00    +0.000 A 
ATOM     16  C   UNL     1      -1.295  14.834  24.386  0.00  0.00    +0.000 C 
ATOM     17  C   UNL     1      -0.005  14.012  22.398  0.00  0.00    +0.000 A 
ATOM     18  C   UNL     1       0.252  13.065  21.407  0.00  0.00    +0.000 A 
ENDBRANCH  11  12
BRANCH   5  19
ATOM     19  O   UNL     1       3.370   6.469  17.581  0.00  0.00    +0.000 OA
ATOM     20  C   UNL     1       4.534   7.142  17.108  0.00  0.00    +0.000 C 
ENDBRANCH   5  19
BRANCH   6  21
ATOM     21  O   UNL     1       3.327   5.880  20.170  0.00  0.00    +0.000 OA
ATOM     22  C   UNL     1       2.718   4.646  20.529  0.00  0.00    +0.000 C 
ENDBRANCH   6  21
BRANCH   1  23
ATOM     23  S   UNL     1      -1.032  12.323  18.156  0.00  0.00    +0.000 S 
BRANCH  23  24
ATOM     24  C   UNL     1      -2.356  11.521  17.193  0.00  0.00    +0.000 C 
BRANCH  24  28
ATOM     25  C   UNL     1      -6.249  11.895  19.095  0.00  0.00    +0.000 A 
ATOM     26  C   UNL     1      -5.082  12.213  19.787  0.00  0.00    +0.000 A 
ATOM     27  C   UNL     1      -3.830  12.098  19.175  0.00  0.00    +0.000 A 
ATOM     28  C   UNL     1      -3.715  11.624  17.859  0.00  0.00    +0.000 A 
ATOM     29  C   UNL     1      -4.892  11.295  17.171  0.00  0.00    +0.000 A 
ATOM     30  C   UNL     1      -6.153  11.429  17.784  0.00  0.00    +0.000 A 
BRANCH  25  32
ATOM     31  C   UNL     1      -7.254  12.186  21.226  0.00  0.00    +0.000 C 
ATOM     32  O   UNL     1      -7.400  12.042  19.817  0.00  0.00    +0.000 OA
ENDBRANCH  25  32
ENDBRANCH  24  28
ENDBRANCH  23  24
ENDBRANCH   1  23
TORSDOF 7
ENDMDL
MODEL 9
REMARK VINA RESULT:      -6.7      1.577      2.289
REMARK  Name = 
REMARK  11 active torsions:
REMARK  status: ('A' for Active; 'I' for Inactive)
REMARK    1  A    between atoms: C_1  and  O_2
REMARK    2  A    between atoms: O_2  and  C_3
REMARK    3  A    between atoms: C_6  and  C_7
REMARK    4  A    between atoms: C_7  and  S_8
REMARK    5  A    between atoms: S_8  and  C_9
REMARK    6  A    between atoms: C_13  and  O_14
REMARK    7  A    between atoms: O_14  and  C_15
REMARK    8  A    between atoms: C_16  and  O_17
REMARK    9  A    between atoms: O_17  and  C_18
REMARK   10  A    between atoms: N_23  and  C_24
REMARK   11  A    between atoms: C_27  and  C_28
REMARK                            x       y       z     vdW  Elec       q    Type
REMARK                         _______ _______ _______ _____ _____    ______ ____
ROOT
ATOM      1  C   UNL     1       1.465   8.941  18.520  0.00  0.00    +0.000 A 
ATOM      2  N   UNL     1       2.228   8.302  17.689  0.00  0.00    +0.000 NA
ATOM      3  C   UNL     1       2.962   7.214  18.150  0.00  0.00    +0.000 A 
ATOM      4  C   UNL     1       3.988   6.725  17.350  0.00  0.00    +0.000 A 
ATOM      5  C   UNL     1       4.803   5.675  17.788  0.00  0.00    +0.000 A 
ATOM      6  C   UNL     1       4.542   5.049  19.022  0.00  0.00    +0.000 A 
ATOM      7  C   UNL     1       3.499   5.536  19.823  0.00  0.00    +0.000 A 
ATOM      8  C   UNL     1       2.748   6.641  19.394  0.00  0.00    +0.000 A 
ATOM      9  C   UNL     1       1.766   7.293  20.271  0.00  0.00    +0.000 A 
ATOM     10  O   UNL     1       1.437   6.700  21.299  0.00  0.00    +0.000 OA
ATOM     11  N   UNL     1       1.275   8.541  19.853  0.00  0.00    +0.000 N 
ENDROOT
BRANCH  11  12
ATOM     12  C   UNL     1       0.658   9.355  20.861  0.00  0.00    +0.000 A 
ATOM     13  C   UNL     1       0.992  10.724  20.945  0.00  0.00    +0.000 A 
ATOM     14  C   UNL     1       0.305  11.583  21.809  0.00  0.00    +0.000 A 
ATOM     15  C   UNL     1      -0.717  11.088  22.622  0.00  0.00    +0.000 A 
ATOM     16  C   UNL     1      -1.562  12.011  23.451  0.00  0.00    +0.000 C 
ATOM     17  C   UNL     1      -0.998   9.721  22.599  0.00  0.00    +0.000 A 
ATOM     18  C   UNL     1      -0.302   8.864  21.746  0.00  0.00    +0.000 A 
ENDBRANCH  11  12
BRANCH   5  19
ATOM     19  O   UNL     1       5.858   5.200  17.046  0.00  0.00    +0.000 OA
ATOM     20  C   UNL     1       7.021   6.025  17.033  0.00  0.00    +0.000 C 
ENDBRANCH   5  19
BRANCH   6  21
ATOM     21  O   UNL     1       5.371   4.016  19.372  0.00  0.00    +0.000 OA
ATOM     22  C   UNL     1       4.780   2.767  19.713  0.00  0.00    +0.000 C 
ENDBRANCH   6  21
BRANCH   1  23
ATOM     23  S   UNL     1       0.766  10.430  17.882  0.00  0.00    +0.000 S 
BRANCH  23  24
ATOM     24  C   UNL     1      -0.872   9.845  17.336  0.00  0.00    +0.000 C 
BRANCH  24  28
ATOM     25  C   UNL     1      -4.171  12.040  19.129  0.00  0.00    +0.000 A 
ATOM     26  C   UNL     1      -4.396  11.120  18.106  0.00  0.00    +0.000 A 
ATOM     27  C   UNL     1      -3.337  10.411  17.532  0.00  0.00    +0.000 A 
ATOM     28  C   UNL     1      -2.014  10.632  17.948  0.00  0.00    +0.000 A 
ATOM     29  C   UNL     1      -1.793  11.566  18.971  0.00  0.00    +0.000 A 
ATOM     30  C   UNL     1      -2.863  12.267  19.560  0.00  0.00    +0.000 A 
BRANCH  25  32
ATOM     31  C   UNL     1      -5.615  12.475  20.962  0.00  0.00    +0.000 C 
ATOM     32  O   UNL     1      -5.293  12.669  19.589  0.00  0.00    +0.000 OA
ENDBRANCH  25  32
ENDBRANCH  24  28
ENDBRANCH  23  24
ENDBRANCH   1  23
TORSDOF 7
ENDMDL
