MODEL 1
REMARK VINA RESULT:      -6.7      0.000      0.000
REMARK  Name = 
REMARK  11 active torsions:
REMARK  status: ('A' for Active; 'I' for Inactive)
REMARK    1  A    between atoms: C_1  and  O_2
REMARK    2  A    between atoms: O_2  and  C_3
REMARK    3  A    between atoms: C_6  and  C_7
REMARK    4  A    between atoms: C_12  and  O_13
REMARK    5  A    between atoms: C_14  and  O_15
REMARK    6  A    between atoms: O_15  and  C_16
REMARK    7  A    between atoms: C_17  and  O_18
REMARK    8  A    between atoms: O_18  and  C_19
REMARK    9  A    between atoms: C_20  and  O_21
REMARK   10  A    between atoms: O_21  and  C_22
REMARK   11  A    between atoms: C_26  and  N_27
REMARK                            x       y       z     vdW  Elec       q    Type
REMARK                         _______ _______ _______ _____ _____    ______ ____
ROOT
ATOM      1  C   UNL     1       1.397   8.405  20.341  0.00  0.00    +0.000 A 
ATOM      2  C   UNL     1       1.514   8.550  21.666  0.00  0.00    +0.000 A 
ATOM      3  C   UNL     1       0.688   9.547  22.341  0.00  0.00    +0.000 A 
ATOM      4  O   UNL     1       0.742   9.686  23.561  0.00  0.00    +0.000 OA
ATOM      5  C   UNL     1      -0.219  10.356  21.517  0.00  0.00    +0.000 A 
ATOM      6  C   UNL     1      -1.057  11.313  22.097  0.00  0.00    +0.000 A 
ATOM      7  C   UNL     1      -1.916  12.089  21.296  0.00  0.00    +0.000 A 
ATOM      8  C   UNL     1      -1.921  11.885  19.885  0.00  0.00    +0.000 A 
ATOM      9  C   UNL     1      -1.071  10.903  19.312  0.00  0.00    +0.000 A 
ATOM     10  C   UNL     1      -0.227  10.143  20.144  0.00  0.00    +0.000 A 
ATOM     11  O   UNL     1       0.572   9.187  19.548  0.00  0.00    +0.000 OA
ENDROOT
BRANCH   1  15
ATOM     12  C   UNL     1       3.687   5.388  18.316  0.00  0.00    +0.000 A 
ATOM     13  C   UNL     1       3.529   6.652  17.748  0.00  0.00    +0.000 A 
ATOM     14  C   UNL     1       2.789   7.629  18.409  0.00  0.00    +0.000 A 
ATOM     15  C   UNL     1       2.139   7.350  19.620  0.00  0.00    +0.000 A 
ATOM     16  C   UNL     1       2.247   6.055  20.149  0.00  0.00    +0.000 A 
ATOM     17  C   UNL     1       3.050   5.083  19.535  0.00  0.00    +0.000 A 
BRANCH  17  18
ATOM     18  N   UNL     1       3.044   3.769  20.042  0.00  0.00    +0.000 N 
ATOM     19  H   UNL     1       3.585   3.648  20.890  0.00  0.00    +0.000 HD
ATOM     20  H   UNL     1       3.269   3.092  19.315  0.00  0.00    +0.000 HD
ENDBRANCH  17  18
BRANCH  12  22
ATOM     21  C   UNL     1       5.868   4.616  17.886  0.00  0.00    +0.000 C 
ATOM     22  O   UNL     1       4.462   4.404  17.746  0.00  0.00    +0.000 OA
ENDBRANCH  12  22
ENDBRANCH   1  15
BRANCH   6  23
ATOM     23  O   UNL     1      -1.040  11.487  23.463  0.00  0.00    +0.000 OA
ATOM     24  H   UNL     1      -1.963  11.516  23.806  0.00  0.00    +0.000 HD
ENDBRANCH   6  23
BRANCH   7  25
ATOM     25  O   UNL     1      -2.766  13.051  21.777  0.00  0.00    +0.000 OA
ATOM     26  C   UNL     1      -3.984  12.704  22.416  0.00  0.00    +0.000 C 
ENDBRANCH   7  25
BRANCH   8  27
ATOM     27  O   UNL     1      -2.697  12.576  18.988  0.00  0.00    +0.000 OA
ATOM     28  C   UNL     1      -4.049  12.230  18.738  0.00  0.00    +0.000 C 
ENDBRANCH   8  27
BRANCH   9  29
ATOM     29  O   UNL     1      -0.946  10.567  17.982  0.00  0.00    +0.000 OA
ATOM     30  C   UNL     1      -1.946   9.802  17.330  0.00  0.00    +0.000 C 
ENDBRANCH   9  29
TORSDOF 7
ENDMDL
MODEL 2
REMARK VINA RESULT:      -6.6      1.047      1.413
REMARK  Name = 
REMARK  11 active torsions:
REMARK  status: ('A' for Active; 'I' for Inactive)
REMARK    1  A    between atoms: C_1  and  O_2
REMARK    2  A    between atoms: O_2  and  C_3
REMARK    3  A    between atoms: C_6  and  C_7
REMARK    4  A    between atoms: C_12  and  O_13
REMARK    5  A    between atoms: C_14  and  O_15
REMARK    6  A    between atoms: O_15  and  C_16
REMARK    7  A    between atoms: C_17  and  O_18
REMARK    8  A    between atoms: O_18  and  C_19
REMARK    9  A    between atoms: C_20  and  O_21
REMARK   10  A    between atoms: O_21  and  C_22
REMARK   11  A    between atoms: C_26  and  N_27
REMARK                            x       y       z     vdW  Elec       q    Type
REMARK                         _______ _______ _______ _____ _____    ______ ____
ROOT
ATOM      1  C   UNL     1       1.430   8.301  20.384  0.00  0.00    +0.000 A 
ATOM      2  C   UNL     1       1.521   8.463  21.710  0.00  0.00    +0.000 A 
ATOM      3  C   UNL     1       0.692   9.478  22.354  0.00  0.00    +0.000 A 
ATOM      4  O   UNL     1       0.721   9.632  23.573  0.00  0.00    +0.000 OA
ATOM      5  C   UNL     1      -0.187  10.286  21.499  0.00  0.00    +0.000 A 
ATOM      6  C   UNL     1      -1.026  11.260  22.049  0.00  0.00    +0.000 A 
ATOM      7  C   UNL     1      -1.857  12.036  21.219  0.00  0.00    +0.000 A 
ATOM      8  C   UNL     1      -1.834  11.814  19.811  0.00  0.00    +0.000 A 
ATOM      9  C   UNL     1      -0.984  10.814  19.270  0.00  0.00    +0.000 A 
ATOM     10  C   UNL     1      -0.168  10.056  20.129  0.00  0.00    +0.000 A 
ATOM     11  O   UNL     1       0.633   9.082  19.564  0.00  0.00    +0.000 OA
ENDROOT
BRANCH   1  15
ATOM     12  C   UNL     1       3.467   5.150  18.295  0.00  0.00    +0.000 A 
ATOM     13  C   UNL     1       2.766   4.878  19.469  0.00  0.00    +0.000 A 
ATOM     14  C   UNL     1       2.104   5.902  20.142  0.00  0.00    +0.000 A 
ATOM     15  C   UNL     1       2.176   7.229  19.694  0.00  0.00    +0.000 A 
ATOM     16  C   UNL     1       2.940   7.502  18.550  0.00  0.00    +0.000 A 
ATOM     17  C   UNL     1       3.550   6.473  17.818  0.00  0.00    +0.000 A 
BRANCH  17  18
ATOM     18  N   UNL     1       4.393   6.805  16.740  0.00  0.00    +0.000 N 
ATOM     19  H   UNL     1       5.128   7.463  16.973  0.00  0.00    +0.000 HD
ATOM     20  H   UNL     1       3.854   7.071  15.919  0.00  0.00    +0.000 HD
ENDBRANCH  17  18
BRANCH  12  22
ATOM     21  C   UNL     1       3.703   2.841  17.904  0.00  0.00    +0.000 C 
ATOM     22  O   UNL     1       4.083   4.171  17.548  0.00  0.00    +0.000 OA
ENDBRANCH  12  22
ENDBRANCH   1  15
BRANCH   6  23
ATOM     23  O   UNL     1      -1.036  11.453  23.412  0.00  0.00    +0.000 OA
ATOM     24  H   UNL     1      -1.130  12.413  23.611  0.00  0.00    +0.000 HD
ENDBRANCH   6  23
BRANCH   7  25
ATOM     25  O   UNL     1      -2.706  13.014  21.669  0.00  0.00    +0.000 OA
ATOM     26  C   UNL     1      -4.010  12.701  22.134  0.00  0.00    +0.000 C 
ENDBRANCH   7  25
BRANCH   8  27
ATOM     27  O   UNL     1      -2.582  12.502  18.889  0.00  0.00    +0.000 OA
ATOM     28  C   UNL     1      -3.898  12.106  18.538  0.00  0.00    +0.000 C 
ENDBRANCH   8  27
BRANCH   9  29
ATOM     29  O   UNL     1      -0.833  10.459  17.947  0.00  0.00    +0.000 OA
ATOM     30  C   UNL     1      -1.845   9.730  17.273  0.00  0.00    +0.000 C 
ENDBRANCH   9  29
TORSDOF 7
ENDMDL
MODEL 3
REMARK VINA RESULT:      -6.5      1.998      3.589
REMARK  Name = 
REMARK  11 active torsions:
REMARK  status: ('A' for Active; 'I' for Inactive)
REMARK    1  A    between atoms: C_1  and  O_2
REMARK    2  A    between atoms: O_2  and  C_3
REMARK    3  A    between atoms: C_6  and  C_7
REMARK    4  A    between atoms: C_12  and  O_13
REMARK    5  A    between atoms: C_14  and  O_15
REMARK    6  A    between atoms: O_15  and  C_16
REMARK    7  A    between atoms: C_17  and  O_18
REMARK    8  A    between atoms: O_18  and  C_19
REMARK    9  A    between atoms: C_20  and  O_21
REMARK   10  A    between atoms: O_21  and  C_22
REMARK   11  A    between atoms: C_26  and  N_27
REMARK                            x       y       z     vdW  Elec       q    Type
REMARK                         _______ _______ _______ _____ _____    ______ ____
ROOT
ATOM      1  C   UNL     1       2.003   7.831  19.369  0.00  0.00    +0.000 A 
ATOM      2  C   UNL     1       2.430   8.500  18.292  0.00  0.00    +0.000 A 
ATOM      3  C   UNL     1       1.976   9.872  18.089  0.00  0.00    +0.000 A 
ATOM      4  O   UNL     1       2.374  10.532  17.131  0.00  0.00    +0.000 OA
ATOM      5  C   UNL     1       1.050  10.439  19.078  0.00  0.00    +0.000 A 
ATOM      6  C   UNL     1       0.592  11.756  18.962  0.00  0.00    +0.000 A 
ATOM      7  C   UNL     1      -0.303  12.285  19.911  0.00  0.00    +0.000 A 
ATOM      8  C   UNL     1      -0.734  11.463  20.993  0.00  0.00    +0.000 A 
ATOM      9  C   UNL     1      -0.252  10.132  21.102  0.00  0.00    +0.000 A 
ATOM     10  C   UNL     1       0.644   9.636  20.136  0.00  0.00    +0.000 A 
ATOM     11  O   UNL     1       1.101   8.342  20.288  0.00  0.00    +0.000 OA
ENDROOT
BRANCH   1  15
ATOM     12  C   UNL     1       3.386   3.834  20.117  0.00  0.00    +0.000 A 
ATOM     13  C   UNL     1       2.144   4.251  20.596  0.00  0.00    +0.000 A 
ATOM     14  C   UNL     1       1.697   5.546  20.348  0.00  0.00    +0.000 A 
ATOM     15  C   UNL     1       2.503   6.474  19.671  0.00  0.00    +0.000 A 
ATOM     16  C   UNL     1       3.778   6.065  19.254  0.00  0.00    +0.000 A 
ATOM     17  C   UNL     1       4.213   4.743  19.429  0.00  0.00    +0.000 A 
BRANCH  17  18
ATOM     18  N   UNL     1       5.538   4.407  19.091  0.00  0.00    +0.000 N 
ATOM     19  H   UNL     1       5.888   4.876  18.264  0.00  0.00    +0.000 HD
ATOM     20  H   UNL     1       5.670   3.398  19.073  0.00  0.00    +0.000 HD
ENDBRANCH  17  18
BRANCH  12  22
ATOM     21  C   UNL     1       3.536   1.680  19.181  0.00  0.00    +0.000 C 
ATOM     22  O   UNL     1       3.853   2.548  20.269  0.00  0.00    +0.000 OA
ENDBRANCH  12  22
ENDBRANCH   1  15
BRANCH   6  23
ATOM     23  O   UNL     1       1.027  12.533  17.913  0.00  0.00    +0.000 OA
ATOM     24  H   UNL     1       0.883  13.485  18.123  0.00  0.00    +0.000 HD
ENDBRANCH   6  23
BRANCH   7  25
ATOM     25  O   UNL     1      -0.807  13.560  19.874  0.00  0.00    +0.000 OA
ATOM     26  C   UNL     1      -0.030  14.671  20.293  0.00  0.00    +0.000 C 
ENDBRANCH   7  25
BRANCH   8  27
ATOM     27  O   UNL     1      -1.609  11.847  21.979  0.00  0.00    +0.000 OA
ATOM     28  C   UNL     1      -1.209  12.667  23.063  0.00  0.00    +0.000 C 
ENDBRANCH   8  27
BRANCH   9  29
ATOM     29  O   UNL     1      -0.552   9.202  22.072  0.00  0.00    +0.000 OA
ATOM     30  C   UNL     1       0.006   9.304  23.372  0.00  0.00    +0.000 C 
ENDBRANCH   9  29
TORSDOF 7
ENDMDL
MODEL 4
REMARK VINA RESULT:      -6.5      1.518      2.009
REMARK  Name = 
REMARK  11 active torsions:
REMARK  status: ('A' for Active; 'I' for Inactive)
REMARK    1  A    between atoms: C_1  and  O_2
REMARK    2  A    between atoms: O_2  and  C_3
REMARK    3  A    between atoms: C_6  and  C_7
REMARK    4  A    between atoms: C_12  and  O_13
REMARK    5  A    between atoms: C_14  and  O_15
REMARK    6  A    between atoms: O_15  and  C_16
REMARK    7  A    between atoms: C_17  and  O_18
REMARK    8  A    between atoms: O_18  and  C_19
REMARK    9  A    between atoms: C_20  and  O_21
REMARK   10  A    between atoms: O_21  and  C_22
REMARK   11  A    between atoms: C_26  and  N_27
REMARK                            x       y       z     vdW  Elec       q    Type
REMARK                         _______ _______ _______ _____ _____    ______ ____
ROOT
ATOM      1  C   UNL     1       0.610   9.812  19.536  0.00  0.00    +0.000 A 
ATOM      2  C   UNL     1       0.893  10.544  20.620  0.00  0.00    +0.000 A 
ATOM      3  C   UNL     1      -0.089  11.518  21.087  0.00  0.00    +0.000 A 
ATOM      4  O   UNL     1       0.119  12.184  22.099  0.00  0.00    +0.000 OA
ATOM      5  C   UNL     1      -1.334  11.656  20.321  0.00  0.00    +0.000 A 
ATOM      6  C   UNL     1      -2.330  12.552  20.723  0.00  0.00    +0.000 A 
ATOM      7  C   UNL     1      -3.515  12.683  19.975  0.00  0.00    +0.000 A 
ATOM      8  C   UNL     1      -3.689  11.888  18.805  0.00  0.00    +0.000 A 
ATOM      9  C   UNL     1      -2.672  10.976  18.416  0.00  0.00    +0.000 A 
ATOM     10  C   UNL     1      -1.501  10.869  19.188  0.00  0.00    +0.000 A 
ATOM     11  O   UNL     1      -0.544   9.958  18.784  0.00  0.00    +0.000 OA
ENDROOT
BRANCH   1  15
ATOM     12  C   UNL     1       3.392   6.804  18.246  0.00  0.00    +0.000 A 
ATOM     13  C   UNL     1       3.040   7.850  17.394  0.00  0.00    +0.000 A 
ATOM     14  C   UNL     1       2.141   8.826  17.817  0.00  0.00    +0.000 A 
ATOM     15  C   UNL     1       1.525   8.748  19.074  0.00  0.00    +0.000 A 
ATOM     16  C   UNL     1       1.834   7.655  19.897  0.00  0.00    +0.000 A 
ATOM     17  C   UNL     1       2.794   6.705  19.517  0.00  0.00    +0.000 A 
BRANCH  17  18
ATOM     18  N   UNL     1       2.993   5.570  20.327  0.00  0.00    +0.000 N 
ATOM     19  H   UNL     1       2.708   4.697  19.898  0.00  0.00    +0.000 HD
ATOM     20  H   UNL     1       2.607   5.709  21.259  0.00  0.00    +0.000 HD
ENDBRANCH  17  18
BRANCH  12  22
ATOM     21  C   UNL     1       4.979   6.084  16.665  0.00  0.00    +0.000 C 
ATOM     22  O   UNL     1       4.326   5.850  17.913  0.00  0.00    +0.000 OA
ENDBRANCH  12  22
ENDBRANCH   1  15
BRANCH   6  23
ATOM     23  O   UNL     1      -2.143  13.304  21.861  0.00  0.00    +0.000 OA
ATOM     24  H   UNL     1      -2.975  13.318  22.390  0.00  0.00    +0.000 HD
ENDBRANCH   6  23
BRANCH   7  25
ATOM     25  O   UNL     1      -4.540  13.537  20.291  0.00  0.00    +0.000 OA
ATOM     26  C   UNL     1      -5.558  13.160  21.204  0.00  0.00    +0.000 C 
ENDBRANCH   7  25
BRANCH   8  27
ATOM     27  O   UNL     1      -4.786  11.921  17.980  0.00  0.00    +0.000 OA
ATOM     28  C   UNL     1      -5.889  11.049  18.159  0.00  0.00    +0.000 C 
ENDBRANCH   8  27
BRANCH   9  29
ATOM     29  O   UNL     1      -2.668  10.131  17.328  0.00  0.00    +0.000 OA
ATOM     30  C   UNL     1      -2.552  10.644  16.012  0.00  0.00    +0.000 C 
ENDBRANCH   9  29
TORSDOF 7
ENDMDL
MODEL 5
REMARK VINA RESULT:      -6.5      1.862      2.127
REMARK  Name = 
REMARK  11 active torsions:
REMARK  status: ('A' for Active; 'I' for Inactive)
REMARK    1  A    between atoms: C_1  and  O_2
REMARK    2  A    between atoms: O_2  and  C_3
REMARK    3  A    between atoms: C_6  and  C_7
REMARK    4  A    between atoms: C_12  and  O_13
REMARK    5  A    between atoms: C_14  and  O_15
REMARK    6  A    between atoms: O_15  and  C_16
REMARK    7  A    between atoms: C_17  and  O_18
REMARK    8  A    between atoms: O_18  and  C_19
REMARK    9  A    between atoms: C_20  and  O_21
REMARK   10  A    between atoms: O_21  and  C_22
REMARK   11  A    between atoms: C_26  and  N_27
REMARK                            x       y       z     vdW  Elec       q    Type
REMARK                         _______ _______ _______ _____ _____    ______ ____
ROOT
ATOM      1  C   UNL     1       1.267   8.661  20.650  0.00  0.00    +0.000 A 
ATOM      2  C   UNL     1       0.806   8.615  21.906  0.00  0.00    +0.000 A 
ATOM      3  C   UNL     1       0.164   9.802  22.464  0.00  0.00    +0.000 A 
ATOM      4  O   UNL     1      -0.304   9.787  23.600  0.00  0.00    +0.000 OA
ATOM      5  C   UNL     1       0.077  10.996  21.614  0.00  0.00    +0.000 A 
ATOM      6  C   UNL     1      -0.546  12.161  22.073  0.00  0.00    +0.000 A 
ATOM      7  C   UNL     1      -0.614  13.304  21.253  0.00  0.00    +0.000 A 
ATOM      8  C   UNL     1      -0.042  13.256  19.948  0.00  0.00    +0.000 A 
ATOM      9  C   UNL     1       0.578  12.063  19.494  0.00  0.00    +0.000 A 
ATOM     10  C   UNL     1       0.626  10.939  20.339  0.00  0.00    +0.000 A 
ATOM     11  O   UNL     1       1.224   9.793  19.852  0.00  0.00    +0.000 OA
ENDROOT
BRANCH   1  15
ATOM     12  C   UNL     1       3.078   5.218  18.830  0.00  0.00    +0.000 A 
ATOM     13  C   UNL     1       3.022   6.431  18.143  0.00  0.00    +0.000 A 
ATOM     14  C   UNL     1       2.438   7.546  18.738  0.00  0.00    +0.000 A 
ATOM     15  C   UNL     1       1.842   7.463  20.004  0.00  0.00    +0.000 A 
ATOM     16  C   UNL     1       1.842   6.222  20.658  0.00  0.00    +0.000 A 
ATOM     17  C   UNL     1       2.493   5.108  20.106  0.00  0.00    +0.000 A 
BRANCH  17  18
ATOM     18  N   UNL     1       2.377   3.859  20.747  0.00  0.00    +0.000 N 
ATOM     19  H   UNL     1       1.666   3.826  21.468  0.00  0.00    +0.000 HD
ATOM     20  H   UNL     1       3.285   3.517  21.054  0.00  0.00    +0.000 HD
ENDBRANCH  17  18
BRANCH  12  22
ATOM     21  C   UNL     1       3.032   3.510  17.212  0.00  0.00    +0.000 C 
ATOM     22  O   UNL     1       3.703   4.101  18.325  0.00  0.00    +0.000 OA
ENDBRANCH  12  22
ENDBRANCH   1  15
BRANCH   6  23
ATOM     23  O   UNL     1      -1.097  12.181  23.334  0.00  0.00    +0.000 OA
ATOM     24  H   UNL     1      -0.387  12.069  24.009  0.00  0.00    +0.000 HD
ENDBRANCH   6  23
BRANCH   7  25
ATOM     25  O   UNL     1      -1.200  14.487  21.621  0.00  0.00    +0.000 OA
ATOM     26  C   UNL     1      -2.582  14.724  21.406  0.00  0.00    +0.000 C 
ENDBRANCH   7  25
BRANCH   8  27
ATOM     27  O   UNL     1      -0.029  14.296  19.052  0.00  0.00    +0.000 OA
ATOM     28  C   UNL     1       0.911  15.354  19.139  0.00  0.00    +0.000 C 
ENDBRANCH   8  27
BRANCH   9  29
ATOM     29  O   UNL     1       1.174  11.833  18.273  0.00  0.00    +0.000 OA
ATOM     30  C   UNL     1       2.512  12.234  18.033  0.00  0.00    +0.000 C 
ENDBRANCH   9  29
TORSDOF 7
ENDMDL
MODEL 6
REMARK VINA RESULT:      -6.5      2.059      3.505
REMARK  Name = 
REMARK  11 active torsions:
REMARK  status: ('A' for Active; 'I' for Inactive)
REMARK    1  A    between atoms: C_1  and  O_2
REMARK    2  A    between atoms: O_2  and  C_3
REMARK    3  A    between atoms: C_6  and  C_7
REMARK    4  A    between atoms: C_12  and  O_13
REMARK    5  A    between atoms: C_14  and  O_15
REMARK    6  A    between atoms: O_15  and  C_16
REMARK    7  A    between atoms: C_17  and  O_18
REMARK    8  A    between atoms: O_18  and  C_19
REMARK    9  A    between atoms: C_20  and  O_21
REMARK   10  A    between atoms: O_21  and  C_22
REMARK   11  A    between atoms: C_26  and  N_27
REMARK                            x       y       z     vdW  Elec       q    Type
REMARK                         _______ _______ _______ _____ _____    ______ ____
ROOT
ATOM      1  C   UNL     1       1.905   7.776  19.203  0.00  0.00    +0.000 A 
ATOM      2  C   UNL     1       2.284   8.491  18.137  0.00  0.00    +0.000 A 
ATOM      3  C   UNL     1       2.000   9.922  18.112  0.00  0.00    +0.000 A 
ATOM      4  O   UNL     1       2.364  10.619  17.167  0.00  0.00    +0.000 OA
ATOM      5  C   UNL     1       1.290  10.499  19.260  0.00  0.00    +0.000 A 
ATOM      6  C   UNL     1       1.005  11.867  19.317  0.00  0.00    +0.000 A 
ATOM      7  C   UNL     1       0.315  12.407  20.419  0.00  0.00    +0.000 A 
ATOM      8  C   UNL     1      -0.088  11.541  21.477  0.00  0.00    +0.000 A 
ATOM      9  C   UNL     1       0.217  10.156  21.409  0.00  0.00    +0.000 A 
ATOM     10  C   UNL     1       0.911   9.651  20.294  0.00  0.00    +0.000 A 
ATOM     11  O   UNL     1       1.202   8.301  20.275  0.00  0.00    +0.000 OA
ENDROOT
BRANCH   1  15
ATOM     12  C   UNL     1       3.048   3.654  19.590  0.00  0.00    +0.000 A 
ATOM     13  C   UNL     1       3.213   4.320  18.375  0.00  0.00    +0.000 A 
ATOM     14  C   UNL     1       2.845   5.657  18.255  0.00  0.00    +0.000 A 
ATOM     15  C   UNL     1       2.248   6.344  19.322  0.00  0.00    +0.000 A 
ATOM     16  C   UNL     1       2.023   5.645  20.517  0.00  0.00    +0.000 A 
ATOM     17  C   UNL     1       2.457   4.321  20.680  0.00  0.00    +0.000 A 
BRANCH  17  18
ATOM     18  N   UNL     1       2.115   3.628  21.857  0.00  0.00    +0.000 N 
ATOM     19  H   UNL     1       2.911   3.338  22.415  0.00  0.00    +0.000 HD
ATOM     20  H   UNL     1       1.458   2.875  21.664  0.00  0.00    +0.000 HD
ENDBRANCH  17  18
BRANCH  12  22
ATOM     21  C   UNL     1       3.505   1.568  18.601  0.00  0.00    +0.000 C 
ATOM     22  O   UNL     1       3.456   2.355  19.791  0.00  0.00    +0.000 OA
ENDBRANCH  12  22
ENDBRANCH   1  15
BRANCH   6  23
ATOM     23  O   UNL     1       1.410  12.685  18.286  0.00  0.00    +0.000 OA
ATOM     24  H   UNL     1       2.379  12.852  18.356  0.00  0.00    +0.000 HD
ENDBRANCH   6  23
BRANCH   7  25
ATOM     25  O   UNL     1      -0.010  13.732  20.556  0.00  0.00    +0.000 OA
ATOM     26  C   UNL     1      -1.179  14.269  19.958  0.00  0.00    +0.000 C 
ENDBRANCH   7  25
BRANCH   8  27
ATOM     27  O   UNL     1      -0.774  11.931  22.601  0.00  0.00    +0.000 OA
ATOM     28  C   UNL     1      -2.190  11.945  22.652  0.00  0.00    +0.000 C 
ENDBRANCH   8  27
BRANCH   9  29
ATOM     29  O   UNL     1      -0.086   9.179  22.331  0.00  0.00    +0.000 OA
ATOM     30  C   UNL     1       0.379   9.273  23.667  0.00  0.00    +0.000 C 
ENDBRANCH   9  29
TORSDOF 7
ENDMDL
MODEL 7
REMARK VINA RESULT:      -6.4      1.959      2.365
REMARK  Name = 
REMARK  11 active torsions:
REMARK  status: ('A' for Active; 'I' for Inactive)
REMARK    1  A    between atoms: C_1  and  O_2
REMARK    2  A    between atoms: O_2  and  C_3
REMARK    3  A    between atoms: C_6  and  C_7
REMARK    4  A    between atoms: C_12  and  O_13
REMARK    5  A    between atoms: C_14  and  O_15
REMARK    6  A    between atoms: O_15  and  C_16
REMARK    7  A    between atoms: C_17  and  O_18
REMARK    8  A    between atoms: O_18  and  C_19
REMARK    9  A    between atoms: C_20  and  O_21
REMARK   10  A    between atoms: O_21  and  C_22
REMARK   11  A    between atoms: C_26  and  N_27
REMARK                            x       y       z     vdW  Elec       q    Type
REMARK                         _______ _______ _______ _____ _____    ______ ____
ROOT
ATOM      1  C   UNL     1       1.283   8.553  20.768  0.00  0.00    +0.000 A 
ATOM      2  C   UNL     1       0.828   8.557  22.027  0.00  0.00    +0.000 A 
ATOM      3  C   UNL     1       0.172   9.757  22.535  0.00  0.00    +0.000 A 
ATOM      4  O   UNL     1      -0.290   9.787  23.674  0.00  0.00    +0.000 OA
ATOM      5  C   UNL     1       0.064  10.911  21.634  0.00  0.00    +0.000 A 
ATOM      6  C   UNL     1      -0.574  12.087  22.044  0.00  0.00    +0.000 A 
ATOM      7  C   UNL     1      -0.662  13.191  21.175  0.00  0.00    +0.000 A 
ATOM      8  C   UNL     1      -0.096  13.094  19.870  0.00  0.00    +0.000 A 
ATOM      9  C   UNL     1       0.539  11.890  19.466  0.00  0.00    +0.000 A 
ATOM     10  C   UNL     1       0.608  10.806  20.360  0.00  0.00    +0.000 A 
ATOM     11  O   UNL     1       1.220   9.648  19.921  0.00  0.00    +0.000 OA
ENDROOT
BRANCH   1  15
ATOM     12  C   UNL     1       2.860   4.991  18.959  0.00  0.00    +0.000 A 
ATOM     13  C   UNL     1       2.150   4.918  20.157  0.00  0.00    +0.000 A 
ATOM     14  C   UNL     1       1.637   6.074  20.739  0.00  0.00    +0.000 A 
ATOM     15  C   UNL     1       1.871   7.336  20.173  0.00  0.00    +0.000 A 
ATOM     16  C   UNL     1       2.645   7.406  19.005  0.00  0.00    +0.000 A 
ATOM     17  C   UNL     1       3.105   6.245  18.365  0.00  0.00    +0.000 A 
BRANCH  17  18
ATOM     18  N   UNL     1       3.965   6.368  17.257  0.00  0.00    +0.000 N 
ATOM     19  H   UNL     1       4.850   6.816  17.465  0.00  0.00    +0.000 HD
ATOM     20  H   UNL     1       3.481   6.773  16.458  0.00  0.00    +0.000 HD
ENDBRANCH  17  18
BRANCH  12  22
ATOM     21  C   UNL     1       4.224   3.077  19.075  0.00  0.00    +0.000 C 
ATOM     22  O   UNL     1       3.331   3.879  18.300  0.00  0.00    +0.000 OA
ENDBRANCH  12  22
ENDBRANCH   1  15
BRANCH   6  23
ATOM     23  O   UNL     1      -1.119  12.155  23.306  0.00  0.00    +0.000 OA
ATOM     24  H   UNL     1      -0.399  12.164  23.979  0.00  0.00    +0.000 HD
ENDBRANCH   6  23
BRANCH   7  25
ATOM     25  O   UNL     1      -1.263  14.381  21.493  0.00  0.00    +0.000 OA
ATOM     26  C   UNL     1      -2.645  14.596  21.255  0.00  0.00    +0.000 C 
ENDBRANCH   7  25
BRANCH   8  27
ATOM     27  O   UNL     1      -0.102  14.093  18.929  0.00  0.00    +0.000 OA
ATOM     28  C   UNL     1       0.842  15.150  18.946  0.00  0.00    +0.000 C 
ENDBRANCH   8  27
BRANCH   9  29
ATOM     29  O   UNL     1       1.133  11.615  18.253  0.00  0.00    +0.000 OA
ATOM     30  C   UNL     1       2.474  11.997  18.000  0.00  0.00    +0.000 C 
ENDBRANCH   9  29
TORSDOF 7
ENDMDL
MODEL 8
REMARK VINA RESULT:      -6.2      1.532      3.445
REMARK  Name = 
REMARK  11 active torsions:
REMARK  status: ('A' for Active; 'I' for Inactive)
REMARK    1  A    between atoms: C_1  and  O_2
REMARK    2  A    between atoms: O_2  and  C_3
REMARK    3  A    between atoms: C_6  and  C_7
REMARK    4  A    between atoms: C_12  and  O_13
REMARK    5  A    between atoms: C_14  and  O_15
REMARK    6  A    between atoms: O_15  and  C_16
REMARK    7  A    between atoms: C_17  and  O_18
REMARK    8  A    between atoms: O_18  and  C_19
REMARK    9  A    between atoms: C_20  and  O_21
REMARK   10  A    between atoms: O_21  and  C_22
REMARK   11  A    between atoms: C_26  and  N_27
REMARK                            x       y       z     vdW  Elec       q    Type
REMARK                         _______ _______ _______ _____ _____    ______ ____
ROOT
ATOM      1  C   UNL     1       0.938   8.905  18.896  0.00  0.00    +0.000 A 
ATOM      2  C   UNL     1       0.210   9.211  17.816  0.00  0.00    +0.000 A 
ATOM      3  C   UNL     1      -0.815  10.244  17.928  0.00  0.00    +0.000 A 
ATOM      4  O   UNL     1      -1.480  10.579  16.949  0.00  0.00    +0.000 OA
ATOM      5  C   UNL     1      -1.006  10.881  19.237  0.00  0.00    +0.000 A 
ATOM      6  C   UNL     1      -1.953  11.895  19.413  0.00  0.00    +0.000 A 
ATOM      7  C   UNL     1      -2.133  12.491  20.675  0.00  0.00    +0.000 A 
ATOM      8  C   UNL     1      -1.337  12.049  21.772  0.00  0.00    +0.000 A 
ATOM      9  C   UNL     1      -0.373  11.025  21.574  0.00  0.00    +0.000 A 
ATOM     10  C   UNL     1      -0.217  10.453  20.298  0.00  0.00    +0.000 A 
ATOM     11  O   UNL     1       0.743   9.472  20.145  0.00  0.00    +0.000 OA
ENDROOT
BRANCH   1  15
ATOM     12  C   UNL     1       4.070   5.981  18.601  0.00  0.00    +0.000 A 
ATOM     13  C   UNL     1       3.257   6.030  19.733  0.00  0.00    +0.000 A 
ATOM     14  C   UNL     1       2.240   6.977  19.824  0.00  0.00    +0.000 A 
ATOM     15  C   UNL     1       2.049   7.935  18.817  0.00  0.00    +0.000 A 
ATOM     16  C   UNL     1       2.916   7.920  17.715  0.00  0.00    +0.000 A 
ATOM     17  C   UNL     1       3.897   6.927  17.572  0.00  0.00    +0.000 A 
BRANCH  17  18
ATOM     18  N   UNL     1       4.811   7.014  16.505  0.00  0.00    +0.000 N 
ATOM     19  H   UNL     1       4.956   7.955  16.157  0.00  0.00    +0.000 HD
ATOM     20  H   UNL     1       4.592   6.339  15.775  0.00  0.00    +0.000 HD
ENDBRANCH  17  18
BRANCH  12  22
ATOM     21  C   UNL     1       4.737   3.762  19.010  0.00  0.00    +0.000 C 
ATOM     22  O   UNL     1       5.045   5.026  18.422  0.00  0.00    +0.000 OA
ENDBRANCH  12  22
ENDBRANCH   1  15
BRANCH   6  23
ATOM     23  O   UNL     1      -2.706  12.310  18.338  0.00  0.00    +0.000 OA
ATOM     24  H   UNL     1      -2.143  12.337  17.529  0.00  0.00    +0.000 HD
ENDBRANCH   6  23
BRANCH   7  25
ATOM     25  O   UNL     1      -3.039  13.485  20.940  0.00  0.00    +0.000 OA
ATOM     26  C   UNL     1      -4.376  13.185  21.309  0.00  0.00    +0.000 C 
ENDBRANCH   7  25
BRANCH   8  27
ATOM     27  O   UNL     1      -1.415  12.533  23.054  0.00  0.00    +0.000 OA
ATOM     28  C   UNL     1      -1.046  13.862  23.381  0.00  0.00    +0.000 C 
ENDBRANCH   8  27
BRANCH   9  29
ATOM     29  O   UNL     1       0.482  10.479  22.507  0.00  0.00    +0.000 OA
ATOM     30  C   UNL     1       0.036   9.468  23.395  0.00  0.00    +0.000 C 
ENDBRANCH   9  29
TORSDOF 7
ENDMDL
MODEL 9
REMARK VINA RESULT:      -6.2      1.407      1.842
REMARK  Name = 
REMARK  11 active torsions:
REMARK  status: ('A' for Active; 'I' for Inactive)
REMARK    1  A    between atoms: C_1  and  O_2
REMARK    2  A    between atoms: O_2  and  C_3
REMARK    3  A    between atoms: C_6  and  C_7
REMARK    4  A    between atoms: C_12  and  O_13
REMARK    5  A    between atoms: C_14  and  O_15
REMARK    6  A    between atoms: O_15  and  C_16
REMARK    7  A    between atoms: C_17  and  O_18
REMARK    8  A    between atoms: O_18  and  C_19
REMARK    9  A    between atoms: C_20  and  O_21
REMARK   10  A    between atoms: O_21  and  C_22
REMARK   11  A    between atoms: C_26  and  N_27
REMARK                            x       y       z     vdW  Elec       q    Type
REMARK                         _______ _______ _______ _____ _____    ______ ____
ROOT
ATOM      1  C   UNL     1       1.341   8.114  20.768  0.00  0.00    +0.000 A 
ATOM      2  C   UNL     1       1.267   8.246  22.098  0.00  0.00    +0.000 A 
ATOM      3  C   UNL     1       0.610   9.425  22.652  0.00  0.00    +0.000 A 
ATOM      4  O   UNL     1       0.490   9.565  23.867  0.00  0.00    +0.000 OA
ATOM      5  C   UNL     1       0.080  10.420  21.711  0.00  0.00    +0.000 A 
ATOM      6  C   UNL     1      -0.583  11.563  22.169  0.00  0.00    +0.000 A 
ATOM      7  C   UNL     1      -1.077  12.514  21.257  0.00  0.00    +0.000 A 
ATOM      8  C   UNL     1      -0.896  12.297  19.860  0.00  0.00    +0.000 A 
ATOM      9  C   UNL     1      -0.229  11.126  19.410  0.00  0.00    +0.000 A 
ATOM     10  C   UNL     1       0.251  10.195  20.350  0.00  0.00    +0.000 A 
ATOM     11  O   UNL     1       0.879   9.062  19.870  0.00  0.00    +0.000 OA
ENDROOT
BRANCH   1  15
ATOM     12  C   UNL     1       2.867   4.560  18.899  0.00  0.00    +0.000 A 
ATOM     13  C   UNL     1       2.142   4.475  20.088  0.00  0.00    +0.000 A 
ATOM     14  C   UNL     1       1.645   5.629  20.688  0.00  0.00    +0.000 A 
ATOM     15  C   UNL     1       1.912   6.897  20.153  0.00  0.00    +0.000 A 
ATOM     16  C   UNL     1       2.700   6.977  18.995  0.00  0.00    +0.000 A 
ATOM     17  C   UNL     1       3.144   5.821  18.336  0.00  0.00    +0.000 A 
BRANCH  17  18
ATOM     18  N   UNL     1       4.019   5.950  17.240  0.00  0.00    +0.000 N 
ATOM     19  H   UNL     1       4.375   6.888  17.101  0.00  0.00    +0.000 HD
ATOM     20  H   UNL     1       3.621   5.536  16.399  0.00  0.00    +0.000 HD
ENDBRANCH  17  18
BRANCH  12  22
ATOM     21  C   UNL     1       2.307   2.497  17.915  0.00  0.00    +0.000 C 
ATOM     22  O   UNL     1       3.323   3.453  18.222  0.00  0.00    +0.000 OA
ENDBRANCH  12  22
ENDBRANCH   1  15
BRANCH   6  23
ATOM     23  O   UNL     1      -0.752  11.748  23.522  0.00  0.00    +0.000 OA
ATOM     24  H   UNL     1      -1.432  12.445  23.680  0.00  0.00    +0.000 HD
ENDBRANCH   6  23
BRANCH   7  25
ATOM     25  O   UNL     1      -1.734  13.663  21.616  0.00  0.00    +0.000 OA
ATOM     26  C   UNL     1      -3.139  13.678  21.810  0.00  0.00    +0.000 C 
ENDBRANCH   7  25
BRANCH   8  27
ATOM     27  O   UNL     1      -1.316  13.144  18.865  0.00  0.00    +0.000 OA
ATOM     28  C   UNL     1      -0.499  14.192  18.373  0.00  0.00    +0.000 C 
ENDBRANCH   8  27
BRANCH   9  29
ATOM     29  O   UNL     1       0.032  10.749  18.111  0.00  0.00    +0.000 OA
ATOM     30  C   UNL     1      -0.944  10.062  17.346  0.00  0.00    +0.000 C 
ENDBRANCH   9  29
TORSDOF 7
ENDMDL
