MODEL 1
REMARK VINA RESULT:      -7.6      0.000      0.000
REMARK  Name = 
REMARK  8 active torsions:
REMARK  status: ('A' for Active; 'I' for Inactive)
REMARK    1  A    between atoms: C_1  and  C_2
REMARK    2  A    between atoms: C_2  and  C_3
REMARK    3  A    between atoms: C_3  and  N_4
REMARK    4  A    between atoms: C_5  and  N_6
REMARK    5  A    between atoms: C_7  and  C_8
REMARK    6  A    between atoms: C_8  and  C_10
REMARK    7  A    between atoms: C_10  and  S_11
REMARK    8  A    between atoms: S_11  and  C_12
REMARK                            x       y       z     vdW  Elec       q    Type
REMARK                         _______ _______ _______ _____ _____    ______ ____
ROOT
ATOM      1  N   UNL     1       5.998   4.982  16.201  0.00  0.00    +0.000 N 
ATOM      2  C   UNL     1       5.198   4.195  17.043  0.00  0.00    +0.000 A 
ATOM      3  C   UNL     1       5.376   4.258  18.392  0.00  0.00    +0.000 A 
ATOM      4  C   UNL     1       6.495   5.068  18.920  0.00  0.00    +0.000 A 
ATOM      5  O   UNL     1       6.745   5.151  20.118  0.00  0.00    +0.000 OA
ATOM      6  N   UNL     1       7.245   5.748  18.015  0.00  0.00    +0.000 N 
ATOM      7  C   UNL     1       7.009   5.807  16.677  0.00  0.00    +0.000 A 
ATOM      8  O   UNL     1       7.680   6.568  15.982  0.00  0.00    +0.000 OA
ATOM      9  H   UNL     1       7.979   6.341  18.368  0.00  0.00    +0.000 HD
ENDROOT
BRANCH   2  10
ATOM     10  N   UNL     1       4.235   3.367  16.479  0.00  0.00    +0.000 N 
ATOM     11  H   UNL     1       4.582   2.458  16.198  0.00  0.00    +0.000 HD
ATOM     12  H   UNL     1       3.746   3.810  15.688  0.00  0.00    +0.000 HD
ENDBRANCH   2  10
BRANCH   3  13
ATOM     13  C   UNL     1       4.406   3.564  19.322  0.00  0.00    +0.000 C 
ATOM     14  O   UNL     1       4.845   2.699  20.090  0.00  0.00    +0.000 OA
BRANCH  13  15
ATOM     15  C   UNL     1       2.921   3.919  19.257  0.00  0.00    +0.000 C 
BRANCH  15  16
ATOM     16  S   UNL     1       2.332   4.765  20.767  0.00  0.00    +0.000 S 
BRANCH  16  17
ATOM     17  C   UNL     1       2.110   6.385  20.151  0.00  0.00    +0.000 A 
ATOM     18  N   UNL     1       1.520   7.307  20.875  0.00  0.00    +0.000 NA
ATOM     19  C   UNL     1       1.420   8.475  20.139  0.00  0.00    +0.000 A 
ATOM     20  C   UNL     1       0.834   9.676  20.580  0.00  0.00    +0.000 A 
ATOM     21  C   UNL     1       0.762  10.774  19.720  0.00  0.00    +0.000 A 
ATOM     22  C   UNL     1       1.275  10.692  18.428  0.00  0.00    +0.000 A 
ATOM     23  C   UNL     1       1.882   9.518  17.971  0.00  0.00    +0.000 A 
ATOM     24  C   UNL     1       1.947   8.420  18.844  0.00  0.00    +0.000 A 
ATOM     25  S   UNL     1       2.624   6.857  18.589  0.00  0.00    +0.000 S 
ENDBRANCH  16  17
ENDBRANCH  15  16
ENDBRANCH  13  15
ENDBRANCH   3  13
BRANCH   1  26
ATOM     26  C   UNL     1       5.744   5.047  14.755  0.00  0.00    +0.000 C 
BRANCH  26  28
ATOM     27  C   UNL     1       5.838   3.551  12.717  0.00  0.00    +0.000 C 
ATOM     28  C   UNL     1       6.555   3.998  13.981  0.00  0.00    +0.000 C 
ENDBRANCH  26  28
ENDBRANCH   1  26
TORSDOF 7
ENDMDL
MODEL 2
REMARK VINA RESULT:      -7.4      2.499      3.859
REMARK  Name = 
REMARK  8 active torsions:
REMARK  status: ('A' for Active; 'I' for Inactive)
REMARK    1  A    between atoms: C_1  and  C_2
REMARK    2  A    between atoms: C_2  and  C_3
REMARK    3  A    between atoms: C_3  and  N_4
REMARK    4  A    between atoms: C_5  and  N_6
REMARK    5  A    between atoms: C_7  and  C_8
REMARK    6  A    between atoms: C_8  and  C_10
REMARK    7  A    between atoms: C_10  and  S_11
REMARK    8  A    between atoms: S_11  and  C_12
REMARK                            x       y       z     vdW  Elec       q    Type
REMARK                         _______ _______ _______ _____ _____    ______ ____
ROOT
ATOM      1  N   UNL     1       6.392   5.800  17.660  0.00  0.00    +0.000 N 
ATOM      2  C   UNL     1       5.031   6.139  17.656  0.00  0.00    +0.000 A 
ATOM      3  C   UNL     1       4.139   5.350  18.318  0.00  0.00    +0.000 A 
ATOM      4  C   UNL     1       4.622   4.090  18.921  0.00  0.00    +0.000 A 
ATOM      5  O   UNL     1       3.880   3.307  19.505  0.00  0.00    +0.000 OA
ATOM      6  N   UNL     1       5.952   3.827  18.821  0.00  0.00    +0.000 N 
ATOM      7  C   UNL     1       6.883   4.658  18.281  0.00  0.00    +0.000 A 
ATOM      8  O   UNL     1       8.074   4.366  18.373  0.00  0.00    +0.000 OA
ATOM      9  H   UNL     1       6.298   2.995  19.270  0.00  0.00    +0.000 HD
ENDROOT
BRANCH   2  10
ATOM     10  N   UNL     1       4.622   7.279  16.975  0.00  0.00    +0.000 N 
ATOM     11  H   UNL     1       4.948   8.147  17.385  0.00  0.00    +0.000 HD
ATOM     12  H   UNL     1       3.601   7.319  16.847  0.00  0.00    +0.000 HD
ENDBRANCH   2  10
BRANCH   3  13
ATOM     13  C   UNL     1       2.704   5.796  18.483  0.00  0.00    +0.000 C 
ATOM     14  O   UNL     1       1.836   5.250  17.789  0.00  0.00    +0.000 OA
BRANCH  13  15
ATOM     15  C   UNL     1       2.375   6.924  19.460  0.00  0.00    +0.000 C 
BRANCH  15  16
ATOM     16  S   UNL     1       1.960   8.491  18.614  0.00  0.00    +0.000 S 
BRANCH  16  17
ATOM     17  C   UNL     1       0.948   9.241  19.826  0.00  0.00    +0.000 A 
ATOM     18  N   UNL     1       0.257  10.322  19.551  0.00  0.00    +0.000 NA
ATOM     19  C   UNL     1      -0.408  10.743  20.690  0.00  0.00    +0.000 A 
ATOM     20  C   UNL     1      -1.239  11.876  20.783  0.00  0.00    +0.000 A 
ATOM     21  C   UNL     1      -1.821  12.213  22.007  0.00  0.00    +0.000 A 
ATOM     22  C   UNL     1      -1.593  11.432  23.136  0.00  0.00    +0.000 A 
ATOM     23  C   UNL     1      -0.789  10.289  23.066  0.00  0.00    +0.000 A 
ATOM     24  C   UNL     1      -0.208   9.961  21.831  0.00  0.00    +0.000 A 
ATOM     25  S   UNL     1       0.812   8.635  21.420  0.00  0.00    +0.000 S 
ENDBRANCH  16  17
ENDBRANCH  15  16
ENDBRANCH  13  15
ENDBRANCH   3  13
BRANCH   1  26
ATOM     26  C   UNL     1       7.400   6.696  17.076  0.00  0.00    +0.000 C 
BRANCH  26  28
ATOM     27  C   UNL     1       8.000   9.077  17.684  0.00  0.00    +0.000 C 
ATOM     28  C   UNL     1       8.024   7.623  18.128  0.00  0.00    +0.000 C 
ENDBRANCH  26  28
ENDBRANCH   1  26
TORSDOF 7
ENDMDL
MODEL 3
REMARK VINA RESULT:      -7.4      1.135      1.160
REMARK  Name = 
REMARK  8 active torsions:
REMARK  status: ('A' for Active; 'I' for Inactive)
REMARK    1  A    between atoms: C_1  and  C_2
REMARK    2  A    between atoms: C_2  and  C_3
REMARK    3  A    between atoms: C_3  and  N_4
REMARK    4  A    between atoms: C_5  and  N_6
REMARK    5  A    between atoms: C_7  and  C_8
REMARK    6  A    between atoms: C_8  and  C_10
REMARK    7  A    between atoms: C_10  and  S_11
REMARK    8  A    between atoms: S_11  and  C_12
REMARK                            x       y       z     vdW  Elec       q    Type
REMARK                         _______ _______ _______ _____ _____    ______ ____
ROOT
ATOM      1  N   UNL     1       5.946   4.537  15.358  0.00  0.00    +0.000 N 
ATOM      2  C   UNL     1       5.252   4.196  16.528  0.00  0.00    +0.000 A 
ATOM      3  C   UNL     1       5.883   4.278  17.733  0.00  0.00    +0.000 A 
ATOM      4  C   UNL     1       7.323   4.611  17.755  0.00  0.00    +0.000 A 
ATOM      5  O   UNL     1       7.973   4.673  18.793  0.00  0.00    +0.000 OA
ATOM      6  N   UNL     1       7.915   4.870  16.560  0.00  0.00    +0.000 N 
ATOM      7  C   UNL     1       7.281   4.923  15.358  0.00  0.00    +0.000 A 
ATOM      8  O   UNL     1       7.902   5.301  14.367  0.00  0.00    +0.000 OA
ATOM      9  H   UNL     1       8.884   5.145  16.568  0.00  0.00    +0.000 HD
ENDROOT
BRANCH   2  10
ATOM     10  N   UNL     1       3.929   3.782  16.431  0.00  0.00    +0.000 N 
ATOM     11  H   UNL     1       3.365   3.999  17.245  0.00  0.00    +0.000 HD
ATOM     12  H   UNL     1       3.842   2.781  16.207  0.00  0.00    +0.000 HD
ENDBRANCH   2  10
BRANCH   3  13
ATOM     13  C   UNL     1       5.102   4.097  19.015  0.00  0.00    +0.000 C 
ATOM     14  O   UNL     1       4.957   2.950  19.457  0.00  0.00    +0.000 OA
BRANCH  13  15
ATOM     15  C   UNL     1       4.486   5.317  19.698  0.00  0.00    +0.000 C 
BRANCH  15  16
ATOM     16  S   UNL     1       2.681   5.156  19.936  0.00  0.00    +0.000 S 
BRANCH  16  17
ATOM     17  C   UNL     1       2.186   6.816  19.703  0.00  0.00    +0.000 A 
ATOM     18  N   UNL     1       1.548   7.468  20.647  0.00  0.00    +0.000 NA
ATOM     19  C   UNL     1       1.222   8.733  20.190  0.00  0.00    +0.000 A 
ATOM     20  C   UNL     1       0.524   9.714  20.920  0.00  0.00    +0.000 A 
ATOM     21  C   UNL     1       0.223  10.942  20.325  0.00  0.00    +0.000 A 
ATOM     22  C   UNL     1       0.617  11.207  19.017  0.00  0.00    +0.000 A 
ATOM     23  C   UNL     1       1.331  10.258  18.276  0.00  0.00    +0.000 A 
ATOM     24  C   UNL     1       1.625   9.027  18.884  0.00  0.00    +0.000 A 
ATOM     25  S   UNL     1       2.480   7.672  18.251  0.00  0.00    +0.000 S 
ENDBRANCH  16  17
ENDBRANCH  15  16
ENDBRANCH  13  15
ENDBRANCH   3  13
BRANCH   1  26
ATOM     26  C   UNL     1       5.262   4.594  14.058  0.00  0.00    +0.000 C 
BRANCH  26  28
ATOM     27  C   UNL     1       6.394   3.452  12.105  0.00  0.00    +0.000 C 
ATOM     28  C   UNL     1       5.424   3.290  13.265  0.00  0.00    +0.000 C 
ENDBRANCH  26  28
ENDBRANCH   1  26
TORSDOF 7
ENDMDL
MODEL 4
REMARK VINA RESULT:      -7.2      1.240      1.904
REMARK  Name = 
REMARK  8 active torsions:
REMARK  status: ('A' for Active; 'I' for Inactive)
REMARK    1  A    between atoms: C_1  and  C_2
REMARK    2  A    between atoms: C_2  and  C_3
REMARK    3  A    between atoms: C_3  and  N_4
REMARK    4  A    between atoms: C_5  and  N_6
REMARK    5  A    between atoms: C_7  and  C_8
REMARK    6  A    between atoms: C_8  and  C_10
REMARK    7  A    between atoms: C_10  and  S_11
REMARK    8  A    between atoms: S_11  and  C_12
REMARK                            x       y       z     vdW  Elec       q    Type
REMARK                         _______ _______ _______ _____ _____    ______ ____
ROOT
ATOM      1  N   UNL     1       5.695   4.806  16.045  0.00  0.00    +0.000 N 
ATOM      2  C   UNL     1       4.801   4.365  17.032  0.00  0.00    +0.000 A 
ATOM      3  C   UNL     1       5.100   4.560  18.346  0.00  0.00    +0.000 A 
ATOM      4  C   UNL     1       6.421   5.126  18.694  0.00  0.00    +0.000 A 
ATOM      5  O   UNL     1       6.782   5.303  19.853  0.00  0.00    +0.000 OA
ATOM      6  N   UNL     1       7.236   5.469  17.663  0.00  0.00    +0.000 N 
ATOM      7  C   UNL     1       6.912   5.406  16.344  0.00  0.00    +0.000 A 
ATOM      8  O   UNL     1       7.687   5.874  15.512  0.00  0.00    +0.000 OA
ATOM      9  H   UNL     1       8.118   5.899  17.889  0.00  0.00    +0.000 HD
ENDROOT
BRANCH   2  10
ATOM     10  N   UNL     1       3.624   3.738  16.643  0.00  0.00    +0.000 N 
ATOM     11  H   UNL     1       3.635   2.730  16.748  0.00  0.00    +0.000 HD
ATOM     12  H   UNL     1       3.343   3.983  15.683  0.00  0.00    +0.000 HD
ENDBRANCH   2  10
BRANCH   3  13
ATOM     13  C   UNL     1       4.070   4.263  19.413  0.00  0.00    +0.000 C 
ATOM     14  O   UNL     1       3.947   3.094  19.801  0.00  0.00    +0.000 OA
BRANCH  13  15
ATOM     15  C   UNL     1       3.194   5.395  19.947  0.00  0.00    +0.000 C 
BRANCH  15  16
ATOM     16  S   UNL     1       2.934   6.724  18.719  0.00  0.00    +0.000 S 
BRANCH  16  17
ATOM     17  C   UNL     1       1.900   7.797  19.633  0.00  0.00    +0.000 A 
ATOM     18  N   UNL     1       1.532   8.957  19.143  0.00  0.00    +0.000 NA
ATOM     19  C   UNL     1       0.770   9.631  20.082  0.00  0.00    +0.000 A 
ATOM     20  C   UNL     1       0.209  10.911  19.919  0.00  0.00    +0.000 A 
ATOM     21  C   UNL     1      -0.508  11.496  20.965  0.00  0.00    +0.000 A 
ATOM     22  C   UNL     1      -0.681  10.818  22.168  0.00  0.00    +0.000 A 
ATOM     23  C   UNL     1      -0.152   9.535  22.349  0.00  0.00    +0.000 A 
ATOM     24  C   UNL     1       0.568   8.958  21.292  0.00  0.00    +0.000 A 
ATOM     25  S   UNL     1       1.329   7.415  21.200  0.00  0.00    +0.000 S 
ENDBRANCH  16  17
ENDBRANCH  15  16
ENDBRANCH  13  15
ENDBRANCH   3  13
BRANCH   1  26
ATOM     26  C   UNL     1       5.347   4.738  14.618  0.00  0.00    +0.000 C 
BRANCH  26  28
ATOM     27  C   UNL     1       6.615   3.912  12.591  0.00  0.00    +0.000 C 
ATOM     28  C   UNL     1       5.992   3.531  13.925  0.00  0.00    +0.000 C 
ENDBRANCH  26  28
ENDBRANCH   1  26
TORSDOF 7
ENDMDL
MODEL 5
REMARK VINA RESULT:      -7.1      1.397      2.700
REMARK  Name = 
REMARK  8 active torsions:
REMARK  status: ('A' for Active; 'I' for Inactive)
REMARK    1  A    between atoms: C_1  and  C_2
REMARK    2  A    between atoms: C_2  and  C_3
REMARK    3  A    between atoms: C_3  and  N_4
REMARK    4  A    between atoms: C_5  and  N_6
REMARK    5  A    between atoms: C_7  and  C_8
REMARK    6  A    between atoms: C_8  and  C_10
REMARK    7  A    between atoms: C_10  and  S_11
REMARK    8  A    between atoms: S_11  and  C_12
REMARK                            x       y       z     vdW  Elec       q    Type
REMARK                         _______ _______ _______ _____ _____    ______ ____
ROOT
ATOM      1  N   UNL     1       6.513   5.485  17.263  0.00  0.00    +0.000 N 
ATOM      2  C   UNL     1       5.802   4.932  18.339  0.00  0.00    +0.000 A 
ATOM      3  C   UNL     1       4.796   4.047  18.097  0.00  0.00    +0.000 A 
ATOM      4  C   UNL     1       4.404   3.789  16.695  0.00  0.00    +0.000 A 
ATOM      5  O   UNL     1       3.487   3.032  16.392  0.00  0.00    +0.000 OA
ATOM      6  N   UNL     1       5.120   4.418  15.728  0.00  0.00    +0.000 N 
ATOM      7  C   UNL     1       6.211   5.203  15.936  0.00  0.00    +0.000 A 
ATOM      8  O   UNL     1       6.854   5.606  14.969  0.00  0.00    +0.000 OA
ATOM      9  H   UNL     1       4.892   4.212  14.769  0.00  0.00    +0.000 HD
ENDROOT
BRANCH   2  10
ATOM     10  N   UNL     1       6.146   5.301  19.634  0.00  0.00    +0.000 N 
ATOM     11  H   UNL     1       6.081   4.549  20.311  0.00  0.00    +0.000 HD
ATOM     12  H   UNL     1       5.613   6.115  19.969  0.00  0.00    +0.000 HD
ENDBRANCH   2  10
BRANCH   3  13
ATOM     13  C   UNL     1       4.147   3.301  19.241  0.00  0.00    +0.000 C 
ATOM     14  O   UNL     1       4.842   2.519  19.902  0.00  0.00    +0.000 OA
BRANCH  13  15
ATOM     15  C   UNL     1       2.658   3.502  19.520  0.00  0.00    +0.000 C 
BRANCH  15  16
ATOM     16  S   UNL     1       2.350   4.509  21.014  0.00  0.00    +0.000 S 
BRANCH  16  17
ATOM     17  C   UNL     1       2.129   6.084  20.289  0.00  0.00    +0.000 A 
ATOM     18  N   UNL     1       1.589   7.069  20.968  0.00  0.00    +0.000 NA
ATOM     19  C   UNL     1       1.476   8.181  20.152  0.00  0.00    +0.000 A 
ATOM     20  C   UNL     1       0.932   9.423  20.528  0.00  0.00    +0.000 A 
ATOM     21  C   UNL     1       0.841  10.456  19.592  0.00  0.00    +0.000 A 
ATOM     22  C   UNL     1       1.293  10.269  18.289  0.00  0.00    +0.000 A 
ATOM     23  C   UNL     1       1.858   9.052  17.894  0.00  0.00    +0.000 A 
ATOM     24  C   UNL     1       1.943   8.020  18.843  0.00  0.00    +0.000 A 
ATOM     25  S   UNL     1       2.580   6.429  18.675  0.00  0.00    +0.000 S 
ENDBRANCH  16  17
ENDBRANCH  15  16
ENDBRANCH  13  15
ENDBRANCH   3  13
BRANCH   1  26
ATOM     26  C   UNL     1       7.691   6.335  17.486  0.00  0.00    +0.000 C 
BRANCH  26  28
ATOM     27  C   UNL     1       8.382   8.668  18.175  0.00  0.00    +0.000 C 
ATOM     28  C   UNL     1       7.339   7.828  17.456  0.00  0.00    +0.000 C 
ENDBRANCH  26  28
ENDBRANCH   1  26
TORSDOF 7
ENDMDL
MODEL 6
REMARK VINA RESULT:      -7.0      2.250      3.445
REMARK  Name = 
REMARK  8 active torsions:
REMARK  status: ('A' for Active; 'I' for Inactive)
REMARK    1  A    between atoms: C_1  and  C_2
REMARK    2  A    between atoms: C_2  and  C_3
REMARK    3  A    between atoms: C_3  and  N_4
REMARK    4  A    between atoms: C_5  and  N_6
REMARK    5  A    between atoms: C_7  and  C_8
REMARK    6  A    between atoms: C_8  and  C_10
REMARK    7  A    between atoms: C_10  and  S_11
REMARK    8  A    between atoms: S_11  and  C_12
REMARK                            x       y       z     vdW  Elec       q    Type
REMARK                         _______ _______ _______ _____ _____    ______ ____
ROOT
ATOM      1  N   UNL     1       6.297   5.687  17.524  0.00  0.00    +0.000 N 
ATOM      2  C   UNL     1       4.920   5.897  17.358  0.00  0.00    +0.000 A 
ATOM      3  C   UNL     1       4.034   5.055  17.960  0.00  0.00    +0.000 A 
ATOM      4  C   UNL     1       4.557   3.869  18.672  0.00  0.00    +0.000 A 
ATOM      5  O   UNL     1       3.827   3.045  19.211  0.00  0.00    +0.000 OA
ATOM      6  N   UNL     1       5.907   3.729  18.727  0.00  0.00    +0.000 N 
ATOM      7  C   UNL     1       6.815   4.622  18.250  0.00  0.00    +0.000 A 
ATOM      8  O   UNL     1       8.009   4.445  18.481  0.00  0.00    +0.000 OA
ATOM      9  H   UNL     1       6.274   2.951  19.251  0.00  0.00    +0.000 HD
ENDROOT
BRANCH   2  10
ATOM     10  N   UNL     1       4.489   6.967  16.583  0.00  0.00    +0.000 N 
ATOM     11  H   UNL     1       4.472   7.854  17.072  0.00  0.00    +0.000 HD
ATOM     12  H   UNL     1       3.573   6.795  16.145  0.00  0.00    +0.000 HD
ENDBRANCH   2  10
BRANCH   3  13
ATOM     13  C   UNL     1       2.555   5.371  17.948  0.00  0.00    +0.000 C 
ATOM     14  O   UNL     1       1.784   4.557  17.422  0.00  0.00    +0.000 OA
BRANCH  13  15
ATOM     15  C   UNL     1       2.064   6.690  18.544  0.00  0.00    +0.000 C 
BRANCH  15  16
ATOM     16  S   UNL     1       2.369   6.808  20.342  0.00  0.00    +0.000 S 
BRANCH  16  17
ATOM     17  C   UNL     1       1.410   8.216  20.730  0.00  0.00    +0.000 A 
ATOM     18  N   UNL     1       0.916   8.384  21.934  0.00  0.00    +0.000 NA
ATOM     19  C   UNL     1       0.153   9.540  21.960  0.00  0.00    +0.000 A 
ATOM     20  C   UNL     1      -0.544  10.038  23.077  0.00  0.00    +0.000 A 
ATOM     21  C   UNL     1      -1.311  11.199  22.958  0.00  0.00    +0.000 A 
ATOM     22  C   UNL     1      -1.385  11.874  21.742  0.00  0.00    +0.000 A 
ATOM     23  C   UNL     1      -0.685  11.412  20.622  0.00  0.00    +0.000 A 
ATOM     24  C   UNL     1       0.081  10.243  20.754  0.00  0.00    +0.000 A 
ATOM     25  S   UNL     1       1.049   9.432  19.582  0.00  0.00    +0.000 S 
ENDBRANCH  16  17
ENDBRANCH  15  16
ENDBRANCH  13  15
ENDBRANCH   3  13
BRANCH   1  26
ATOM     26  C   UNL     1       7.280   6.651  17.008  0.00  0.00    +0.000 C 
BRANCH  26  28
ATOM     27  C   UNL     1       7.985   8.973  17.722  0.00  0.00    +0.000 C 
ATOM     28  C   UNL     1       7.885   7.510  18.126  0.00  0.00    +0.000 C 
ENDBRANCH  26  28
ENDBRANCH   1  26
TORSDOF 7
ENDMDL
MODEL 7
REMARK VINA RESULT:      -6.9      1.938      3.295
REMARK  Name = 
REMARK  8 active torsions:
REMARK  status: ('A' for Active; 'I' for Inactive)
REMARK    1  A    between atoms: C_1  and  C_2
REMARK    2  A    between atoms: C_2  and  C_3
REMARK    3  A    between atoms: C_3  and  N_4
REMARK    4  A    between atoms: C_5  and  N_6
REMARK    5  A    between atoms: C_7  and  C_8
REMARK    6  A    between atoms: C_8  and  C_10
REMARK    7  A    between atoms: C_10  and  S_11
REMARK    8  A    between atoms: S_11  and  C_12
REMARK                            x       y       z     vdW  Elec       q    Type
REMARK                         _______ _______ _______ _____ _____    ______ ____
ROOT
ATOM      1  N   UNL     1       6.140   4.477  17.545  0.00  0.00    +0.000 N 
ATOM      2  C   UNL     1       5.260   4.587  18.632  0.00  0.00    +0.000 A 
ATOM      3  C   UNL     1       3.951   4.242  18.476  0.00  0.00    +0.000 A 
ATOM      4  C   UNL     1       3.474   3.876  17.125  0.00  0.00    +0.000 A 
ATOM      5  O   UNL     1       2.305   3.585  16.892  0.00  0.00    +0.000 OA
ATOM      6  N   UNL     1       4.397   3.854  16.129  0.00  0.00    +0.000 N 
ATOM      7  C   UNL     1       5.731   4.066  16.283  0.00  0.00    +0.000 A 
ATOM      8  O   UNL     1       6.482   3.884  15.326  0.00  0.00    +0.000 OA
ATOM      9  H   UNL     1       4.091   3.559  15.216  0.00  0.00    +0.000 HD
ENDROOT
BRANCH   2  10
ATOM     10  N   UNL     1       5.747   5.044  19.851  0.00  0.00    +0.000 N 
ATOM     11  H   UNL     1       6.139   4.319  20.440  0.00  0.00    +0.000 HD
ATOM     12  H   UNL     1       5.046   5.580  20.381  0.00  0.00    +0.000 HD
ENDBRANCH   2  10
BRANCH   3  13
ATOM     13  C   UNL     1       3.033   4.175  19.676  0.00  0.00    +0.000 C 
ATOM     14  O   UNL     1       2.811   3.068  20.183  0.00  0.00    +0.000 OA
BRANCH  13  15
ATOM     15  C   UNL     1       2.382   5.456  20.195  0.00  0.00    +0.000 C 
BRANCH  15  16
ATOM     16  S   UNL     1       2.549   6.854  19.031  0.00  0.00    +0.000 S 
BRANCH  16  17
ATOM     17  C   UNL     1       1.658   8.087  19.892  0.00  0.00    +0.000 A 
ATOM     18  N   UNL     1       1.299   7.910  21.141  0.00  0.00    +0.000 NA
ATOM     19  C   UNL     1       0.561   9.002  21.566  0.00  0.00    +0.000 A 
ATOM     20  C   UNL     1      -0.004   9.163  22.845  0.00  0.00    +0.000 A 
ATOM     21  C   UNL     1      -0.763  10.300  23.132  0.00  0.00    +0.000 A 
ATOM     22  C   UNL     1      -0.959  11.281  22.164  0.00  0.00    +0.000 A 
ATOM     23  C   UNL     1      -0.391  11.156  20.892  0.00  0.00    +0.000 A 
ATOM     24  C   UNL     1       0.369  10.008  20.614  0.00  0.00    +0.000 A 
ATOM     25  S   UNL     1       1.192   9.565  19.167  0.00  0.00    +0.000 S 
ENDBRANCH  16  17
ENDBRANCH  15  16
ENDBRANCH  13  15
ENDBRANCH   3  13
BRANCH   1  26
ATOM     26  C   UNL     1       7.583   4.706  17.709  0.00  0.00    +0.000 C 
BRANCH  26  28
ATOM     27  C   UNL     1       7.516   7.207  17.338  0.00  0.00    +0.000 C 
ATOM     28  C   UNL     1       7.882   6.090  18.302  0.00  0.00    +0.000 C 
ENDBRANCH  26  28
ENDBRANCH   1  26
TORSDOF 7
ENDMDL
MODEL 8
REMARK VINA RESULT:      -6.9      2.536      7.017
REMARK  Name = 
REMARK  8 active torsions:
REMARK  status: ('A' for Active; 'I' for Inactive)
REMARK    1  A    between atoms: C_1  and  C_2
REMARK    2  A    between atoms: C_2  and  C_3
REMARK    3  A    between atoms: C_3  and  N_4
REMARK    4  A    between atoms: C_5  and  N_6
REMARK    5  A    between atoms: C_7  and  C_8
REMARK    6  A    between atoms: C_8  and  C_10
REMARK    7  A    between atoms: C_10  and  S_11
REMARK    8  A    between atoms: S_11  and  C_12
REMARK                            x       y       z     vdW  Elec       q    Type
REMARK                         _______ _______ _______ _____ _____    ______ ____
ROOT
ATOM      1  N   UNL     1       2.029   8.010  19.382  0.00  0.00    +0.000 N 
ATOM      2  C   UNL     1       2.500   6.920  18.635  0.00  0.00    +0.000 A 
ATOM      3  C   UNL     1       2.444   5.666  19.165  0.00  0.00    +0.000 A 
ATOM      4  C   UNL     1       1.995   5.511  20.565  0.00  0.00    +0.000 A 
ATOM      5  O   UNL     1       1.946   4.422  21.128  0.00  0.00    +0.000 OA
ATOM      6  N   UNL     1       1.612   6.638  21.219  0.00  0.00    +0.000 N 
ATOM      7  C   UNL     1       1.535   7.881  20.674  0.00  0.00    +0.000 A 
ATOM      8  O   UNL     1       1.044   8.796  21.332  0.00  0.00    +0.000 OA
ATOM      9  H   UNL     1       1.260   6.536  22.157  0.00  0.00    +0.000 HD
ENDROOT
BRANCH   2  10
ATOM     10  N   UNL     1       3.015   7.145  17.364  0.00  0.00    +0.000 N 
ATOM     11  H   UNL     1       4.027   7.187  17.326  0.00  0.00    +0.000 HD
ATOM     12  H   UNL     1       2.617   7.984  16.918  0.00  0.00    +0.000 HD
ENDBRANCH   2  10
BRANCH   3  13
ATOM     13  C   UNL     1       2.771   4.463  18.310  0.00  0.00    +0.000 C 
ATOM     14  O   UNL     1       2.006   4.179  17.378  0.00  0.00    +0.000 OA
BRANCH  13  15
ATOM     15  C   UNL     1       3.999   3.617  18.642  0.00  0.00    +0.000 C 
BRANCH  15  16
ATOM     16  S   UNL     1       5.533   4.606  18.731  0.00  0.00    +0.000 S 
BRANCH  16  17
ATOM     17  C   UNL     1       5.975   4.651  17.040  0.00  0.00    +0.000 A 
ATOM     18  N   UNL     1       5.364   3.890  16.164  0.00  0.00    +0.000 NA
ATOM     19  C   UNL     1       5.938   4.074  14.917  0.00  0.00    +0.000 A 
ATOM     20  C   UNL     1       5.556   3.416  13.733  0.00  0.00    +0.000 A 
ATOM     21  C   UNL     1       6.247   3.665  12.544  0.00  0.00    +0.000 A 
ATOM     22  C   UNL     1       7.308   4.565  12.521  0.00  0.00    +0.000 A 
ATOM     23  C   UNL     1       7.695   5.248  13.679  0.00  0.00    +0.000 A 
ATOM     24  C   UNL     1       6.995   4.989  14.868  0.00  0.00    +0.000 A 
ATOM     25  S   UNL     1       7.219   5.659  16.438  0.00  0.00    +0.000 S 
ENDBRANCH  16  17
ENDBRANCH  15  16
ENDBRANCH  13  15
ENDBRANCH   3  13
BRANCH   1  26
ATOM     26  C   UNL     1       1.945   9.355  18.794  0.00  0.00    +0.000 C 
BRANCH  26  28
ATOM     27  C   UNL     1      -0.307  10.491  18.612  0.00  0.00    +0.000 C 
ATOM     28  C   UNL     1       0.676   9.538  17.952  0.00  0.00    +0.000 C 
ENDBRANCH  26  28
ENDBRANCH   1  26
TORSDOF 7
ENDMDL
MODEL 9
REMARK VINA RESULT:      -6.9      1.582      2.248
REMARK  Name = 
REMARK  8 active torsions:
REMARK  status: ('A' for Active; 'I' for Inactive)
REMARK    1  A    between atoms: C_1  and  C_2
REMARK    2  A    between atoms: C_2  and  C_3
REMARK    3  A    between atoms: C_3  and  N_4
REMARK    4  A    between atoms: C_5  and  N_6
REMARK    5  A    between atoms: C_7  and  C_8
REMARK    6  A    between atoms: C_8  and  C_10
REMARK    7  A    between atoms: C_10  and  S_11
REMARK    8  A    between atoms: S_11  and  C_12
REMARK                            x       y       z     vdW  Elec       q    Type
REMARK                         _______ _______ _______ _____ _____    ______ ____
ROOT
ATOM      1  N   UNL     1       6.363   4.258  15.361  0.00  0.00    +0.000 N 
ATOM      2  C   UNL     1       5.818   4.210  16.653  0.00  0.00    +0.000 A 
ATOM      3  C   UNL     1       6.133   5.183  17.553  0.00  0.00    +0.000 A 
ATOM      4  C   UNL     1       7.140   6.197  17.173  0.00  0.00    +0.000 A 
ATOM      5  O   UNL     1       7.504   7.086  17.935  0.00  0.00    +0.000 OA
ATOM      6  N   UNL     1       7.648   6.121  15.916  0.00  0.00    +0.000 N 
ATOM      7  C   UNL     1       7.256   5.242  14.956  0.00  0.00    +0.000 A 
ATOM      8  O   UNL     1       7.696   5.363  13.814  0.00  0.00    +0.000 OA
ATOM      9  H   UNL     1       8.299   6.836  15.632  0.00  0.00    +0.000 HD
ENDROOT
BRANCH   2  10
ATOM     10  N   UNL     1       4.962   3.166  16.985  0.00  0.00    +0.000 N 
ATOM     11  H   UNL     1       4.683   2.591  16.199  0.00  0.00    +0.000 HD
ATOM     12  H   UNL     1       4.127   3.487  17.494  0.00  0.00    +0.000 HD
ENDBRANCH   2  10
BRANCH   3  13
ATOM     13  C   UNL     1       5.414   5.253  18.881  0.00  0.00    +0.000 C 
ATOM     14  O   UNL     1       6.050   4.980  19.908  0.00  0.00    +0.000 OA
BRANCH  13  15
ATOM     15  C   UNL     1       3.930   5.614  18.914  0.00  0.00    +0.000 C 
BRANCH  15  16
ATOM     16  S   UNL     1       3.507   6.964  17.756  0.00  0.00    +0.000 S 
BRANCH  16  17
ATOM     17  C   UNL     1       2.382   7.875  18.734  0.00  0.00    +0.000 A 
ATOM     18  N   UNL     1       1.854   8.991  18.291  0.00  0.00    +0.000 NA
ATOM     19  C   UNL     1       1.049   9.540  19.274  0.00  0.00    +0.000 A 
ATOM     20  C   UNL     1       0.327  10.744  19.167  0.00  0.00    +0.000 A 
ATOM     21  C   UNL     1      -0.419  11.208  20.253  0.00  0.00    +0.000 A 
ATOM     22  C   UNL     1      -0.461  10.484  21.441  0.00  0.00    +0.000 A 
ATOM     23  C   UNL     1       0.229   9.274  21.567  0.00  0.00    +0.000 A 
ATOM     24  C   UNL     1       0.977   8.818  20.470  0.00  0.00    +0.000 A 
ATOM     25  S   UNL     1       1.921   7.386  20.308  0.00  0.00    +0.000 S 
ENDBRANCH  16  17
ENDBRANCH  15  16
ENDBRANCH  13  15
ENDBRANCH   3  13
BRANCH   1  26
ATOM     26  C   UNL     1       5.940   3.308  14.322  0.00  0.00    +0.000 C 
BRANCH  26  28
ATOM     27  C   UNL     1       5.244   3.172  11.894  0.00  0.00    +0.000 C 
ATOM     28  C   UNL     1       5.210   4.005  13.166  0.00  0.00    +0.000 C 
ENDBRANCH  26  28
ENDBRANCH   1  26
TORSDOF 7
ENDMDL
