MODEL 1
REMARK VINA RESULT:      -7.5      0.000      0.000
REMARK  Name = 
REMARK  4 active torsions:
REMARK  status: ('A' for Active; 'I' for Inactive)
REMARK    1  A    between atoms: C_2  and  C_3
REMARK    2  A    between atoms: C_6  and  C_7
REMARK    3  A    between atoms: C_7  and  O_8
REMARK    4  A    between atoms: O_8  and  C_9
REMARK                            x       y       z     vdW  Elec       q    Type
REMARK                         _______ _______ _______ _____ _____    ______ ____
ROOT
ATOM      1  C   UNL     1       6.483   6.222  17.530  0.00  0.00    +0.000 A 
ATOM      2  C   UNL     1       7.413   5.813  18.469  0.00  0.00    +0.000 A 
ATOM      3  C   UNL     1       8.273   6.910  18.695  0.00  0.00    +0.000 A 
ATOM      4  C   UNL     1       7.803   7.947  17.918  0.00  0.00    +0.000 A 
ATOM      5  O   UNL     1       6.721   7.532  17.193  0.00  0.00    +0.000 OA
ENDROOT
BRANCH   1   7
ATOM      6  O   UNL     1       5.112   5.476  15.790  0.00  0.00    +0.000 OA
ATOM      7  C   UNL     1       5.324   5.527  17.007  0.00  0.00    +0.000 C 
ATOM      8  N   UNL     1       4.438   4.933  17.903  0.00  0.00    +0.000 N 
ATOM      9  C   UNL     1       3.336   4.110  17.403  0.00  0.00    +0.000 C 
ATOM     10  C   UNL     1       1.983   4.703  17.808  0.00  0.00    +0.000 C 
ATOM     11  O   UNL     1       1.917   4.918  19.228  0.00  0.00    +0.000 OA
ATOM     12  C   UNL     1       2.953   5.819  19.650  0.00  0.00    +0.000 C 
ATOM     13  C   UNL     1       4.343   5.256  19.331  0.00  0.00    +0.000 C 
ENDBRANCH   1   7
BRANCH   4  14
ATOM     14  C   UNL     1       8.165   9.391  17.856  0.00  0.00    +0.000 C 
BRANCH  14  15
ATOM     15  O   UNL     1       9.036   9.683  18.949  0.00  0.00    +0.000 OA
BRANCH  15  16
ATOM     16  C   UNL     1       9.565  10.950  19.014  0.00  0.00    +0.000 A 
ATOM     17  C   UNL     1      10.283  11.308  17.861  0.00  0.00    +0.000 A 
ATOM     18  C   UNL     1      10.963  12.529  17.770  0.00  0.00    +0.000 A 
ATOM     19  C   UNL     1      10.930  13.419  18.838  0.00  0.00    +0.000 A 
ATOM     20  C   UNL     1      10.229  13.078  19.991  0.00  0.00    +0.000 A 
ATOM     21  C   UNL     1       9.561  11.849  20.093  0.00  0.00    +0.000 A 
ATOM     22 CL   UNL     1       8.872  11.547  21.649  0.00  0.00    +0.000 Cl
ENDBRANCH  15  16
ENDBRANCH  14  15
ENDBRANCH   4  14
TORSDOF 4
ENDMDL
MODEL 2
REMARK VINA RESULT:      -7.4      5.267      6.812
REMARK  Name = 
REMARK  4 active torsions:
REMARK  status: ('A' for Active; 'I' for Inactive)
REMARK    1  A    between atoms: C_2  and  C_3
REMARK    2  A    between atoms: C_6  and  C_7
REMARK    3  A    between atoms: C_7  and  O_8
REMARK    4  A    between atoms: O_8  and  C_9
REMARK                            x       y       z     vdW  Elec       q    Type
REMARK                         _______ _______ _______ _____ _____    ______ ____
ROOT
ATOM      1  C   UNL     1       3.586   4.906  17.713  0.00  0.00    +0.000 A 
ATOM      2  C   UNL     1       3.765   6.261  17.507  0.00  0.00    +0.000 A 
ATOM      3  C   UNL     1       5.115   6.443  17.133  0.00  0.00    +0.000 A 
ATOM      4  C   UNL     1       5.683   5.187  17.087  0.00  0.00    +0.000 A 
ATOM      5  O   UNL     1       4.763   4.245  17.454  0.00  0.00    +0.000 OA
ENDROOT
BRANCH   1   7
ATOM      6  O   UNL     1       1.363   4.292  17.329  0.00  0.00    +0.000 OA
ATOM      7  C   UNL     1       2.380   4.165  18.021  0.00  0.00    +0.000 C 
ATOM      8  N   UNL     1       2.377   3.319  19.128  0.00  0.00    +0.000 N 
ATOM      9  C   UNL     1       1.223   2.456  19.385  0.00  0.00    +0.000 C 
ATOM     10  C   UNL     1       0.579   2.792  20.734  0.00  0.00    +0.000 C 
ATOM     11  O   UNL     1       1.549   2.755  21.794  0.00  0.00    +0.000 OA
ATOM     12  C   UNL     1       2.603   3.699  21.547  0.00  0.00    +0.000 C 
ATOM     13  C   UNL     1       3.335   3.382  20.237  0.00  0.00    +0.000 C 
ENDBRANCH   1   7
BRANCH   4  14
ATOM     14  C   UNL     1       7.004   4.708  16.592  0.00  0.00    +0.000 C 
BRANCH  14  15
ATOM     15  O   UNL     1       7.359   5.477  15.442  0.00  0.00    +0.000 OA
BRANCH  15  16
ATOM     16  C   UNL     1       7.061   4.946  14.210  0.00  0.00    +0.000 A 
ATOM     17  C   UNL     1       6.003   4.023  14.249  0.00  0.00    +0.000 A 
ATOM     18  C   UNL     1       5.605   3.316  13.107  0.00  0.00    +0.000 A 
ATOM     19  C   UNL     1       6.261   3.527  11.900  0.00  0.00    +0.000 A 
ATOM     20  C   UNL     1       7.316   4.433  11.844  0.00  0.00    +0.000 A 
ATOM     21  C   UNL     1       7.729   5.131  12.989  0.00  0.00    +0.000 A 
ATOM     22 CL   UNL     1       9.142   6.098  12.754  0.00  0.00    +0.000 Cl
ENDBRANCH  15  16
ENDBRANCH  14  15
ENDBRANCH   4  14
TORSDOF 4
ENDMDL
MODEL 3
REMARK VINA RESULT:      -7.3      6.428      9.324
REMARK  Name = 
REMARK  4 active torsions:
REMARK  status: ('A' for Active; 'I' for Inactive)
REMARK    1  A    between atoms: C_2  and  C_3
REMARK    2  A    between atoms: C_6  and  C_7
REMARK    3  A    between atoms: C_7  and  O_8
REMARK    4  A    between atoms: O_8  and  C_9
REMARK                            x       y       z     vdW  Elec       q    Type
REMARK                         _______ _______ _______ _____ _____    ______ ____
ROOT
ATOM      1  C   UNL     1       0.964   9.851  18.932  0.00  0.00    +0.000 A 
ATOM      2  C   UNL     1       1.675   9.466  17.811  0.00  0.00    +0.000 A 
ATOM      3  C   UNL     1       2.357   8.276  18.148  0.00  0.00    +0.000 A 
ATOM      4  C   UNL     1       1.996   7.968  19.442  0.00  0.00    +0.000 A 
ATOM      5  O   UNL     1       1.159   8.930  19.934  0.00  0.00    +0.000 OA
ENDROOT
BRANCH   1   7
ATOM      6  O   UNL     1       0.172  11.757  20.029  0.00  0.00    +0.000 OA
ATOM      7  C   UNL     1       0.028  10.943  19.109  0.00  0.00    +0.000 C 
ATOM      8  N   UNL     1      -1.051  11.049  18.236  0.00  0.00    +0.000 N 
ATOM      9  C   UNL     1      -1.934  12.215  18.304  0.00  0.00    +0.000 C 
ATOM     10  C   UNL     1      -3.368  11.797  18.641  0.00  0.00    +0.000 C 
ATOM     11  O   UNL     1      -3.842  10.792  17.728  0.00  0.00    +0.000 OA
ATOM     12  C   UNL     1      -3.005   9.627  17.781  0.00  0.00    +0.000 C 
ATOM     13  C   UNL     1      -1.560   9.963  17.391  0.00  0.00    +0.000 C 
ENDBRANCH   1   7
BRANCH   4  14
ATOM     14  C   UNL     1       2.233   6.762  20.284  0.00  0.00    +0.000 C 
BRANCH  14  15
ATOM     15  O   UNL     1       3.035   5.845  19.539  0.00  0.00    +0.000 OA
BRANCH  15  16
ATOM     16  C   UNL     1       2.448   4.665  19.150  0.00  0.00    +0.000 A 
ATOM     17  C   UNL     1       1.445   4.230  20.032  0.00  0.00    +0.000 A 
ATOM     18  C   UNL     1       0.786   3.008  19.848  0.00  0.00    +0.000 A 
ATOM     19  C   UNL     1       1.120   2.198  18.768  0.00  0.00    +0.000 A 
ATOM     20  C   UNL     1       2.116   2.610  17.887  0.00  0.00    +0.000 A 
ATOM     21  C   UNL     1       2.790   3.825  18.077  0.00  0.00    +0.000 A 
ATOM     22 CL   UNL     1       4.088   4.094  16.967  0.00  0.00    +0.000 Cl
ENDBRANCH  15  16
ENDBRANCH  14  15
ENDBRANCH   4  14
TORSDOF 4
ENDMDL
MODEL 4
REMARK VINA RESULT:      -7.3      5.047      7.157
REMARK  Name = 
REMARK  4 active torsions:
REMARK  status: ('A' for Active; 'I' for Inactive)
REMARK    1  A    between atoms: C_2  and  C_3
REMARK    2  A    between atoms: C_6  and  C_7
REMARK    3  A    between atoms: C_7  and  O_8
REMARK    4  A    between atoms: O_8  and  C_9
REMARK                            x       y       z     vdW  Elec       q    Type
REMARK                         _______ _______ _______ _____ _____    ______ ____
ROOT
ATOM      1  C   UNL     1       3.116   4.520  18.985  0.00  0.00    +0.000 A 
ATOM      2  C   UNL     1       2.992   3.671  20.070  0.00  0.00    +0.000 A 
ATOM      3  C   UNL     1       2.318   4.394  21.079  0.00  0.00    +0.000 A 
ATOM      4  C   UNL     1       2.026   5.632  20.549  0.00  0.00    +0.000 A 
ATOM      5  O   UNL     1       2.521   5.724  19.278  0.00  0.00    +0.000 OA
ENDROOT
BRANCH   1   7
ATOM      6  O   UNL     1       3.082   3.466  16.899  0.00  0.00    +0.000 OA
ATOM      7  C   UNL     1       3.643   4.263  17.660  0.00  0.00    +0.000 C 
ATOM      8  N   UNL     1       4.807   4.916  17.264  0.00  0.00    +0.000 N 
ATOM      9  C   UNL     1       5.287   4.783  15.888  0.00  0.00    +0.000 C 
ATOM     10  C   UNL     1       6.676   4.137  15.852  0.00  0.00    +0.000 C 
ATOM     11  O   UNL     1       7.598   4.846  16.697  0.00  0.00    +0.000 OA
ATOM     12  C   UNL     1       7.135   4.852  18.056  0.00  0.00    +0.000 C 
ATOM     13  C   UNL     1       5.771   5.544  18.175  0.00  0.00    +0.000 C 
ENDBRANCH   1   7
BRANCH   4  14
ATOM     14  C   UNL     1       1.184   6.757  21.046  0.00  0.00    +0.000 C 
BRANCH  14  15
ATOM     15  O   UNL     1       1.872   7.981  20.787  0.00  0.00    +0.000 OA
BRANCH  15  16
ATOM     16  C   UNL     1       1.159   8.992  20.189  0.00  0.00    +0.000 A 
ATOM     17  C   UNL     1       0.221   9.589  21.046  0.00  0.00    +0.000 A 
ATOM     18  C   UNL     1      -0.656  10.584  20.595  0.00  0.00    +0.000 A 
ATOM     19  C   UNL     1      -0.603  11.003  19.271  0.00  0.00    +0.000 A 
ATOM     20  C   UNL     1       0.316  10.419  18.405  0.00  0.00    +0.000 A 
ATOM     21  C   UNL     1       1.185   9.410  18.848  0.00  0.00    +0.000 A 
ATOM     22 CL   UNL     1       2.149   8.708  17.596  0.00  0.00    +0.000 Cl
ENDBRANCH  15  16
ENDBRANCH  14  15
ENDBRANCH   4  14
TORSDOF 4
ENDMDL
MODEL 5
REMARK VINA RESULT:      -7.3      1.205      1.340
REMARK  Name = 
REMARK  4 active torsions:
REMARK  status: ('A' for Active; 'I' for Inactive)
REMARK    1  A    between atoms: C_2  and  C_3
REMARK    2  A    between atoms: C_6  and  C_7
REMARK    3  A    between atoms: C_7  and  O_8
REMARK    4  A    between atoms: O_8  and  C_9
REMARK                            x       y       z     vdW  Elec       q    Type
REMARK                         _______ _______ _______ _____ _____    ______ ____
ROOT
ATOM      1  C   UNL     1       6.710   6.255  17.543  0.00  0.00    +0.000 A 
ATOM      2  C   UNL     1       7.612   5.989  18.556  0.00  0.00    +0.000 A 
ATOM      3  C   UNL     1       8.379   7.162  18.738  0.00  0.00    +0.000 A 
ATOM      4  C   UNL     1       7.881   8.099  17.859  0.00  0.00    +0.000 A 
ATOM      5  O   UNL     1       6.873   7.551  17.115  0.00  0.00    +0.000 OA
ENDROOT
BRANCH   1   7
ATOM      6  O   UNL     1       5.503   5.268  15.801  0.00  0.00    +0.000 OA
ATOM      7  C   UNL     1       5.634   5.439  17.019  0.00  0.00    +0.000 C 
ATOM      8  N   UNL     1       4.733   4.864  17.912  0.00  0.00    +0.000 N 
ATOM      9  C   UNL     1       3.720   3.926  17.426  0.00  0.00    +0.000 C 
ATOM     10  C   UNL     1       2.309   4.455  17.697  0.00  0.00    +0.000 C 
ATOM     11  O   UNL     1       2.139   4.787  19.086  0.00  0.00    +0.000 OA
ATOM     12  C   UNL     1       3.085   5.791  19.484  0.00  0.00    +0.000 C 
ATOM     13  C   UNL     1       4.527   5.302  19.297  0.00  0.00    +0.000 C 
ENDBRANCH   1   7
BRANCH   4  14
ATOM     14  C   UNL     1       8.143   9.558  17.701  0.00  0.00    +0.000 C 
BRANCH  14  15
ATOM     15  O   UNL     1       8.839  10.017  18.860  0.00  0.00    +0.000 OA
BRANCH  15  16
ATOM     16  C   UNL     1       9.576  11.170  18.739  0.00  0.00    +0.000 A 
ATOM     17  C   UNL     1      10.737  11.169  19.527  0.00  0.00    +0.000 A 
ATOM     18  C   UNL     1      11.576  12.289  19.598  0.00  0.00    +0.000 A 
ATOM     19  C   UNL     1      11.265  13.433  18.873  0.00  0.00    +0.000 A 
ATOM     20  C   UNL     1      10.114  13.455  18.091  0.00  0.00    +0.000 A 
ATOM     21  C   UNL     1       9.262  12.342  18.030  0.00  0.00    +0.000 A 
ATOM     22 CL   UNL     1       7.814  12.610  17.124  0.00  0.00    +0.000 Cl
ENDBRANCH  15  16
ENDBRANCH  14  15
ENDBRANCH   4  14
TORSDOF 4
ENDMDL
MODEL 6
REMARK VINA RESULT:      -7.2      6.225      9.279
REMARK  Name = 
REMARK  4 active torsions:
REMARK  status: ('A' for Active; 'I' for Inactive)
REMARK    1  A    between atoms: C_2  and  C_3
REMARK    2  A    between atoms: C_6  and  C_7
REMARK    3  A    between atoms: C_7  and  O_8
REMARK    4  A    between atoms: O_8  and  C_9
REMARK                            x       y       z     vdW  Elec       q    Type
REMARK                         _______ _______ _______ _____ _____    ______ ____
ROOT
ATOM      1  C   UNL     1       0.839   9.082  19.943  0.00  0.00    +0.000 A 
ATOM      2  C   UNL     1       0.751   9.746  18.734  0.00  0.00    +0.000 A 
ATOM      3  C   UNL     1       1.692   9.145  17.868  0.00  0.00    +0.000 A 
ATOM      4  C   UNL     1       2.277   8.117  18.576  0.00  0.00    +0.000 A 
ATOM      5  O   UNL     1       1.775   8.080  19.847  0.00  0.00    +0.000 OA
ENDROOT
BRANCH   1   7
ATOM      6  O   UNL     1      -0.633   8.291  21.578  0.00  0.00    +0.000 OA
ATOM      7  C   UNL     1       0.043   9.231  21.145  0.00  0.00    +0.000 C 
ATOM      8  N   UNL     1       0.035  10.463  21.795  0.00  0.00    +0.000 N 
ATOM      9  C   UNL     1      -0.648  10.606  23.081  0.00  0.00    +0.000 C 
ATOM     10  C   UNL     1      -1.783  11.629  22.988  0.00  0.00    +0.000 C 
ATOM     11  O   UNL     1      -1.308  12.883  22.469  0.00  0.00    +0.000 OA
ATOM     12  C   UNL     1      -0.747  12.706  21.158  0.00  0.00    +0.000 C 
ATOM     13  C   UNL     1       0.441  11.736  21.189  0.00  0.00    +0.000 C 
ENDBRANCH   1   7
BRANCH   4  14
ATOM     14  C   UNL     1       3.197   7.019  18.164  0.00  0.00    +0.000 C 
BRANCH  14  15
ATOM     15  O   UNL     1       3.238   6.050  19.212  0.00  0.00    +0.000 OA
BRANCH  15  16
ATOM     16  C   UNL     1       2.574   4.865  19.003  0.00  0.00    +0.000 A 
ATOM     17  C   UNL     1       1.605   4.596  19.983  0.00  0.00    +0.000 A 
ATOM     18  C   UNL     1       0.878   3.398  19.986  0.00  0.00    +0.000 A 
ATOM     19  C   UNL     1       1.109   2.447  18.999  0.00  0.00    +0.000 A 
ATOM     20  C   UNL     1       2.070   2.695  18.023  0.00  0.00    +0.000 A 
ATOM     21  C   UNL     1       2.812   3.885  18.025  0.00  0.00    +0.000 A 
ATOM     22 CL   UNL     1       4.054   3.946  16.824  0.00  0.00    +0.000 Cl
ENDBRANCH  15  16
ENDBRANCH  14  15
ENDBRANCH   4  14
TORSDOF 4
ENDMDL
MODEL 7
REMARK VINA RESULT:      -7.2      5.128      6.790
REMARK  Name = 
REMARK  4 active torsions:
REMARK  status: ('A' for Active; 'I' for Inactive)
REMARK    1  A    between atoms: C_2  and  C_3
REMARK    2  A    between atoms: C_6  and  C_7
REMARK    3  A    between atoms: C_7  and  O_8
REMARK    4  A    between atoms: O_8  and  C_9
REMARK                            x       y       z     vdW  Elec       q    Type
REMARK                         _______ _______ _______ _____ _____    ______ ____
ROOT
ATOM      1  C   UNL     1       3.850   6.179  18.389  0.00  0.00    +0.000 A 
ATOM      2  C   UNL     1       3.946   7.194  17.455  0.00  0.00    +0.000 A 
ATOM      3  C   UNL     1       5.122   6.952  16.710  0.00  0.00    +0.000 A 
ATOM      4  C   UNL     1       5.662   5.781  17.196  0.00  0.00    +0.000 A 
ATOM      5  O   UNL     1       4.902   5.310  18.230  0.00  0.00    +0.000 OA
ENDROOT
BRANCH   1   7
ATOM      6  O   UNL     1       2.283   6.797  20.011  0.00  0.00    +0.000 OA
ATOM      7  C   UNL     1       2.798   5.892  19.343  0.00  0.00    +0.000 C 
ATOM      8  N   UNL     1       2.388   4.572  19.512  0.00  0.00    +0.000 N 
ATOM      9  C   UNL     1       1.238   4.266  20.365  0.00  0.00    +0.000 C 
ATOM     10  C   UNL     1       1.650   3.373  21.539  0.00  0.00    +0.000 C 
ATOM     11  O   UNL     1       2.329   2.192  21.077  0.00  0.00    +0.000 OA
ATOM     12  C   UNL     1       3.510   2.546  20.340  0.00  0.00    +0.000 C 
ATOM     13  C   UNL     1       3.163   3.393  19.109  0.00  0.00    +0.000 C 
ENDBRANCH   1   7
BRANCH   4  14
ATOM     14  C   UNL     1       6.780   4.922  16.712  0.00  0.00    +0.000 C 
BRANCH  14  15
ATOM     15  O   UNL     1       7.345   5.532  15.550  0.00  0.00    +0.000 OA
BRANCH  15  16
ATOM     16  C   UNL     1       7.035   4.977  14.332  0.00  0.00    +0.000 A 
ATOM     17  C   UNL     1       5.952   4.085  14.392  0.00  0.00    +0.000 A 
ATOM     18  C   UNL     1       5.537   3.359  13.267  0.00  0.00    +0.000 A 
ATOM     19  C   UNL     1       6.202   3.520  12.057  0.00  0.00    +0.000 A 
ATOM     20  C   UNL     1       7.282   4.394  11.981  0.00  0.00    +0.000 A 
ATOM     21  C   UNL     1       7.712   5.111  13.108  0.00  0.00    +0.000 A 
ATOM     22 CL   UNL     1       9.152   6.033  12.853  0.00  0.00    +0.000 Cl
ENDBRANCH  15  16
ENDBRANCH  14  15
ENDBRANCH   4  14
TORSDOF 4
ENDMDL
MODEL 8
REMARK VINA RESULT:      -7.2      4.817      7.379
REMARK  Name = 
REMARK  4 active torsions:
REMARK  status: ('A' for Active; 'I' for Inactive)
REMARK    1  A    between atoms: C_2  and  C_3
REMARK    2  A    between atoms: C_6  and  C_7
REMARK    3  A    between atoms: C_7  and  O_8
REMARK    4  A    between atoms: O_8  and  C_9
REMARK                            x       y       z     vdW  Elec       q    Type
REMARK                         _______ _______ _______ _____ _____    ______ ____
ROOT
ATOM      1  C   UNL     1       3.342   4.230  19.432  0.00  0.00    +0.000 A 
ATOM      2  C   UNL     1       2.167   3.526  19.245  0.00  0.00    +0.000 A 
ATOM      3  C   UNL     1       1.155   4.231  19.934  0.00  0.00    +0.000 A 
ATOM      4  C   UNL     1       1.752   5.352  20.471  0.00  0.00    +0.000 A 
ATOM      5  O   UNL     1       3.088   5.352  20.183  0.00  0.00    +0.000 OA
ENDROOT
BRANCH   1   7
ATOM      6  O   UNL     1       5.488   3.303  19.468  0.00  0.00    +0.000 OA
ATOM      7  C   UNL     1       4.660   4.002  18.874  0.00  0.00    +0.000 C 
ATOM      8  N   UNL     1       4.987   4.604  17.661  0.00  0.00    +0.000 N 
ATOM      9  C   UNL     1       6.256   4.286  17.006  0.00  0.00    +0.000 C 
ATOM     10  C   UNL     1       7.129   5.537  16.866  0.00  0.00    +0.000 C 
ATOM     11  O   UNL     1       6.414   6.595  16.206  0.00  0.00    +0.000 OA
ATOM     12  C   UNL     1       5.234   6.945  16.948  0.00  0.00    +0.000 C 
ATOM     13  C   UNL     1       4.282   5.749  17.074  0.00  0.00    +0.000 C 
ENDBRANCH   1   7
BRANCH   4  14
ATOM     14  C   UNL     1       1.188   6.558  21.140  0.00  0.00    +0.000 C 
BRANCH  14  15
ATOM     15  O   UNL     1       1.698   7.717  20.481  0.00  0.00    +0.000 OA
BRANCH  15  16
ATOM     16  C   UNL     1       1.006   8.893  20.645  0.00  0.00    +0.000 A 
ATOM     17  C   UNL     1       0.618   9.124  21.975  0.00  0.00    +0.000 A 
ATOM     18  C   UNL     1      -0.164  10.231  22.329  0.00  0.00    +0.000 A 
ATOM     19  C   UNL     1      -0.571  11.131  21.350  0.00  0.00    +0.000 A 
ATOM     20  C   UNL     1      -0.201  10.914  20.026  0.00  0.00    +0.000 A 
ATOM     21  C   UNL     1       0.568   9.799  19.664  0.00  0.00    +0.000 A 
ATOM     22 CL   UNL     1       0.802   9.624  17.960  0.00  0.00    +0.000 Cl
ENDBRANCH  15  16
ENDBRANCH  14  15
ENDBRANCH   4  14
TORSDOF 4
ENDMDL
MODEL 9
REMARK VINA RESULT:      -7.2      1.233      1.641
REMARK  Name = 
REMARK  4 active torsions:
REMARK  status: ('A' for Active; 'I' for Inactive)
REMARK    1  A    between atoms: C_2  and  C_3
REMARK    2  A    between atoms: C_6  and  C_7
REMARK    3  A    between atoms: C_7  and  O_8
REMARK    4  A    between atoms: O_8  and  C_9
REMARK                            x       y       z     vdW  Elec       q    Type
REMARK                         _______ _______ _______ _____ _____    ______ ____
ROOT
ATOM      1  C   UNL     1       6.551   6.345  17.452  0.00  0.00    +0.000 A 
ATOM      2  C   UNL     1       7.567   6.006  18.326  0.00  0.00    +0.000 A 
ATOM      3  C   UNL     1       8.320   7.179  18.552  0.00  0.00    +0.000 A 
ATOM      4  C   UNL     1       7.703   8.186  17.840  0.00  0.00    +0.000 A 
ATOM      5  O   UNL     1       6.633   7.684  17.154  0.00  0.00    +0.000 OA
ENDROOT
BRANCH   1   7
ATOM      6  O   UNL     1       5.261   5.398  15.747  0.00  0.00    +0.000 OA
ATOM      7  C   UNL     1       5.444   5.549  16.961  0.00  0.00    +0.000 C 
ATOM      8  N   UNL     1       4.572   4.973  17.882  0.00  0.00    +0.000 N 
ATOM      9  C   UNL     1       3.528   4.055  17.424  0.00  0.00    +0.000 C 
ATOM     10  C   UNL     1       2.136   4.598  17.760  0.00  0.00    +0.000 C 
ATOM     11  O   UNL     1       2.027   4.911  19.159  0.00  0.00    +0.000 OA
ATOM     12  C   UNL     1       3.002   5.898  19.532  0.00  0.00    +0.000 C 
ATOM     13  C   UNL     1       4.428   5.393  19.280  0.00  0.00    +0.000 C 
ENDBRANCH   1   7
BRANCH   4  14
ATOM     14  C   UNL     1       7.909   9.662  17.817  0.00  0.00    +0.000 C 
BRANCH  14  15
ATOM     15  O   UNL     1       9.307   9.922  17.945  0.00  0.00    +0.000 OA
BRANCH  15  16
ATOM     16  C   UNL     1       9.693  10.849  18.883  0.00  0.00    +0.000 A 
ATOM     17  C   UNL     1       9.183  10.585  20.163  0.00  0.00    +0.000 A 
ATOM     18  C   UNL     1       9.401  11.460  21.235  0.00  0.00    +0.000 A 
ATOM     19  C   UNL     1      10.142  12.620  21.040  0.00  0.00    +0.000 A 
ATOM     20  C   UNL     1      10.651  12.902  19.776  0.00  0.00    +0.000 A 
ATOM     21  C   UNL     1      10.421  12.037  18.696  0.00  0.00    +0.000 A 
ATOM     22 CL   UNL     1      11.007  12.627  17.181  0.00  0.00    +0.000 Cl
ENDBRANCH  15  16
ENDBRANCH  14  15
ENDBRANCH   4  14
TORSDOF 4
ENDMDL
