MODEL 1
REMARK VINA RESULT:      -6.8      0.000      0.000
REMARK  Name = 
REMARK  0 active torsions:
REMARK  status: ('A' for Active; 'I' for Inactive)
REMARK                            x       y       z     vdW  Elec       q    Type
REMARK                         _______ _______ _______ _____ _____    ______ ____
ROOT
ATOM      1  O   UNL     1       2.383   1.836  18.666  0.00  0.00    +0.000 OA
ATOM      2  C   UNL     1       2.095   2.923  19.128  0.00  0.00    +0.000 C 
ATOM      3  C   UNL     1       1.021   3.332  20.119  0.00  0.00    +0.000 C 
ATOM      4  C   UNL     1       1.323   4.814  20.463  0.00  0.00    +0.000 C 
ATOM      5  C   UNL     1       2.271   5.195  19.403  0.00  0.00    +0.000 A 
ATOM      6  N   UNL     1       2.816   6.299  18.964  0.00  0.00    +0.000 NA
ATOM      7  C   UNL     1       3.641   5.871  17.939  0.00  0.00    +0.000 A 
ATOM      8  C   UNL     1       4.463   6.622  17.086  0.00  0.00    +0.000 A 
ATOM      9  C   UNL     1       5.210   5.954  16.106  0.00  0.00    +0.000 A 
ATOM     10  C   UNL     1       5.145   4.563  15.983  0.00  0.00    +0.000 A 
ATOM     11 CL   UNL     1       6.073   3.779  14.761  0.00  0.00    +0.000 Cl
ATOM     12  C   UNL     1       4.336   3.788  16.821  0.00  0.00    +0.000 A 
ATOM     13  C   UNL     1       3.596   4.480  17.784  0.00  0.00    +0.000 A 
ATOM     14  N   UNL     1       2.689   4.097  18.725  0.00  0.00    +0.000 N 
ENDROOT
TORSDOF 0
ENDMDL
MODEL 2
REMARK VINA RESULT:      -6.7      3.213      4.988
REMARK  Name = 
REMARK  0 active torsions:
REMARK  status: ('A' for Active; 'I' for Inactive)
REMARK                            x       y       z     vdW  Elec       q    Type
REMARK                         _______ _______ _______ _____ _____    ______ ____
ROOT
ATOM      1  O   UNL     1       6.797   5.325  19.945  0.00  0.00    +0.000 OA
ATOM      2  C   UNL     1       6.643   5.280  18.740  0.00  0.00    +0.000 C 
ATOM      3  C   UNL     1       7.411   5.943  17.612  0.00  0.00    +0.000 C 
ATOM      4  C   UNL     1       6.858   5.308  16.310  0.00  0.00    +0.000 C 
ATOM      5  C   UNL     1       5.629   4.648  16.780  0.00  0.00    +0.000 A 
ATOM      6  N   UNL     1       4.591   4.070  16.237  0.00  0.00    +0.000 NA
ATOM      7  C   UNL     1       3.842   3.654  17.324  0.00  0.00    +0.000 A 
ATOM      8  C   UNL     1       2.606   2.992  17.352  0.00  0.00    +0.000 A 
ATOM      9  C   UNL     1       2.035   2.678  18.594  0.00  0.00    +0.000 A 
ATOM     10  C   UNL     1       2.687   3.012  19.784  0.00  0.00    +0.000 A 
ATOM     11 CL   UNL     1       1.950   2.616  21.290  0.00  0.00    +0.000 Cl
ATOM     12  C   UNL     1       3.921   3.671  19.787  0.00  0.00    +0.000 A 
ATOM     13  C   UNL     1       4.464   3.978  18.536  0.00  0.00    +0.000 A 
ATOM     14  N   UNL     1       5.590   4.633  18.135  0.00  0.00    +0.000 N 
ENDROOT
TORSDOF 0
ENDMDL
MODEL 3
REMARK VINA RESULT:      -6.7      1.690      1.807
REMARK  Name = 
REMARK  0 active torsions:
REMARK  status: ('A' for Active; 'I' for Inactive)
REMARK                            x       y       z     vdW  Elec       q    Type
REMARK                         _______ _______ _______ _____ _____    ______ ____
ROOT
ATOM      1  O   UNL     1       1.644   3.642  17.228  0.00  0.00    +0.000 OA
ATOM      2  C   UNL     1       2.147   4.076  18.246  0.00  0.00    +0.000 C 
ATOM      3  C   UNL     1       1.524   4.517  19.557  0.00  0.00    +0.000 C 
ATOM      4  C   UNL     1       2.715   4.750  20.521  0.00  0.00    +0.000 C 
ATOM      5  C   UNL     1       3.863   4.777  19.600  0.00  0.00    +0.000 A 
ATOM      6  N   UNL     1       5.132   5.083  19.667  0.00  0.00    +0.000 NA
ATOM      7  C   UNL     1       5.597   4.834  18.387  0.00  0.00    +0.000 A 
ATOM      8  C   UNL     1       6.885   5.004  17.860  0.00  0.00    +0.000 A 
ATOM      9  C   UNL     1       7.112   4.686  16.514  0.00  0.00    +0.000 A 
ATOM     10  C   UNL     1       6.077   4.201  15.710  0.00  0.00    +0.000 A 
ATOM     11 CL   UNL     1       6.393   3.829  14.058  0.00  0.00    +0.000 Cl
ATOM     12  C   UNL     1       4.782   4.021  16.209  0.00  0.00    +0.000 A 
ATOM     13  C   UNL     1       4.582   4.352  17.552  0.00  0.00    +0.000 A 
ATOM     14  N   UNL     1       3.489   4.357  18.366  0.00  0.00    +0.000 N 
ENDROOT
TORSDOF 0
ENDMDL
MODEL 4
REMARK VINA RESULT:      -6.6      2.102      2.600
REMARK  Name = 
REMARK  0 active torsions:
REMARK  status: ('A' for Active; 'I' for Inactive)
REMARK                            x       y       z     vdW  Elec       q    Type
REMARK                         _______ _______ _______ _____ _____    ______ ____
ROOT
ATOM      1  O   UNL     1       2.600   4.384  21.394  0.00  0.00    +0.000 OA
ATOM      2  C   UNL     1       2.106   3.820  20.438  0.00  0.00    +0.000 C 
ATOM      3  C   UNL     1       0.879   2.934  20.327  0.00  0.00    +0.000 C 
ATOM      4  C   UNL     1       0.664   2.718  18.807  0.00  0.00    +0.000 C 
ATOM      5  C   UNL     1       1.944   3.173  18.241  0.00  0.00    +0.000 A 
ATOM      6  N   UNL     1       2.538   3.137  17.078  0.00  0.00    +0.000 NA
ATOM      7  C   UNL     1       3.733   3.800  17.299  0.00  0.00    +0.000 A 
ATOM      8  C   UNL     1       4.790   4.049  16.413  0.00  0.00    +0.000 A 
ATOM      9  C   UNL     1       5.914   4.745  16.879  0.00  0.00    +0.000 A 
ATOM     10  C   UNL     1       5.981   5.189  18.202  0.00  0.00    +0.000 A 
ATOM     11 CL   UNL     1       7.382   6.034  18.740  0.00  0.00    +0.000 Cl
ATOM     12  C   UNL     1       4.941   4.956  19.109  0.00  0.00    +0.000 A 
ATOM     13  C   UNL     1       3.835   4.255  18.620  0.00  0.00    +0.000 A 
ATOM     14  N   UNL     1       2.680   3.809  19.187  0.00  0.00    +0.000 N 
ENDROOT
TORSDOF 0
ENDMDL
MODEL 5
REMARK VINA RESULT:      -6.5      3.315      4.890
REMARK  Name = 
REMARK  0 active torsions:
REMARK  status: ('A' for Active; 'I' for Inactive)
REMARK                            x       y       z     vdW  Elec       q    Type
REMARK                         _______ _______ _______ _____ _____    ______ ____
ROOT
ATOM      1  O   UNL     1       7.410   5.126  20.107  0.00  0.00    +0.000 OA
ATOM      2  C   UNL     1       7.089   5.765  19.123  0.00  0.00    +0.000 C 
ATOM      3  C   UNL     1       7.849   6.802  18.316  0.00  0.00    +0.000 C 
ATOM      4  C   UNL     1       6.975   7.068  17.064  0.00  0.00    +0.000 C 
ATOM      5  C   UNL     1       5.688   6.464  17.445  0.00  0.00    +0.000 A 
ATOM      6  N   UNL     1       4.468   6.444  16.976  0.00  0.00    +0.000 NA
ATOM      7  C   UNL     1       3.788   5.631  17.866  0.00  0.00    +0.000 A 
ATOM      8  C   UNL     1       2.435   5.264  17.881  0.00  0.00    +0.000 A 
ATOM      9  C   UNL     1       1.973   4.424  18.903  0.00  0.00    +0.000 A 
ATOM     10  C   UNL     1       2.845   3.953  19.889  0.00  0.00    +0.000 A 
ATOM     11 CL   UNL     1       2.237   2.928  21.133  0.00  0.00    +0.000 Cl
ATOM     12  C   UNL     1       4.200   4.300  19.899  0.00  0.00    +0.000 A 
ATOM     13  C   UNL     1       4.632   5.145  18.872  0.00  0.00    +0.000 A 
ATOM     14  N   UNL     1       5.828   5.724  18.573  0.00  0.00    +0.000 N 
ENDROOT
TORSDOF 0
ENDMDL
MODEL 6
REMARK VINA RESULT:      -6.5      1.761      1.776
REMARK  Name = 
REMARK  0 active torsions:
REMARK  status: ('A' for Active; 'I' for Inactive)
REMARK                            x       y       z     vdW  Elec       q    Type
REMARK                         _______ _______ _______ _____ _____    ______ ____
ROOT
ATOM      1  O   UNL     1       3.987   2.175  21.104  0.00  0.00    +0.000 OA
ATOM      2  C   UNL     1       3.050   2.864  20.749  0.00  0.00    +0.000 C 
ATOM      3  C   UNL     1       1.568   2.767  21.059  0.00  0.00    +0.000 C 
ATOM      4  C   UNL     1       0.943   4.067  20.489  0.00  0.00    +0.000 C 
ATOM      5  C   UNL     1       2.019   4.578  19.623  0.00  0.00    +0.000 A 
ATOM      6  N   UNL     1       2.153   5.517  18.724  0.00  0.00    +0.000 NA
ATOM      7  C   UNL     1       3.482   5.424  18.350  0.00  0.00    +0.000 A 
ATOM      8  C   UNL     1       4.193   6.168  17.397  0.00  0.00    +0.000 A 
ATOM      9  C   UNL     1       5.549   5.881  17.189  0.00  0.00    +0.000 A 
ATOM     10  C   UNL     1       6.187   4.876  17.921  0.00  0.00    +0.000 A 
ATOM     11 CL   UNL     1       7.853   4.548  17.631  0.00  0.00    +0.000 Cl
ATOM     12  C   UNL     1       5.504   4.119  18.879  0.00  0.00    +0.000 A 
ATOM     13  C   UNL     1       4.152   4.421  19.062  0.00  0.00    +0.000 A 
ATOM     14  N   UNL     1       3.169   3.894  19.844  0.00  0.00    +0.000 N 
ENDROOT
TORSDOF 0
ENDMDL
MODEL 7
REMARK VINA RESULT:      -6.4      1.461      1.468
REMARK  Name = 
REMARK  0 active torsions:
REMARK  status: ('A' for Active; 'I' for Inactive)
REMARK                            x       y       z     vdW  Elec       q    Type
REMARK                         _______ _______ _______ _____ _____    ______ ____
ROOT
ATOM      1  O   UNL     1       4.728   2.007  19.997  0.00  0.00    +0.000 OA
ATOM      2  C   UNL     1       3.871   2.828  20.257  0.00  0.00    +0.000 C 
ATOM      3  C   UNL     1       2.678   2.762  21.193  0.00  0.00    +0.000 C 
ATOM      4  C   UNL     1       2.113   4.205  21.241  0.00  0.00    +0.000 C 
ATOM      5  C   UNL     1       2.780   4.841  20.093  0.00  0.00    +0.000 A 
ATOM      6  N   UNL     1       2.677   5.965  19.434  0.00  0.00    +0.000 NA
ATOM      7  C   UNL     1       3.673   5.876  18.477  0.00  0.00    +0.000 A 
ATOM      8  C   UNL     1       4.021   6.784  17.467  0.00  0.00    +0.000 A 
ATOM      9  C   UNL     1       5.077   6.463  16.603  0.00  0.00    +0.000 A 
ATOM     10  C   UNL     1       5.777   5.262  16.746  0.00  0.00    +0.000 A 
ATOM     11 CL   UNL     1       7.064   4.900  15.660  0.00  0.00    +0.000 Cl
ATOM     12  C   UNL     1       5.453   4.337  17.745  0.00  0.00    +0.000 A 
ATOM     13  C   UNL     1       4.392   4.679  18.588  0.00  0.00    +0.000 A 
ATOM     14  N   UNL     1       3.768   4.043  19.618  0.00  0.00    +0.000 N 
ENDROOT
TORSDOF 0
ENDMDL
MODEL 8
REMARK VINA RESULT:      -6.3      2.038      2.159
REMARK  Name = 
REMARK  0 active torsions:
REMARK  status: ('A' for Active; 'I' for Inactive)
REMARK                            x       y       z     vdW  Elec       q    Type
REMARK                         _______ _______ _______ _____ _____    ______ ____
ROOT
ATOM      1  O   UNL     1       4.192   2.211  20.508  0.00  0.00    +0.000 OA
ATOM      2  C   UNL     1       3.232   2.638  19.898  0.00  0.00    +0.000 C 
ATOM      3  C   UNL     1       1.841   2.065  19.700  0.00  0.00    +0.000 C 
ATOM      4  C   UNL     1       1.025   3.193  19.017  0.00  0.00    +0.000 C 
ATOM      5  C   UNL     1       2.080   4.121  18.578  0.00  0.00    +0.000 A 
ATOM      6  N   UNL     1       2.160   5.180  17.816  0.00  0.00    +0.000 NA
ATOM      7  C   UNL     1       3.495   5.540  17.895  0.00  0.00    +0.000 A 
ATOM      8  C   UNL     1       4.172   6.593  17.264  0.00  0.00    +0.000 A 
ATOM      9  C   UNL     1       5.545   6.752  17.499  0.00  0.00    +0.000 A 
ATOM     10  C   UNL     1       6.228   5.881  18.352  0.00  0.00    +0.000 A 
ATOM     11 CL   UNL     1       7.917   6.105  18.609  0.00  0.00    +0.000 Cl
ATOM     12  C   UNL     1       5.579   4.823  18.997  0.00  0.00    +0.000 A 
ATOM     13  C   UNL     1       4.212   4.683  18.740  0.00  0.00    +0.000 A 
ATOM     14  N   UNL     1       3.270   3.780  19.131  0.00  0.00    +0.000 N 
ENDROOT
TORSDOF 0
ENDMDL
MODEL 9
REMARK VINA RESULT:      -6.2      3.134      5.044
REMARK  Name = 
REMARK  0 active torsions:
REMARK  status: ('A' for Active; 'I' for Inactive)
REMARK                            x       y       z     vdW  Elec       q    Type
REMARK                         _______ _______ _______ _____ _____    ______ ____
ROOT
ATOM      1  O   UNL     1       5.188   7.103  15.409  0.00  0.00    +0.000 OA
ATOM      2  C   UNL     1       5.276   5.902  15.577  0.00  0.00    +0.000 C 
ATOM      3  C   UNL     1       5.877   4.815  14.706  0.00  0.00    +0.000 C 
ATOM      4  C   UNL     1       5.871   3.536  15.583  0.00  0.00    +0.000 C 
ATOM      5  C   UNL     1       4.970   3.915  16.684  0.00  0.00    +0.000 A 
ATOM      6  N   UNL     1       4.378   3.312  17.681  0.00  0.00    +0.000 NA
ATOM      7  C   UNL     1       3.698   4.332  18.323  0.00  0.00    +0.000 A 
ATOM      8  C   UNL     1       2.867   4.276  19.451  0.00  0.00    +0.000 A 
ATOM      9  C   UNL     1       2.277   5.459  19.917  0.00  0.00    +0.000 A 
ATOM     10  C   UNL     1       2.516   6.677  19.274  0.00  0.00    +0.000 A 
ATOM     11 CL   UNL     1       1.766   8.108  19.872  0.00  0.00    +0.000 Cl
ATOM     12  C   UNL     1       3.341   6.764  18.148  0.00  0.00    +0.000 A 
ATOM     13  C   UNL     1       3.911   5.568  17.701  0.00  0.00    +0.000 A 
ATOM     14  N   UNL     1       4.710   5.245  16.645  0.00  0.00    +0.000 N 
ENDROOT
TORSDOF 0
ENDMDL
