MODEL 1
REMARK VINA RESULT:      -6.5      0.000      0.000
REMARK  Name = 
REMARK  10 active torsions:
REMARK  status: ('A' for Active; 'I' for Inactive)
REMARK    1  A    between atoms: C_1  and  C_2
REMARK    2  A    between atoms: C_2  and  C_3
REMARK    3  A    between atoms: C_2  and  C_4
REMARK    4  A    between atoms: C_4  and  O_5
REMARK    5  A    between atoms: O_5  and  C_6
REMARK    6  A    between atoms: C_6  and  C_7
REMARK    7  A    between atoms: C_7  and  O_8
REMARK    8  A    between atoms: O_8  and  C_9
REMARK    9  A    between atoms: C_12  and  C_13
REMARK   10  A    between atoms: C_13  and  C_14
REMARK                            x       y       z     vdW  Elec       q    Type
REMARK                         _______ _______ _______ _____ _____    ______ ____
ROOT
ATOM      1  C   UNL     1       3.264   6.028  19.196  0.00  0.00    +0.000 A 
ATOM      2  C   UNL     1       3.365   6.841  18.067  0.00  0.00    +0.000 A 
ATOM      3  C   UNL     1       4.510   6.826  17.278  0.00  0.00    +0.000 A 
ATOM      4  C   UNL     1       5.585   5.990  17.592  0.00  0.00    +0.000 A 
ATOM      5  C   UNL     1       5.495   5.185  18.737  0.00  0.00    +0.000 A 
ATOM      6  C   UNL     1       4.340   5.204  19.531  0.00  0.00    +0.000 A 
ENDROOT
BRANCH   1   7
ATOM      7  O   UNL     1       2.171   5.966  20.026  0.00  0.00    +0.000 OA
BRANCH   7   8
ATOM      8  C   UNL     1       2.170   4.852  20.923  0.00  0.00    +0.000 C 
BRANCH   8   9
ATOM      9  C   UNL     1       1.042   3.888  20.601  0.00  0.00    +0.000 C 
BRANCH   9  10
ATOM     10  O   UNL     1       1.628   2.695  20.072  0.00  0.00    +0.000 OA
BRANCH  10  11
ATOM     11  C   UNL     1       1.133   2.395  18.772  0.00  0.00    +0.000 C 
BRANCH  11  13
ATOM     12  C   UNL     1       2.605   3.362  16.998  0.00  0.00    +0.000 C 
ATOM     13  C   UNL     1       2.301   2.113  17.821  0.00  0.00    +0.000 C 
ATOM     14  C   UNL     1       3.552   1.650  18.573  0.00  0.00    +0.000 C 
ENDBRANCH  11  13
ENDBRANCH  10  11
ENDBRANCH   9  10
ENDBRANCH   8   9
ENDBRANCH   7   8
ENDBRANCH   1   7
BRANCH   4  15
ATOM     15  C   UNL     1       6.790   5.965  16.688  0.00  0.00    +0.000 C 
BRANCH  15  16
ATOM     16  C   UNL     1       6.613   5.171  15.417  0.00  0.00    +0.000 A 
ATOM     17  C   UNL     1       5.541   4.277  15.289  0.00  0.00    +0.000 A 
ATOM     18  C   UNL     1       5.332   3.591  14.092  0.00  0.00    +0.000 A 
ATOM     19  C   UNL     1       6.196   3.780  13.016  0.00  0.00    +0.000 A 
ATOM     20  C   UNL     1       7.285   4.642  13.141  0.00  0.00    +0.000 A 
ATOM     21  C   UNL     1       7.496   5.330  14.338  0.00  0.00    +0.000 A 
ENDBRANCH  15  16
ENDBRANCH   4  15
TORSDOF 8
ENDMDL
MODEL 2
REMARK VINA RESULT:      -6.4      4.072      7.898
REMARK  Name = 
REMARK  10 active torsions:
REMARK  status: ('A' for Active; 'I' for Inactive)
REMARK    1  A    between atoms: C_1  and  C_2
REMARK    2  A    between atoms: C_2  and  C_3
REMARK    3  A    between atoms: C_2  and  C_4
REMARK    4  A    between atoms: C_4  and  O_5
REMARK    5  A    between atoms: O_5  and  C_6
REMARK    6  A    between atoms: C_6  and  C_7
REMARK    7  A    between atoms: C_7  and  O_8
REMARK    8  A    between atoms: O_8  and  C_9
REMARK    9  A    between atoms: C_12  and  C_13
REMARK   10  A    between atoms: C_13  and  C_14
REMARK                            x       y       z     vdW  Elec       q    Type
REMARK                         _______ _______ _______ _____ _____    ______ ____
ROOT
ATOM      1  C   UNL     1       6.329   6.268  16.770  0.00  0.00    +0.000 A 
ATOM      2  C   UNL     1       6.466   4.922  16.428  0.00  0.00    +0.000 A 
ATOM      3  C   UNL     1       5.415   4.030  16.609  0.00  0.00    +0.000 A 
ATOM      4  C   UNL     1       4.193   4.461  17.132  0.00  0.00    +0.000 A 
ATOM      5  C   UNL     1       4.058   5.809  17.496  0.00  0.00    +0.000 A 
ATOM      6  C   UNL     1       5.120   6.705  17.313  0.00  0.00    +0.000 A 
ENDROOT
BRANCH   1   7
ATOM      7  O   UNL     1       7.305   7.222  16.616  0.00  0.00    +0.000 OA
BRANCH   7   8
ATOM      8  C   UNL     1       7.885   7.680  17.840  0.00  0.00    +0.000 C 
BRANCH   8   9
ATOM      9  C   UNL     1       8.017   9.193  17.855  0.00  0.00    +0.000 C 
BRANCH   9  10
ATOM     10  O   UNL     1       8.968   9.535  18.867  0.00  0.00    +0.000 OA
BRANCH  10  11
ATOM     11  C   UNL     1       9.714  10.696  18.519  0.00  0.00    +0.000 C 
BRANCH  11  13
ATOM     12  C   UNL     1       9.715  11.549  20.868  0.00  0.00    +0.000 C 
ATOM     13  C   UNL     1       9.317  11.863  19.428  0.00  0.00    +0.000 C 
ATOM     14  C   UNL     1       9.947  13.182  18.975  0.00  0.00    +0.000 C 
ENDBRANCH  11  13
ENDBRANCH  10  11
ENDBRANCH   9  10
ENDBRANCH   8   9
ENDBRANCH   7   8
ENDBRANCH   1   7
BRANCH   4  15
ATOM     15  C   UNL     1       3.060   3.477  17.271  0.00  0.00    +0.000 C 
BRANCH  15  16
ATOM     16  C   UNL     1       2.528   3.315  18.674  0.00  0.00    +0.000 A 
ATOM     17  C   UNL     1       3.344   2.777  19.678  0.00  0.00    +0.000 A 
ATOM     18  C   UNL     1       2.883   2.688  20.992  0.00  0.00    +0.000 A 
ATOM     19  C   UNL     1       1.599   3.123  21.314  0.00  0.00    +0.000 A 
ATOM     20  C   UNL     1       0.766   3.631  20.319  0.00  0.00    +0.000 A 
ATOM     21  C   UNL     1       1.226   3.721  19.003  0.00  0.00    +0.000 A 
ENDBRANCH  15  16
ENDBRANCH   4  15
TORSDOF 8
ENDMDL
MODEL 3
REMARK VINA RESULT:      -6.4      4.182      7.886
REMARK  Name = 
REMARK  10 active torsions:
REMARK  status: ('A' for Active; 'I' for Inactive)
REMARK    1  A    between atoms: C_1  and  C_2
REMARK    2  A    between atoms: C_2  and  C_3
REMARK    3  A    between atoms: C_2  and  C_4
REMARK    4  A    between atoms: C_4  and  O_5
REMARK    5  A    between atoms: O_5  and  C_6
REMARK    6  A    between atoms: C_6  and  C_7
REMARK    7  A    between atoms: C_7  and  O_8
REMARK    8  A    between atoms: O_8  and  C_9
REMARK    9  A    between atoms: C_12  and  C_13
REMARK   10  A    between atoms: C_13  and  C_14
REMARK                            x       y       z     vdW  Elec       q    Type
REMARK                         _______ _______ _______ _____ _____    ______ ____
ROOT
ATOM      1  C   UNL     1       6.577   6.291  16.878  0.00  0.00    +0.000 A 
ATOM      2  C   UNL     1       5.857   5.763  15.805  0.00  0.00    +0.000 A 
ATOM      3  C   UNL     1       4.967   4.710  15.992  0.00  0.00    +0.000 A 
ATOM      4  C   UNL     1       4.767   4.160  17.261  0.00  0.00    +0.000 A 
ATOM      5  C   UNL     1       5.504   4.674  18.339  0.00  0.00    +0.000 A 
ATOM      6  C   UNL     1       6.400   5.735  18.146  0.00  0.00    +0.000 A 
ENDROOT
BRANCH   1   7
ATOM      7  O   UNL     1       7.466   7.334  16.791  0.00  0.00    +0.000 OA
BRANCH   7   8
ATOM      8  C   UNL     1       7.954   7.802  18.051  0.00  0.00    +0.000 C 
BRANCH   8   9
ATOM      9  C   UNL     1       8.288   9.283  17.996  0.00  0.00    +0.000 C 
BRANCH   9  10
ATOM     10  O   UNL     1       9.238   9.551  19.032  0.00  0.00    +0.000 OA
BRANCH  10  11
ATOM     11  C   UNL     1       9.301  10.938  19.344  0.00  0.00    +0.000 C 
BRANCH  11  13
ATOM     12  C   UNL     1      11.295  11.660  18.021  0.00  0.00    +0.000 C 
ATOM     13  C   UNL     1      10.763  11.388  19.426  0.00  0.00    +0.000 C 
ATOM     14  C   UNL     1      10.932  12.626  20.310  0.00  0.00    +0.000 C 
ENDBRANCH  11  13
ENDBRANCH  10  11
ENDBRANCH   9  10
ENDBRANCH   8   9
ENDBRANCH   7   8
ENDBRANCH   1   7
BRANCH   4  15
ATOM     15  C   UNL     1       3.761   3.052  17.436  0.00  0.00    +0.000 C 
BRANCH  15  16
ATOM     16  C   UNL     1       2.798   3.244  18.582  0.00  0.00    +0.000 A 
ATOM     17  C   UNL     1       2.667   2.253  19.565  0.00  0.00    +0.000 A 
ATOM     18  C   UNL     1       1.830   2.454  20.663  0.00  0.00    +0.000 A 
ATOM     19  C   UNL     1       1.107   3.638  20.786  0.00  0.00    +0.000 A 
ATOM     20  C   UNL     1       1.204   4.618  19.799  0.00  0.00    +0.000 A 
ATOM     21  C   UNL     1       2.041   4.420  18.699  0.00  0.00    +0.000 A 
ENDBRANCH  15  16
ENDBRANCH   4  15
TORSDOF 8
ENDMDL
MODEL 4
REMARK VINA RESULT:      -6.3      4.384      8.179
REMARK  Name = 
REMARK  10 active torsions:
REMARK  status: ('A' for Active; 'I' for Inactive)
REMARK    1  A    between atoms: C_1  and  C_2
REMARK    2  A    between atoms: C_2  and  C_3
REMARK    3  A    between atoms: C_2  and  C_4
REMARK    4  A    between atoms: C_4  and  O_5
REMARK    5  A    between atoms: O_5  and  C_6
REMARK    6  A    between atoms: C_6  and  C_7
REMARK    7  A    between atoms: C_7  and  O_8
REMARK    8  A    between atoms: O_8  and  C_9
REMARK    9  A    between atoms: C_12  and  C_13
REMARK   10  A    between atoms: C_13  and  C_14
REMARK                            x       y       z     vdW  Elec       q    Type
REMARK                         _______ _______ _______ _____ _____    ______ ____
ROOT
ATOM      1  C   UNL     1       6.875   6.615  17.189  0.00  0.00    +0.000 A 
ATOM      2  C   UNL     1       7.096   5.577  18.096  0.00  0.00    +0.000 A 
ATOM      3  C   UNL     1       6.172   4.547  18.238  0.00  0.00    +0.000 A 
ATOM      4  C   UNL     1       5.004   4.522  17.472  0.00  0.00    +0.000 A 
ATOM      5  C   UNL     1       4.769   5.574  16.574  0.00  0.00    +0.000 A 
ATOM      6  C   UNL     1       5.702   6.611  16.433  0.00  0.00    +0.000 A 
ENDROOT
BRANCH   1   7
ATOM      7  O   UNL     1       7.734   7.665  16.971  0.00  0.00    +0.000 OA
BRANCH   7   8
ATOM      8  C   UNL     1       8.218   8.291  18.162  0.00  0.00    +0.000 C 
BRANCH   8   9
ATOM      9  C   UNL     1       8.181   9.805  18.041  0.00  0.00    +0.000 C 
BRANCH   9  10
ATOM     10  O   UNL     1       9.372  10.317  18.648  0.00  0.00    +0.000 OA
BRANCH  10  11
ATOM     11  C   UNL     1       9.855  11.471  17.970  0.00  0.00    +0.000 C 
BRANCH  11  13
ATOM     12  C   UNL     1      11.883  12.829  17.431  0.00  0.00    +0.000 C 
ATOM     13  C   UNL     1      11.363  11.619  18.203  0.00  0.00    +0.000 C 
ATOM     14  C   UNL     1      11.702  11.746  19.690  0.00  0.00    +0.000 C 
ENDBRANCH  11  13
ENDBRANCH  10  11
ENDBRANCH   9  10
ENDBRANCH   8   9
ENDBRANCH   7   8
ENDBRANCH   1   7
BRANCH   4  15
ATOM     15  C   UNL     1       4.048   3.366  17.618  0.00  0.00    +0.000 C 
BRANCH  15  16
ATOM     16  C   UNL     1       3.073   3.490  18.764  0.00  0.00    +0.000 A 
ATOM     17  C   UNL     1       2.676   4.756  19.215  0.00  0.00    +0.000 A 
ATOM     18  C   UNL     1       1.723   4.878  20.228  0.00  0.00    +0.000 A 
ATOM     19  C   UNL     1       1.169   3.740  20.809  0.00  0.00    +0.000 A 
ATOM     20  C   UNL     1       1.579   2.475  20.391  0.00  0.00    +0.000 A 
ATOM     21  C   UNL     1       2.532   2.350  19.377  0.00  0.00    +0.000 A 
ENDBRANCH  15  16
ENDBRANCH   4  15
TORSDOF 8
ENDMDL
MODEL 5
REMARK VINA RESULT:      -6.3      4.114      7.916
REMARK  Name = 
REMARK  10 active torsions:
REMARK  status: ('A' for Active; 'I' for Inactive)
REMARK    1  A    between atoms: C_1  and  C_2
REMARK    2  A    between atoms: C_2  and  C_3
REMARK    3  A    between atoms: C_2  and  C_4
REMARK    4  A    between atoms: C_4  and  O_5
REMARK    5  A    between atoms: O_5  and  C_6
REMARK    6  A    between atoms: C_6  and  C_7
REMARK    7  A    between atoms: C_7  and  O_8
REMARK    8  A    between atoms: O_8  and  C_9
REMARK    9  A    between atoms: C_12  and  C_13
REMARK   10  A    between atoms: C_13  and  C_14
REMARK                            x       y       z     vdW  Elec       q    Type
REMARK                         _______ _______ _______ _____ _____    ______ ____
ROOT
ATOM      1  C   UNL     1       6.341   6.348  16.884  0.00  0.00    +0.000 A 
ATOM      2  C   UNL     1       5.088   6.653  17.417  0.00  0.00    +0.000 A 
ATOM      3  C   UNL     1       4.082   5.695  17.467  0.00  0.00    +0.000 A 
ATOM      4  C   UNL     1       4.303   4.399  16.991  0.00  0.00    +0.000 A 
ATOM      5  C   UNL     1       5.555   4.094  16.436  0.00  0.00    +0.000 A 
ATOM      6  C   UNL     1       6.567   5.064  16.386  0.00  0.00    +0.000 A 
ENDROOT
BRANCH   1   7
ATOM      7  O   UNL     1       7.397   7.224  16.804  0.00  0.00    +0.000 OA
BRANCH   7   8
ATOM      8  C   UNL     1       7.333   8.314  17.726  0.00  0.00    +0.000 C 
BRANCH   8   9
ATOM      9  C   UNL     1       8.516   9.251  17.553  0.00  0.00    +0.000 C 
BRANCH   9  10
ATOM     10  O   UNL     1       8.838   9.784  18.841  0.00  0.00    +0.000 OA
BRANCH  10  11
ATOM     11  C   UNL     1       9.256  11.142  18.761  0.00  0.00    +0.000 C 
BRANCH  11  13
ATOM     12  C   UNL     1      11.492  11.885  17.928  0.00  0.00    +0.000 C 
ATOM     13  C   UNL     1      10.747  11.249  19.099  0.00  0.00    +0.000 C 
ATOM     14  C   UNL     1      10.986  12.049  20.382  0.00  0.00    +0.000 C 
ENDBRANCH  11  13
ENDBRANCH  10  11
ENDBRANCH   9  10
ENDBRANCH   8   9
ENDBRANCH   7   8
ENDBRANCH   1   7
BRANCH   4  15
ATOM     15  C   UNL     1       3.206   3.372  17.104  0.00  0.00    +0.000 C 
BRANCH  15  16
ATOM     16  C   UNL     1       2.599   3.242  18.479  0.00  0.00    +0.000 A 
ATOM     17  C   UNL     1       3.388   2.828  19.561  0.00  0.00    +0.000 A 
ATOM     18  C   UNL     1       2.851   2.771  20.847  0.00  0.00    +0.000 A 
ATOM     19  C   UNL     1       1.518   3.114  21.065  0.00  0.00    +0.000 A 
ATOM     20  C   UNL     1       0.714   3.497  19.993  0.00  0.00    +0.000 A 
ATOM     21  C   UNL     1       1.250   3.555  18.704  0.00  0.00    +0.000 A 
ENDBRANCH  15  16
ENDBRANCH   4  15
TORSDOF 8
ENDMDL
MODEL 6
REMARK VINA RESULT:      -6.3      2.530      6.472
REMARK  Name = 
REMARK  10 active torsions:
REMARK  status: ('A' for Active; 'I' for Inactive)
REMARK    1  A    between atoms: C_1  and  C_2
REMARK    2  A    between atoms: C_2  and  C_3
REMARK    3  A    between atoms: C_2  and  C_4
REMARK    4  A    between atoms: C_4  and  O_5
REMARK    5  A    between atoms: O_5  and  C_6
REMARK    6  A    between atoms: C_6  and  C_7
REMARK    7  A    between atoms: C_7  and  O_8
REMARK    8  A    between atoms: O_8  and  C_9
REMARK    9  A    between atoms: C_12  and  C_13
REMARK   10  A    between atoms: C_13  and  C_14
REMARK                            x       y       z     vdW  Elec       q    Type
REMARK                         _______ _______ _______ _____ _____    ______ ____
ROOT
ATOM      1  C   UNL     1       5.727   6.195  16.718  0.00  0.00    +0.000 A 
ATOM      2  C   UNL     1       4.583   6.980  16.570  0.00  0.00    +0.000 A 
ATOM      3  C   UNL     1       3.593   6.988  17.546  0.00  0.00    +0.000 A 
ATOM      4  C   UNL     1       3.723   6.217  18.704  0.00  0.00    +0.000 A 
ATOM      5  C   UNL     1       4.862   5.411  18.848  0.00  0.00    +0.000 A 
ATOM      6  C   UNL     1       5.858   5.405  17.862  0.00  0.00    +0.000 A 
ENDROOT
BRANCH   1   7
ATOM      7  O   UNL     1       6.761   6.132  15.816  0.00  0.00    +0.000 OA
BRANCH   7   8
ATOM      8  C   UNL     1       7.093   4.809  15.388  0.00  0.00    +0.000 C 
BRANCH   8   9
ATOM      9  C   UNL     1       5.848   4.017  15.029  0.00  0.00    +0.000 C 
BRANCH   9  10
ATOM     10  O   UNL     1       5.613   4.192  13.629  0.00  0.00    +0.000 OA
BRANCH  10  11
ATOM     11  C   UNL     1       6.453   3.354  12.844  0.00  0.00    +0.000 C 
BRANCH  11  13
ATOM     12  C   UNL     1       5.887   1.446  11.332  0.00  0.00    +0.000 C 
ATOM     13  C   UNL     1       5.729   2.948  11.556  0.00  0.00    +0.000 C 
ATOM     14  C   UNL     1       4.247   3.330  11.588  0.00  0.00    +0.000 C 
ENDBRANCH  11  13
ENDBRANCH  10  11
ENDBRANCH   9  10
ENDBRANCH   8   9
ENDBRANCH   7   8
ENDBRANCH   1   7
BRANCH   4  15
ATOM     15  C   UNL     1       2.652   6.287  19.763  0.00  0.00    +0.000 C 
BRANCH  15  16
ATOM     16  C   UNL     1       2.124   4.949  20.219  0.00  0.00    +0.000 A 
ATOM     17  C   UNL     1       1.272   4.208  19.389  0.00  0.00    +0.000 A 
ATOM     18  C   UNL     1       0.834   2.941  19.776  0.00  0.00    +0.000 A 
ATOM     19  C   UNL     1       1.232   2.406  20.999  0.00  0.00    +0.000 A 
ATOM     20  C   UNL     1       2.053   3.145  21.848  0.00  0.00    +0.000 A 
ATOM     21  C   UNL     1       2.493   4.414  21.463  0.00  0.00    +0.000 A 
ENDBRANCH  15  16
ENDBRANCH   4  15
TORSDOF 8
ENDMDL
MODEL 7
REMARK VINA RESULT:      -6.3      2.509      6.452
REMARK  Name = 
REMARK  10 active torsions:
REMARK  status: ('A' for Active; 'I' for Inactive)
REMARK    1  A    between atoms: C_1  and  C_2
REMARK    2  A    between atoms: C_2  and  C_3
REMARK    3  A    between atoms: C_2  and  C_4
REMARK    4  A    between atoms: C_4  and  O_5
REMARK    5  A    between atoms: O_5  and  C_6
REMARK    6  A    between atoms: C_6  and  C_7
REMARK    7  A    between atoms: C_7  and  O_8
REMARK    8  A    between atoms: O_8  and  C_9
REMARK    9  A    between atoms: C_12  and  C_13
REMARK   10  A    between atoms: C_13  and  C_14
REMARK                            x       y       z     vdW  Elec       q    Type
REMARK                         _______ _______ _______ _____ _____    ______ ____
ROOT
ATOM      1  C   UNL     1       6.244   6.015  16.796  0.00  0.00    +0.000 A 
ATOM      2  C   UNL     1       6.144   5.328  18.007  0.00  0.00    +0.000 A 
ATOM      3  C   UNL     1       5.004   5.434  18.795  0.00  0.00    +0.000 A 
ATOM      4  C   UNL     1       3.925   6.224  18.390  0.00  0.00    +0.000 A 
ATOM      5  C   UNL     1       4.028   6.931  17.182  0.00  0.00    +0.000 A 
ATOM      6  C   UNL     1       5.180   6.824  16.392  0.00  0.00    +0.000 A 
ENDROOT
BRANCH   1   7
ATOM      7  O   UNL     1       7.323   5.962  15.948  0.00  0.00    +0.000 OA
BRANCH   7   8
ATOM      8  C   UNL     1       7.138   5.123  14.805  0.00  0.00    +0.000 C 
BRANCH   8   9
ATOM      9  C   UNL     1       6.511   3.795  15.193  0.00  0.00    +0.000 C 
BRANCH   9  10
ATOM     10  O   UNL     1       6.089   3.147  13.989  0.00  0.00    +0.000 OA
BRANCH  10  11
ATOM     11  C   UNL     1       5.571   4.076  13.044  0.00  0.00    +0.000 C 
BRANCH  11  13
ATOM     12  C   UNL     1       6.103   2.040  11.697  0.00  0.00    +0.000 C 
ATOM     13  C   UNL     1       5.397   3.393  11.683  0.00  0.00    +0.000 C 
ATOM     14  C   UNL     1       3.922   3.224  11.313  0.00  0.00    +0.000 C 
ENDBRANCH  11  13
ENDBRANCH  10  11
ENDBRANCH   9  10
ENDBRANCH   8   9
ENDBRANCH   7   8
ENDBRANCH   1   7
BRANCH   4  15
ATOM     15  C   UNL     1       2.685   6.278  19.245  0.00  0.00    +0.000 C 
BRANCH  15  16
ATOM     16  C   UNL     1       2.192   4.937  19.732  0.00  0.00    +0.000 A 
ATOM     17  C   UNL     1       2.381   4.561  21.069  0.00  0.00    +0.000 A 
ATOM     18  C   UNL     1       1.867   3.353  21.542  0.00  0.00    +0.000 A 
ATOM     19  C   UNL     1       1.172   2.503  20.685  0.00  0.00    +0.000 A 
ATOM     20  C   UNL     1       1.005   2.851  19.345  0.00  0.00    +0.000 A 
ATOM     21  C   UNL     1       1.517   4.060  18.869  0.00  0.00    +0.000 A 
ENDBRANCH  15  16
ENDBRANCH   4  15
TORSDOF 8
ENDMDL
MODEL 8
REMARK VINA RESULT:      -6.3      2.542      6.337
REMARK  Name = 
REMARK  10 active torsions:
REMARK  status: ('A' for Active; 'I' for Inactive)
REMARK    1  A    between atoms: C_1  and  C_2
REMARK    2  A    between atoms: C_2  and  C_3
REMARK    3  A    between atoms: C_2  and  C_4
REMARK    4  A    between atoms: C_4  and  O_5
REMARK    5  A    between atoms: O_5  and  C_6
REMARK    6  A    between atoms: C_6  and  C_7
REMARK    7  A    between atoms: C_7  and  O_8
REMARK    8  A    between atoms: O_8  and  C_9
REMARK    9  A    between atoms: C_12  and  C_13
REMARK   10  A    between atoms: C_13  and  C_14
REMARK                            x       y       z     vdW  Elec       q    Type
REMARK                         _______ _______ _______ _____ _____    ______ ____
ROOT
ATOM      1  C   UNL     1       6.301   6.024  16.971  0.00  0.00    +0.000 A 
ATOM      2  C   UNL     1       6.156   5.314  18.164  0.00  0.00    +0.000 A 
ATOM      3  C   UNL     1       4.980   5.391  18.901  0.00  0.00    +0.000 A 
ATOM      4  C   UNL     1       3.910   6.176  18.462  0.00  0.00    +0.000 A 
ATOM      5  C   UNL     1       4.059   6.906  17.273  0.00  0.00    +0.000 A 
ATOM      6  C   UNL     1       5.246   6.827  16.533  0.00  0.00    +0.000 A 
ENDROOT
BRANCH   1   7
ATOM      7  O   UNL     1       7.418   6.000  16.171  0.00  0.00    +0.000 OA
BRANCH   7   8
ATOM      8  C   UNL     1       7.508   4.860  15.314  0.00  0.00    +0.000 C 
BRANCH   8   9
ATOM      9  C   UNL     1       6.150   4.206  15.122  0.00  0.00    +0.000 C 
BRANCH   9  10
ATOM     10  O   UNL     1       6.152   3.572  13.839  0.00  0.00    +0.000 OA
BRANCH  10  11
ATOM     11  C   UNL     1       4.911   3.745  13.164  0.00  0.00    +0.000 C 
BRANCH  11  13
ATOM     12  C   UNL     1       5.900   2.103  11.560  0.00  0.00    +0.000 C 
ATOM     13  C   UNL     1       5.067   3.376  11.685  0.00  0.00    +0.000 C 
ATOM     14  C   UNL     1       3.713   3.200  10.993  0.00  0.00    +0.000 C 
ENDBRANCH  11  13
ENDBRANCH  10  11
ENDBRANCH   9  10
ENDBRANCH   8   9
ENDBRANCH   7   8
ENDBRANCH   1   7
BRANCH   4  15
ATOM     15  C   UNL     1       2.633   6.198  19.261  0.00  0.00    +0.000 C 
BRANCH  15  16
ATOM     16  C   UNL     1       1.988   4.849  19.465  0.00  0.00    +0.000 A 
ATOM     17  C   UNL     1       1.544   4.108  18.362  0.00  0.00    +0.000 A 
ATOM     18  C   UNL     1       1.009   2.831  18.538  0.00  0.00    +0.000 A 
ATOM     19  C   UNL     1       0.901   2.287  19.816  0.00  0.00    +0.000 A 
ATOM     20  C   UNL     1       1.310   3.027  20.924  0.00  0.00    +0.000 A 
ATOM     21  C   UNL     1       1.846   4.305  20.751  0.00  0.00    +0.000 A 
ENDBRANCH  15  16
ENDBRANCH   4  15
TORSDOF 8
ENDMDL
MODEL 9
REMARK VINA RESULT:      -6.2      3.002      6.912
REMARK  Name = 
REMARK  10 active torsions:
REMARK  status: ('A' for Active; 'I' for Inactive)
REMARK    1  A    between atoms: C_1  and  C_2
REMARK    2  A    between atoms: C_2  and  C_3
REMARK    3  A    between atoms: C_2  and  C_4
REMARK    4  A    between atoms: C_4  and  O_5
REMARK    5  A    between atoms: O_5  and  C_6
REMARK    6  A    between atoms: C_6  and  C_7
REMARK    7  A    between atoms: C_7  and  O_8
REMARK    8  A    between atoms: O_8  and  C_9
REMARK    9  A    between atoms: C_12  and  C_13
REMARK   10  A    between atoms: C_13  and  C_14
REMARK                            x       y       z     vdW  Elec       q    Type
REMARK                         _______ _______ _______ _____ _____    ______ ____
ROOT
ATOM      1  C   UNL     1       5.890   5.533  16.068  0.00  0.00    +0.000 A 
ATOM      2  C   UNL     1       5.130   4.374  15.907  0.00  0.00    +0.000 A 
ATOM      3  C   UNL     1       3.935   4.202  16.597  0.00  0.00    +0.000 A 
ATOM      4  C   UNL     1       3.462   5.191  17.464  0.00  0.00    +0.000 A 
ATOM      5  C   UNL     1       4.233   6.350  17.644  0.00  0.00    +0.000 A 
ATOM      6  C   UNL     1       5.437   6.518  16.948  0.00  0.00    +0.000 A 
ENDROOT
BRANCH   1   7
ATOM      7  O   UNL     1       7.073   5.795  15.422  0.00  0.00    +0.000 OA
BRANCH   7   8
ATOM      8  C   UNL     1       7.468   4.795  14.479  0.00  0.00    +0.000 C 
BRANCH   8   9
ATOM      9  C   UNL     1       7.613   5.379  13.085  0.00  0.00    +0.000 C 
BRANCH   9  10
ATOM     10  O   UNL     1       7.321   4.338  12.147  0.00  0.00    +0.000 OA
BRANCH  10  11
ATOM     11  C   UNL     1       6.235   3.528  12.580  0.00  0.00    +0.000 C 
BRANCH  11  13
ATOM     12  C   UNL     1       5.810   1.395  11.348  0.00  0.00    +0.000 C 
ATOM     13  C   UNL     1       5.539   2.897  11.369  0.00  0.00    +0.000 C 
ATOM     14  C   UNL     1       4.033   3.169  11.367  0.00  0.00    +0.000 C 
ENDBRANCH  11  13
ENDBRANCH  10  11
ENDBRANCH   9  10
ENDBRANCH   8   9
ENDBRANCH   7   8
ENDBRANCH   1   7
BRANCH   4  15
ATOM     15  C   UNL     1       2.140   4.993  18.160  0.00  0.00    +0.000 C 
BRANCH  15  16
ATOM     16  C   UNL     1       2.186   4.084  19.363  0.00  0.00    +0.000 A 
ATOM     17  C   UNL     1       3.375   3.423  19.701  0.00  0.00    +0.000 A 
ATOM     18  C   UNL     1       3.444   2.635  20.850  0.00  0.00    +0.000 A 
ATOM     19  C   UNL     1       2.325   2.488  21.667  0.00  0.00    +0.000 A 
ATOM     20  C   UNL     1       1.127   3.115  21.325  0.00  0.00    +0.000 A 
ATOM     21  C   UNL     1       1.056   3.904  20.175  0.00  0.00    +0.000 A 
ENDBRANCH  15  16
ENDBRANCH   4  15
TORSDOF 8
ENDMDL
