MODEL 1
REMARK VINA RESULT:      -7.7      0.000      0.000
REMARK  Name = 
REMARK  1 active torsions:
REMARK  status: ('A' for Active; 'I' for Inactive)
REMARK    1  A    between atoms: C_4  and  C_5
REMARK                            x       y       z     vdW  Elec       q    Type
REMARK                         _______ _______ _______ _____ _____    ______ ____
ROOT
ATOM      1  O   UNL     1       6.701   4.224  13.776  0.00  0.00    +0.000 OA
ATOM      2  C   UNL     1       6.495   4.329  14.979  0.00  0.00    +0.000 A 
ATOM      3  C   UNL     1       5.182   3.942  15.572  0.00  0.00    +0.000 A 
ATOM      4  C   UNL     1       4.971   4.052  16.900  0.00  0.00    +0.000 A 
ATOM      5  C   UNL     1       6.046   4.564  17.700  0.00  0.00    +0.000 A 
ATOM      6  C   UNL     1       6.137   4.868  19.143  0.00  0.00    +0.000 A 
ATOM      7  O   UNL     1       5.339   4.570  20.011  0.00  0.00    +0.000 OA
ATOM      8  N   UNL     1       7.361   5.511  19.325  0.00  0.00    +0.000 N 
ATOM      9  N   UNL     1       8.118   5.381  18.149  0.00  0.00    +0.000 N 
ATOM     10  C   UNL     1       7.241   4.906  17.194  0.00  0.00    +0.000 A 
ATOM     11  N   UNL     1       7.450   4.792  15.854  0.00  0.00    +0.000 N 
ATOM     12  H   UNL     1       7.805   5.519  20.235  0.00  0.00    +0.000 HD
ATOM     13  H   UNL     1       8.582   6.240  17.848  0.00  0.00    +0.000 HD
ATOM     14  H   UNL     1       8.346   5.037  15.456  0.00  0.00    +0.000 HD
ENDROOT
BRANCH   4  15
ATOM     15  C   UNL     1       3.666   3.637  17.422  0.00  0.00    +0.000 A 
ATOM     16  C   UNL     1       2.638   4.562  17.583  0.00  0.00    +0.000 A 
ATOM     17  C   UNL     1       1.432   4.129  18.128  0.00  0.00    +0.000 A 
ATOM     18  C   UNL     1       1.288   2.793  18.481  0.00  0.00    +0.000 A 
ATOM     19  C   UNL     1       2.364   1.943  18.284  0.00  0.00    +0.000 A 
ATOM     20  N   UNL     1       3.554   2.336  17.778  0.00  0.00    +0.000 NA
ENDBRANCH   4  15
TORSDOF 1
ENDMDL
MODEL 2
REMARK VINA RESULT:      -7.5      0.681      1.165
REMARK  Name = 
REMARK  1 active torsions:
REMARK  status: ('A' for Active; 'I' for Inactive)
REMARK    1  A    between atoms: C_4  and  C_5
REMARK                            x       y       z     vdW  Elec       q    Type
REMARK                         _______ _______ _______ _____ _____    ______ ____
ROOT
ATOM      1  O   UNL     1       6.694   4.268  13.800  0.00  0.00    +0.000 OA
ATOM      2  C   UNL     1       6.497   4.367  15.005  0.00  0.00    +0.000 A 
ATOM      3  C   UNL     1       5.183   3.991  15.603  0.00  0.00    +0.000 A 
ATOM      4  C   UNL     1       4.983   4.094  16.933  0.00  0.00    +0.000 A 
ATOM      5  C   UNL     1       6.069   4.587  17.730  0.00  0.00    +0.000 A 
ATOM      6  C   UNL     1       6.173   4.880  19.175  0.00  0.00    +0.000 A 
ATOM      7  O   UNL     1       5.378   4.585  20.046  0.00  0.00    +0.000 OA
ATOM      8  N   UNL     1       7.407   5.506  19.353  0.00  0.00    +0.000 N 
ATOM      9  N   UNL     1       8.154   5.376  18.170  0.00  0.00    +0.000 N 
ATOM     10  C   UNL     1       7.265   4.919  17.219  0.00  0.00    +0.000 A 
ATOM     11  N   UNL     1       7.464   4.812  15.877  0.00  0.00    +0.000 N 
ATOM     12  H   UNL     1       7.857   5.502  20.260  0.00  0.00    +0.000 HD
ATOM     13  H   UNL     1       8.627   6.231  17.873  0.00  0.00    +0.000 HD
ATOM     14  H   UNL     1       8.360   5.048  15.474  0.00  0.00    +0.000 HD
ENDROOT
BRANCH   4  15
ATOM     15  C   UNL     1       3.677   3.691  17.462  0.00  0.00    +0.000 A 
ATOM     16  C   UNL     1       3.422   2.363  17.791  0.00  0.00    +0.000 A 
ATOM     17  C   UNL     1       2.151   2.022  18.246  0.00  0.00    +0.000 A 
ATOM     18  C   UNL     1       1.185   3.013  18.368  0.00  0.00    +0.000 A 
ATOM     19  C   UNL     1       1.528   4.309  18.019  0.00  0.00    +0.000 A 
ATOM     20  N   UNL     1       2.745   4.669  17.555  0.00  0.00    +0.000 NA
ENDBRANCH   4  15
TORSDOF 1
ENDMDL
MODEL 3
REMARK VINA RESULT:      -7.3      1.148      3.061
REMARK  Name = 
REMARK  1 active torsions:
REMARK  status: ('A' for Active; 'I' for Inactive)
REMARK    1  A    between atoms: C_4  and  C_5
REMARK                            x       y       z     vdW  Elec       q    Type
REMARK                         _______ _______ _______ _____ _____    ______ ____
ROOT
ATOM      1  O   UNL     1       7.719   5.539  20.312  0.00  0.00    +0.000 OA
ATOM      2  C   UNL     1       7.154   5.344  19.243  0.00  0.00    +0.000 A 
ATOM      3  C   UNL     1       5.799   4.722  19.189  0.00  0.00    +0.000 A 
ATOM      4  C   UNL     1       5.183   4.523  18.005  0.00  0.00    +0.000 A 
ATOM      5  C   UNL     1       5.887   4.918  16.819  0.00  0.00    +0.000 A 
ATOM      6  C   UNL     1       5.546   4.792  15.387  0.00  0.00    +0.000 A 
ATOM      7  O   UNL     1       4.475   4.470  14.910  0.00  0.00    +0.000 OA
ATOM      8  N   UNL     1       6.685   5.185  14.683  0.00  0.00    +0.000 N 
ATOM      9  N   UNL     1       7.586   5.780  15.581  0.00  0.00    +0.000 N 
ATOM     10  C   UNL     1       7.100   5.492  16.840  0.00  0.00    +0.000 A 
ATOM     11  N   UNL     1       7.717   5.693  18.036  0.00  0.00    +0.000 N 
ATOM     12  H   UNL     1       6.609   5.507  13.725  0.00  0.00    +0.000 HD
ATOM     13  H   UNL     1       8.556   5.480  15.466  0.00  0.00    +0.000 HD
ATOM     14  H   UNL     1       8.627   6.132  18.074  0.00  0.00    +0.000 HD
ENDROOT
BRANCH   4  15
ATOM     15  C   UNL     1       3.846   3.926  18.021  0.00  0.00    +0.000 A 
ATOM     16  C   UNL     1       2.710   4.721  17.895  0.00  0.00    +0.000 A 
ATOM     17  C   UNL     1       1.460   4.112  17.963  0.00  0.00    +0.000 A 
ATOM     18  C   UNL     1       1.385   2.735  18.140  0.00  0.00    +0.000 A 
ATOM     19  C   UNL     1       2.567   2.023  18.254  0.00  0.00    +0.000 A 
ATOM     20  N   UNL     1       3.795   2.587  18.214  0.00  0.00    +0.000 NA
ENDBRANCH   4  15
TORSDOF 1
ENDMDL
MODEL 4
REMARK VINA RESULT:      -7.3      2.794      5.280
REMARK  Name = 
REMARK  1 active torsions:
REMARK  status: ('A' for Active; 'I' for Inactive)
REMARK    1  A    between atoms: C_4  and  C_5
REMARK                            x       y       z     vdW  Elec       q    Type
REMARK                         _______ _______ _______ _____ _____    ______ ____
ROOT
ATOM      1  O   UNL     1       1.768   8.020  19.769  0.00  0.00    +0.000 OA
ATOM      2  C   UNL     1       2.276   6.906  19.805  0.00  0.00    +0.000 A 
ATOM      3  C   UNL     1       3.354   6.520  18.848  0.00  0.00    +0.000 A 
ATOM      4  C   UNL     1       3.913   5.293  18.905  0.00  0.00    +0.000 A 
ATOM      5  C   UNL     1       3.420   4.387  19.902  0.00  0.00    +0.000 A 
ATOM      6  C   UNL     1       3.752   2.979  20.199  0.00  0.00    +0.000 A 
ATOM      7  O   UNL     1       4.675   2.328  19.748  0.00  0.00    +0.000 OA
ATOM      8  N   UNL     1       2.831   2.559  21.159  0.00  0.00    +0.000 N 
ATOM      9  N   UNL     1       2.142   3.683  21.643  0.00  0.00    +0.000 N 
ATOM     10  C   UNL     1       2.462   4.714  20.783  0.00  0.00    +0.000 A 
ATOM     11  N   UNL     1       1.901   5.953  20.724  0.00  0.00    +0.000 N 
ATOM     12  H   UNL     1       3.042   1.773  21.762  0.00  0.00    +0.000 HD
ATOM     13  H   UNL     1       1.132   3.554  21.729  0.00  0.00    +0.000 HD
ATOM     14  H   UNL     1       1.185   6.220  21.384  0.00  0.00    +0.000 HD
ENDROOT
BRANCH   4  15
ATOM     15  C   UNL     1       4.980   4.982  17.950  0.00  0.00    +0.000 A 
ATOM     16  C   UNL     1       4.679   4.474  16.689  0.00  0.00    +0.000 A 
ATOM     17  C   UNL     1       5.729   4.149  15.835  0.00  0.00    +0.000 A 
ATOM     18  C   UNL     1       7.037   4.353  16.259  0.00  0.00    +0.000 A 
ATOM     19  C   UNL     1       7.242   4.865  17.529  0.00  0.00    +0.000 A 
ATOM     20  N   UNL     1       6.246   5.170  18.390  0.00  0.00    +0.000 NA
ENDBRANCH   4  15
TORSDOF 1
ENDMDL
MODEL 5
REMARK VINA RESULT:      -7.2      2.470      5.654
REMARK  Name = 
REMARK  1 active torsions:
REMARK  status: ('A' for Active; 'I' for Inactive)
REMARK    1  A    between atoms: C_4  and  C_5
REMARK                            x       y       z     vdW  Elec       q    Type
REMARK                         _______ _______ _______ _____ _____    ______ ____
ROOT
ATOM      1  O   UNL     1       1.616   7.070  20.855  0.00  0.00    +0.000 OA
ATOM      2  C   UNL     1       1.922   6.029  20.286  0.00  0.00    +0.000 A 
ATOM      3  C   UNL     1       3.155   5.941  19.452  0.00  0.00    +0.000 A 
ATOM      4  C   UNL     1       3.487   4.785  18.839  0.00  0.00    +0.000 A 
ATOM      5  C   UNL     1       2.603   3.668  19.013  0.00  0.00    +0.000 A 
ATOM      6  C   UNL     1       2.625   2.302  18.449  0.00  0.00    +0.000 A 
ATOM      7  O   UNL     1       3.530   1.774  17.833  0.00  0.00    +0.000 OA
ATOM      8  N   UNL     1       1.419   1.711  18.824  0.00  0.00    +0.000 N 
ATOM      9  N   UNL     1       0.796   2.527  19.783  0.00  0.00    +0.000 N 
ATOM     10  C   UNL     1       1.495   3.717  19.768  0.00  0.00    +0.000 A 
ATOM     11  N   UNL     1       1.165   4.884  20.386  0.00  0.00    +0.000 N 
ATOM     12  H   UNL     1       1.331   0.702  18.857  0.00  0.00    +0.000 HD
ATOM     13  H   UNL     1      -0.204   2.668  19.632  0.00  0.00    +0.000 HD
ATOM     14  H   UNL     1       0.340   4.938  20.967  0.00  0.00    +0.000 HD
ENDROOT
BRANCH   4  15
ATOM     15  C   UNL     1       4.721   4.757  18.050  0.00  0.00    +0.000 A 
ATOM     16  C   UNL     1       4.679   4.850  16.662  0.00  0.00    +0.000 A 
ATOM     17  C   UNL     1       5.874   4.772  15.953  0.00  0.00    +0.000 A 
ATOM     18  C   UNL     1       7.067   4.617  16.649  0.00  0.00    +0.000 A 
ATOM     19  C   UNL     1       7.014   4.535  18.030  0.00  0.00    +0.000 A 
ATOM     20  N   UNL     1       5.868   4.586  18.746  0.00  0.00    +0.000 NA
ENDBRANCH   4  15
TORSDOF 1
ENDMDL
MODEL 6
REMARK VINA RESULT:      -7.2      2.834      5.255
REMARK  Name = 
REMARK  1 active torsions:
REMARK  status: ('A' for Active; 'I' for Inactive)
REMARK    1  A    between atoms: C_4  and  C_5
REMARK                            x       y       z     vdW  Elec       q    Type
REMARK                         _______ _______ _______ _____ _____    ______ ____
ROOT
ATOM      1  O   UNL     1       1.839   8.012  19.653  0.00  0.00    +0.000 OA
ATOM      2  C   UNL     1       2.330   6.892  19.720  0.00  0.00    +0.000 A 
ATOM      3  C   UNL     1       3.410   6.468  18.783  0.00  0.00    +0.000 A 
ATOM      4  C   UNL     1       3.951   5.235  18.874  0.00  0.00    +0.000 A 
ATOM      5  C   UNL     1       3.438   4.361  19.890  0.00  0.00    +0.000 A 
ATOM      6  C   UNL     1       3.747   2.956  20.225  0.00  0.00    +0.000 A 
ATOM      7  O   UNL     1       4.664   2.281  19.798  0.00  0.00    +0.000 OA
ATOM      8  N   UNL     1       2.812   2.574  21.187  0.00  0.00    +0.000 N 
ATOM      9  N   UNL     1       2.135   3.719  21.638  0.00  0.00    +0.000 N 
ATOM     10  C   UNL     1       2.477   4.723  20.755  0.00  0.00    +0.000 A 
ATOM     11  N   UNL     1       1.935   5.968  20.660  0.00  0.00    +0.000 N 
ATOM     12  H   UNL     1       3.007   1.800  21.811  0.00  0.00    +0.000 HD
ATOM     13  H   UNL     1       1.124   3.607  21.718  0.00  0.00    +0.000 HD
ATOM     14  H   UNL     1       1.217   6.262  21.307  0.00  0.00    +0.000 HD
ENDROOT
BRANCH   4  15
ATOM     15  C   UNL     1       5.021   4.885  17.937  0.00  0.00    +0.000 A 
ATOM     16  C   UNL     1       6.358   5.001  18.307  0.00  0.00    +0.000 A 
ATOM     17  C   UNL     1       7.338   4.701  17.365  0.00  0.00    +0.000 A 
ATOM     18  C   UNL     1       6.955   4.286  16.096  0.00  0.00    +0.000 A 
ATOM     19  C   UNL     1       5.602   4.197  15.815  0.00  0.00    +0.000 A 
ATOM     20  N   UNL     1       4.626   4.501  16.700  0.00  0.00    +0.000 NA
ENDBRANCH   4  15
TORSDOF 1
ENDMDL
MODEL 7
REMARK VINA RESULT:      -7.2      3.005      4.662
REMARK  Name = 
REMARK  1 active torsions:
REMARK  status: ('A' for Active; 'I' for Inactive)
REMARK    1  A    between atoms: C_4  and  C_5
REMARK                            x       y       z     vdW  Elec       q    Type
REMARK                         _______ _______ _______ _____ _____    ______ ____
ROOT
ATOM      1  O   UNL     1       7.271   4.940  19.392  0.00  0.00    +0.000 OA
ATOM      2  C   UNL     1       6.104   4.788  19.049  0.00  0.00    +0.000 A 
ATOM      3  C   UNL     1       5.140   5.926  19.077  0.00  0.00    +0.000 A 
ATOM      4  C   UNL     1       3.861   5.749  18.687  0.00  0.00    +0.000 A 
ATOM      5  C   UNL     1       3.474   4.433  18.265  0.00  0.00    +0.000 A 
ATOM      6  C   UNL     1       2.170   3.881  17.843  0.00  0.00    +0.000 A 
ATOM      7  O   UNL     1       1.154   4.500  17.592  0.00  0.00    +0.000 OA
ATOM      8  N   UNL     1       2.356   2.504  17.721  0.00  0.00    +0.000 N 
ATOM      9  N   UNL     1       3.731   2.227  17.788  0.00  0.00    +0.000 N 
ATOM     10  C   UNL     1       4.325   3.397  18.217  0.00  0.00    +0.000 A 
ATOM     11  N   UNL     1       5.615   3.580  18.610  0.00  0.00    +0.000 N 
ATOM     12  H   UNL     1       1.738   1.953  17.138  0.00  0.00    +0.000 HD
ATOM     13  H   UNL     1       3.974   1.433  18.382  0.00  0.00    +0.000 HD
ATOM     14  H   UNL     1       6.273   2.814  18.573  0.00  0.00    +0.000 HD
ENDROOT
BRANCH   4  15
ATOM     15  C   UNL     1       2.967   6.910  18.720  0.00  0.00    +0.000 A 
ATOM     16  C   UNL     1       2.884   7.774  17.632  0.00  0.00    +0.000 A 
ATOM     17  C   UNL     1       2.056   8.889  17.729  0.00  0.00    +0.000 A 
ATOM     18  C   UNL     1       1.334   9.098  18.897  0.00  0.00    +0.000 A 
ATOM     19  C   UNL     1       1.477   8.186  19.929  0.00  0.00    +0.000 A 
ATOM     20  N   UNL     1       2.288   7.106  19.874  0.00  0.00    +0.000 NA
ENDBRANCH   4  15
TORSDOF 1
ENDMDL
MODEL 8
REMARK VINA RESULT:      -7.2      3.424      5.384
REMARK  Name = 
REMARK  1 active torsions:
REMARK  status: ('A' for Active; 'I' for Inactive)
REMARK    1  A    between atoms: C_4  and  C_5
REMARK                            x       y       z     vdW  Elec       q    Type
REMARK                         _______ _______ _______ _____ _____    ______ ____
ROOT
ATOM      1  O   UNL     1       1.157   2.542  22.022  0.00  0.00    +0.000 OA
ATOM      2  C   UNL     1       1.942   3.126  21.286  0.00  0.00    +0.000 A 
ATOM      3  C   UNL     1       1.654   4.504  20.791  0.00  0.00    +0.000 A 
ATOM      4  C   UNL     1       2.532   5.142  19.989  0.00  0.00    +0.000 A 
ATOM      5  C   UNL     1       3.731   4.439  19.630  0.00  0.00    +0.000 A 
ATOM      6  C   UNL     1       4.853   4.802  18.740  0.00  0.00    +0.000 A 
ATOM      7  O   UNL     1       5.080   5.890  18.247  0.00  0.00    +0.000 OA
ATOM      8  N   UNL     1       5.644   3.659  18.632  0.00  0.00    +0.000 N 
ATOM      9  N   UNL     1       5.222   2.725  19.591  0.00  0.00    +0.000 N 
ATOM     10  C   UNL     1       4.021   3.205  20.072  0.00  0.00    +0.000 A 
ATOM     11  N   UNL     1       3.133   2.566  20.882  0.00  0.00    +0.000 N 
ATOM     12  H   UNL     1       6.620   3.735  18.368  0.00  0.00    +0.000 HD
ATOM     13  H   UNL     1       5.139   1.769  19.242  0.00  0.00    +0.000 HD
ATOM     14  H   UNL     1       3.337   1.641  21.233  0.00  0.00    +0.000 HD
ENDROOT
BRANCH   4  15
ATOM     15  C   UNL     1       2.200   6.500  19.552  0.00  0.00    +0.000 A 
ATOM     16  C   UNL     1       2.315   6.864  18.214  0.00  0.00    +0.000 A 
ATOM     17  C   UNL     1       2.033   8.179  17.855  0.00  0.00    +0.000 A 
ATOM     18  C   UNL     1       1.635   9.080  18.836  0.00  0.00    +0.000 A 
ATOM     19  C   UNL     1       1.546   8.629  20.142  0.00  0.00    +0.000 A 
ATOM     20  N   UNL     1       1.833   7.365  20.526  0.00  0.00    +0.000 NA
ENDBRANCH   4  15
TORSDOF 1
ENDMDL
MODEL 9
REMARK VINA RESULT:      -7.1      2.513      5.558
REMARK  Name = 
REMARK  1 active torsions:
REMARK  status: ('A' for Active; 'I' for Inactive)
REMARK    1  A    between atoms: C_4  and  C_5
REMARK                            x       y       z     vdW  Elec       q    Type
REMARK                         _______ _______ _______ _____ _____    ______ ____
ROOT
ATOM      1  O   UNL     1       1.862   7.139  20.518  0.00  0.00    +0.000 OA
ATOM      2  C   UNL     1       2.156   6.061  20.018  0.00  0.00    +0.000 A 
ATOM      3  C   UNL     1       3.363   5.917  19.154  0.00  0.00    +0.000 A 
ATOM      4  C   UNL     1       3.683   4.720  18.618  0.00  0.00    +0.000 A 
ATOM      5  C   UNL     1       2.814   3.615  18.902  0.00  0.00    +0.000 A 
ATOM      6  C   UNL     1       2.827   2.212  18.440  0.00  0.00    +0.000 A 
ATOM      7  O   UNL     1       3.716   1.643  17.835  0.00  0.00    +0.000 OA
ATOM      8  N   UNL     1       1.637   1.644  18.897  0.00  0.00    +0.000 N 
ATOM      9  N   UNL     1       1.040   2.525  19.813  0.00  0.00    +0.000 N 
ATOM     10  C   UNL     1       1.730   3.714  19.687  0.00  0.00    +0.000 A 
ATOM     11  N   UNL     1       1.412   4.922  20.227  0.00  0.00    +0.000 N 
ATOM     12  H   UNL     1       1.558   0.640  19.007  0.00  0.00    +0.000 HD
ATOM     13  H   UNL     1       0.035   2.651  19.684  0.00  0.00    +0.000 HD
ATOM     14  H   UNL     1       0.605   5.016  20.829  0.00  0.00    +0.000 HD
ENDROOT
BRANCH   4  15
ATOM     15  C   UNL     1       4.891   4.640  17.793  0.00  0.00    +0.000 A 
ATOM     16  C   UNL     1       6.154   4.710  18.373  0.00  0.00    +0.000 A 
ATOM     17  C   UNL     1       7.272   4.676  17.544  0.00  0.00    +0.000 A 
ATOM     18  C   UNL     1       7.093   4.563  16.170  0.00  0.00    +0.000 A 
ATOM     19  C   UNL     1       5.800   4.498  15.680  0.00  0.00    +0.000 A 
ATOM     20  N   UNL     1       4.694   4.550  16.457  0.00  0.00    +0.000 NA
ENDBRANCH   4  15
TORSDOF 1
ENDMDL
