MODEL 1
REMARK VINA RESULT:      -7.0      0.000      0.000
REMARK  Name = 
REMARK  8 active torsions:
REMARK  status: ('A' for Active; 'I' for Inactive)
REMARK    1  A    between atoms: C_1  and  C_2
REMARK    2  A    between atoms: C_2  and  N_3
REMARK    3  A    between atoms: C_2  and  C_18
REMARK    4  A    between atoms: C_4  and  S_5
REMARK    5  A    between atoms: N_6  and  C_7
REMARK    6  A    between atoms: C_18  and  C_19
REMARK    7  A    between atoms: C_18  and  C_20
REMARK    8  A    between atoms: C_18  and  C_21
REMARK                            x       y       z     vdW  Elec       q    Type
REMARK                         _______ _______ _______ _____ _____    ______ ____
ROOT
ATOM      1  N   UNL     1       2.651   5.280  18.617  0.00  0.00    +0.000 NA
ATOM      2  C   UNL     1       3.336   6.125  17.940  0.00  0.00    +0.000 C 
ATOM      3  N   UNL     1       3.084   7.470  17.922  0.00  0.00    +0.000 N 
ATOM      4  H   UNL     1       3.610   8.007  17.245  0.00  0.00    +0.000 HD
ENDROOT
BRANCH   3   5
ATOM      5  C   UNL     1       2.235   8.196  18.764  0.00  0.00    +0.000 A 
ATOM      6  C   UNL     1       1.496   9.261  18.243  0.00  0.00    +0.000 A 
ATOM      7  C   UNL     1       0.618   9.985  19.055  0.00  0.00    +0.000 A 
ATOM      8  C   UNL     1       0.506   9.636  20.397  0.00  0.00    +0.000 A 
ATOM      9  N   UNL     1      -0.300  10.402  21.279  0.00  0.00    +0.000 N 
ATOM     10  C   UNL     1      -1.082  11.502  21.002  0.00  0.00    +0.000 A 
ATOM     11  C   UNL     1      -1.599  11.906  22.211  0.00  0.00    +0.000 A 
ATOM     12  N   UNL     1      -1.179  11.087  23.221  0.00  0.00    +0.000 NA
ATOM     13  C   UNL     1      -0.414  10.191  22.636  0.00  0.00    +0.000 A 
ATOM     14  N   UNL     1       1.177   8.586  20.925  0.00  0.00    +0.000 NA
ATOM     15  C   UNL     1       1.996   7.887  20.099  0.00  0.00    +0.000 A 
ENDBRANCH   3   5
BRANCH   1  17
ATOM     16  C   UNL     1       2.383   3.317  17.256  0.00  0.00    +0.000 C 
ATOM     17  C   UNL     1       2.813   3.833  18.636  0.00  0.00    +0.000 C 
BRANCH  17  18
ATOM     18  C   UNL     1       1.977   3.246  19.824  0.00  0.00    +0.000 C 
ATOM     19  C   UNL     1       1.089   4.343  20.447  0.00  0.00    +0.000 C 
ATOM     20  C   UNL     1       1.038   2.135  19.301  0.00  0.00    +0.000 C 
ATOM     21  C   UNL     1       2.862   2.650  20.936  0.00  0.00    +0.000 C 
ENDBRANCH  17  18
ENDBRANCH   1  17
BRANCH   2  22
ATOM     22  S   UNL     1       4.680   5.735  16.878  0.00  0.00    +0.000 S 
ATOM     23  H   UNL     1       4.702   6.859  16.160  0.00  0.00    +0.000 HD
ENDBRANCH   2  22
TORSDOF 4
ENDMDL
MODEL 2
REMARK VINA RESULT:      -7.0      2.505      3.951
REMARK  Name = 
REMARK  8 active torsions:
REMARK  status: ('A' for Active; 'I' for Inactive)
REMARK    1  A    between atoms: C_1  and  C_2
REMARK    2  A    between atoms: C_2  and  N_3
REMARK    3  A    between atoms: C_2  and  C_18
REMARK    4  A    between atoms: C_4  and  S_5
REMARK    5  A    between atoms: N_6  and  C_7
REMARK    6  A    between atoms: C_18  and  C_19
REMARK    7  A    between atoms: C_18  and  C_20
REMARK    8  A    between atoms: C_18  and  C_21
REMARK                            x       y       z     vdW  Elec       q    Type
REMARK                         _______ _______ _______ _____ _____    ______ ____
ROOT
ATOM      1  N   UNL     1       4.942   5.660  18.867  0.00  0.00    +0.000 NA
ATOM      2  C   UNL     1       3.995   4.890  19.257  0.00  0.00    +0.000 C 
ATOM      3  N   UNL     1       2.808   5.341  19.768  0.00  0.00    +0.000 N 
ATOM      4  H   UNL     1       2.202   4.633  20.162  0.00  0.00    +0.000 HD
ENDROOT
BRANCH   3   5
ATOM      5  C   UNL     1       2.309   6.647  19.756  0.00  0.00    +0.000 A 
ATOM      6  C   UNL     1       2.374   7.398  18.580  0.00  0.00    +0.000 A 
ATOM      7  C   UNL     1       1.858   8.696  18.532  0.00  0.00    +0.000 A 
ATOM      8  C   UNL     1       1.291   9.233  19.683  0.00  0.00    +0.000 A 
ATOM      9  N   UNL     1       0.841  10.579  19.707  0.00  0.00    +0.000 N 
ATOM     10  C   UNL     1       0.835  11.509  18.691  0.00  0.00    +0.000 A 
ATOM     11  C   UNL     1       0.361  12.673  19.251  0.00  0.00    +0.000 A 
ATOM     12  N   UNL     1       0.057  12.491  20.571  0.00  0.00    +0.000 NA
ATOM     13  C   UNL     1       0.342  11.230  20.815  0.00  0.00    +0.000 A 
ATOM     14  N   UNL     1       1.176   8.522  20.828  0.00  0.00    +0.000 NA
ATOM     15  C   UNL     1       1.661   7.254  20.828  0.00  0.00    +0.000 A 
ENDBRANCH   3   5
BRANCH   1  17
ATOM     16  C   UNL     1       7.261   5.572  19.492  0.00  0.00    +0.000 C 
ATOM     17  C   UNL     1       6.254   5.260  18.377  0.00  0.00    +0.000 C 
BRANCH  17  18
ATOM     18  C   UNL     1       6.542   6.008  17.031  0.00  0.00    +0.000 C 
ATOM     19  C   UNL     1       7.516   7.181  17.269  0.00  0.00    +0.000 C 
ATOM     20  C   UNL     1       7.219   5.041  16.034  0.00  0.00    +0.000 C 
ATOM     21  C   UNL     1       5.264   6.566  16.375  0.00  0.00    +0.000 C 
ENDBRANCH  17  18
ENDBRANCH   1  17
BRANCH   2  22
ATOM     22  S   UNL     1       4.043   3.134  19.263  0.00  0.00    +0.000 S 
ATOM     23  H   UNL     1       5.367   2.969  19.214  0.00  0.00    +0.000 HD
ENDBRANCH   2  22
TORSDOF 4
ENDMDL
MODEL 3
REMARK VINA RESULT:      -6.9      0.449      1.034
REMARK  Name = 
REMARK  8 active torsions:
REMARK  status: ('A' for Active; 'I' for Inactive)
REMARK    1  A    between atoms: C_1  and  C_2
REMARK    2  A    between atoms: C_2  and  N_3
REMARK    3  A    between atoms: C_2  and  C_18
REMARK    4  A    between atoms: C_4  and  S_5
REMARK    5  A    between atoms: N_6  and  C_7
REMARK    6  A    between atoms: C_18  and  C_19
REMARK    7  A    between atoms: C_18  and  C_20
REMARK    8  A    between atoms: C_18  and  C_21
REMARK                            x       y       z     vdW  Elec       q    Type
REMARK                         _______ _______ _______ _____ _____    ______ ____
ROOT
ATOM      1  N   UNL     1       2.675   5.164  18.538  0.00  0.00    +0.000 NA
ATOM      2  C   UNL     1       3.461   5.954  17.905  0.00  0.00    +0.000 C 
ATOM      3  N   UNL     1       3.266   7.305  17.806  0.00  0.00    +0.000 N 
ATOM      4  H   UNL     1       3.882   7.792  17.168  0.00  0.00    +0.000 HD
ENDROOT
BRANCH   3   5
ATOM      5  C   UNL     1       2.363   8.097  18.523  0.00  0.00    +0.000 A 
ATOM      6  C   UNL     1       1.625   9.075  17.854  0.00  0.00    +0.000 A 
ATOM      7  C   UNL     1       0.695   9.862  18.539  0.00  0.00    +0.000 A 
ATOM      8  C   UNL     1       0.528   9.662  19.906  0.00  0.00    +0.000 A 
ATOM      9  N   UNL     1      -0.334  10.501  20.660  0.00  0.00    +0.000 N 
ATOM     10  C   UNL     1      -1.127  11.540  20.227  0.00  0.00    +0.000 A 
ATOM     11  C   UNL     1      -1.709  12.064  21.358  0.00  0.00    +0.000 A 
ATOM     12  N   UNL     1      -1.317  11.374  22.472  0.00  0.00    +0.000 NA
ATOM     13  C   UNL     1      -0.506  10.440  22.025  0.00  0.00    +0.000 A 
ATOM     14  N   UNL     1       1.197   8.698  20.578  0.00  0.00    +0.000 NA
ATOM     15  C   UNL     1       2.070   7.933  19.873  0.00  0.00    +0.000 A 
ENDBRANCH   3   5
BRANCH   1  17
ATOM     16  C   UNL     1       2.352   3.147  17.270  0.00  0.00    +0.000 C 
ATOM     17  C   UNL     1       2.775   3.714  18.632  0.00  0.00    +0.000 C 
BRANCH  17  18
ATOM     18  C   UNL     1       1.892   3.222  19.829  0.00  0.00    +0.000 C 
ATOM     19  C   UNL     1       0.904   2.136  19.354  0.00  0.00    +0.000 C 
ATOM     20  C   UNL     1       2.793   2.584  20.911  0.00  0.00    +0.000 C 
ATOM     21  C   UNL     1       1.084   4.361  20.480  0.00  0.00    +0.000 C 
ENDBRANCH  17  18
ENDBRANCH   1  17
BRANCH   2  22
ATOM     22  S   UNL     1       4.892   5.469  17.009  0.00  0.00    +0.000 S 
ATOM     23  H   UNL     1       4.362   5.439  15.785  0.00  0.00    +0.000 HD
ENDBRANCH   2  22
TORSDOF 4
ENDMDL
MODEL 4
REMARK VINA RESULT:      -6.9      2.519      4.100
REMARK  Name = 
REMARK  8 active torsions:
REMARK  status: ('A' for Active; 'I' for Inactive)
REMARK    1  A    between atoms: C_1  and  C_2
REMARK    2  A    between atoms: C_2  and  N_3
REMARK    3  A    between atoms: C_2  and  C_18
REMARK    4  A    between atoms: C_4  and  S_5
REMARK    5  A    between atoms: N_6  and  C_7
REMARK    6  A    between atoms: C_18  and  C_19
REMARK    7  A    between atoms: C_18  and  C_20
REMARK    8  A    between atoms: C_18  and  C_21
REMARK                            x       y       z     vdW  Elec       q    Type
REMARK                         _______ _______ _______ _____ _____    ______ ____
ROOT
ATOM      1  N   UNL     1       4.947   5.601  18.886  0.00  0.00    +0.000 NA
ATOM      2  C   UNL     1       4.026   4.796  19.265  0.00  0.00    +0.000 C 
ATOM      3  N   UNL     1       2.827   5.201  19.786  0.00  0.00    +0.000 N 
ATOM      4  H   UNL     1       2.244   4.468  20.170  0.00  0.00    +0.000 HD
ENDROOT
BRANCH   3   5
ATOM      5  C   UNL     1       2.288   6.491  19.796  0.00  0.00    +0.000 A 
ATOM      6  C   UNL     1       1.687   6.977  20.960  0.00  0.00    +0.000 A 
ATOM      7  C   UNL     1       1.165   8.273  21.008  0.00  0.00    +0.000 A 
ATOM      8  C   UNL     1       1.241   9.066  19.868  0.00  0.00    +0.000 A 
ATOM      9  N   UNL     1       0.641  10.352  19.840  0.00  0.00    +0.000 N 
ATOM     10  C   UNL     1      -0.028  11.017  20.845  0.00  0.00    +0.000 A 
ATOM     11  C   UNL     1      -0.469  12.194  20.285  0.00  0.00    +0.000 A 
ATOM     12  N   UNL     1      -0.082  12.287  18.977  0.00  0.00    +0.000 NA
ATOM     13  C   UNL     1       0.588  11.180  18.740  0.00  0.00    +0.000 A 
ATOM     14  N   UNL     1       1.850   8.643  18.736  0.00  0.00    +0.000 NA
ATOM     15  C   UNL     1       2.372   7.390  18.737  0.00  0.00    +0.000 A 
ENDBRANCH   3   5
BRANCH   1  17
ATOM     16  C   UNL     1       7.271   5.579  19.502  0.00  0.00    +0.000 C 
ATOM     17  C   UNL     1       6.270   5.250  18.387  0.00  0.00    +0.000 C 
BRANCH  17  18
ATOM     18  C   UNL     1       6.528   6.025  17.049  0.00  0.00    +0.000 C 
ATOM     19  C   UNL     1       7.520   7.183  17.285  0.00  0.00    +0.000 C 
ATOM     20  C   UNL     1       7.170   5.073  16.014  0.00  0.00    +0.000 C 
ATOM     21  C   UNL     1       5.239   6.608  16.440  0.00  0.00    +0.000 C 
ENDBRANCH  17  18
ENDBRANCH   1  17
BRANCH   2  22
ATOM     22  S   UNL     1       4.128   3.042  19.242  0.00  0.00    +0.000 S 
ATOM     23  H   UNL     1       5.115   2.887  20.128  0.00  0.00    +0.000 HD
ENDBRANCH   2  22
TORSDOF 4
ENDMDL
MODEL 5
REMARK VINA RESULT:      -6.8      3.350      7.399
REMARK  Name = 
REMARK  8 active torsions:
REMARK  status: ('A' for Active; 'I' for Inactive)
REMARK    1  A    between atoms: C_1  and  C_2
REMARK    2  A    between atoms: C_2  and  N_3
REMARK    3  A    between atoms: C_2  and  C_18
REMARK    4  A    between atoms: C_4  and  S_5
REMARK    5  A    between atoms: N_6  and  C_7
REMARK    6  A    between atoms: C_18  and  C_19
REMARK    7  A    between atoms: C_18  and  C_20
REMARK    8  A    between atoms: C_18  and  C_21
REMARK                            x       y       z     vdW  Elec       q    Type
REMARK                         _______ _______ _______ _____ _____    ______ ____
ROOT
ATOM      1  N   UNL     1      -1.326  11.433  18.486  0.00  0.00    +0.000 NA
ATOM      2  C   UNL     1      -0.274  12.127  18.716  0.00  0.00    +0.000 C 
ATOM      3  N   UNL     1       0.924  11.591  19.102  0.00  0.00    +0.000 N 
ATOM      4  H   UNL     1       1.634  12.255  19.380  0.00  0.00    +0.000 HD
ENDROOT
BRANCH   3   5
ATOM      5  C   UNL     1       1.302  10.244  19.100  0.00  0.00    +0.000 A 
ATOM      6  C   UNL     1       1.857   9.687  17.946  0.00  0.00    +0.000 A 
ATOM      7  C   UNL     1       2.270   8.352  17.924  0.00  0.00    +0.000 A 
ATOM      8  C   UNL     1       2.103   7.582  19.070  0.00  0.00    +0.000 A 
ATOM      9  N   UNL     1       2.419   6.198  19.064  0.00  0.00    +0.000 N 
ATOM     10  C   UNL     1       2.940   5.433  18.044  0.00  0.00    +0.000 A 
ATOM     11  C   UNL     1       2.993   4.147  18.530  0.00  0.00    +0.000 A 
ATOM     12  N   UNL     1       2.539   4.093  19.819  0.00  0.00    +0.000 NA
ATOM     13  C   UNL     1       2.214   5.332  20.117  0.00  0.00    +0.000 A 
ATOM     14  N   UNL     1       1.604   8.098  20.217  0.00  0.00    +0.000 NA
ATOM     15  C   UNL     1       1.243   9.406  20.209  0.00  0.00    +0.000 A 
ENDBRANCH   3   5
BRANCH   1  17
ATOM     16  C   UNL     1      -3.412  12.130  19.456  0.00  0.00    +0.000 C 
ATOM     17  C   UNL     1      -2.649  11.932  18.139  0.00  0.00    +0.000 C 
BRANCH  17  18
ATOM     18  C   UNL     1      -3.330  10.921  17.155  0.00  0.00    +0.000 C 
ATOM     19  C   UNL     1      -3.249   9.487  17.720  0.00  0.00    +0.000 C 
ATOM     20  C   UNL     1      -4.828  11.272  17.003  0.00  0.00    +0.000 C 
ATOM     21  C   UNL     1      -2.685  10.927  15.755  0.00  0.00    +0.000 C 
ENDBRANCH  17  18
ENDBRANCH   1  17
BRANCH   2  22
ATOM     22  S   UNL     1      -0.168  13.879  18.633  0.00  0.00    +0.000 S 
ATOM     23  H   UNL     1       1.156  13.994  18.501  0.00  0.00    +0.000 HD
ENDBRANCH   2  22
TORSDOF 4
ENDMDL
MODEL 6
REMARK VINA RESULT:      -6.7      0.731      1.319
REMARK  Name = 
REMARK  8 active torsions:
REMARK  status: ('A' for Active; 'I' for Inactive)
REMARK    1  A    between atoms: C_1  and  C_2
REMARK    2  A    between atoms: C_2  and  N_3
REMARK    3  A    between atoms: C_2  and  C_18
REMARK    4  A    between atoms: C_4  and  S_5
REMARK    5  A    between atoms: N_6  and  C_7
REMARK    6  A    between atoms: C_18  and  C_19
REMARK    7  A    between atoms: C_18  and  C_20
REMARK    8  A    between atoms: C_18  and  C_21
REMARK                            x       y       z     vdW  Elec       q    Type
REMARK                         _______ _______ _______ _____ _____    ______ ____
ROOT
ATOM      1  N   UNL     1       2.592   5.314  18.683  0.00  0.00    +0.000 NA
ATOM      2  C   UNL     1       3.262   6.151  17.982  0.00  0.00    +0.000 C 
ATOM      3  N   UNL     1       3.019   7.498  17.966  0.00  0.00    +0.000 N 
ATOM      4  H   UNL     1       3.528   8.028  17.272  0.00  0.00    +0.000 HD
ENDROOT
BRANCH   3   5
ATOM      5  C   UNL     1       2.200   8.233  18.830  0.00  0.00    +0.000 A 
ATOM      6  C   UNL     1       2.042   7.812  20.152  0.00  0.00    +0.000 A 
ATOM      7  C   UNL     1       1.252   8.543  21.044  0.00  0.00    +0.000 A 
ATOM      8  C   UNL     1       0.614   9.690  20.587  0.00  0.00    +0.000 A 
ATOM      9  N   UNL     1      -0.273  10.410  21.430  0.00  0.00    +0.000 N 
ATOM     10  C   UNL     1      -0.607  10.167  22.744  0.00  0.00    +0.000 A 
ATOM     11  C   UNL     1      -1.552  11.112  23.071  0.00  0.00    +0.000 A 
ATOM     12  N   UNL     1      -1.799  11.941  22.013  0.00  0.00    +0.000 NA
ATOM     13  C   UNL     1      -1.015  11.507  21.051  0.00  0.00    +0.000 A 
ATOM     14  N   UNL     1       0.776  10.149  19.324  0.00  0.00    +0.000 NA
ATOM     15  C   UNL     1       1.574   9.429  18.495  0.00  0.00    +0.000 A 
ENDBRANCH   3   5
BRANCH   1  17
ATOM     16  C   UNL     1       2.322   3.352  17.319  0.00  0.00    +0.000 C 
ATOM     17  C   UNL     1       2.744   3.865  18.703  0.00  0.00    +0.000 C 
BRANCH  17  18
ATOM     18  C   UNL     1       1.894   3.283  19.884  0.00  0.00    +0.000 C 
ATOM     19  C   UNL     1       0.994   4.382  20.488  0.00  0.00    +0.000 C 
ATOM     20  C   UNL     1       0.966   2.166  19.355  0.00  0.00    +0.000 C 
ATOM     21  C   UNL     1       2.766   2.698  21.012  0.00  0.00    +0.000 C 
ENDBRANCH  17  18
ENDBRANCH   1  17
BRANCH   2  22
ATOM     22  S   UNL     1       4.571   5.747  16.883  0.00  0.00    +0.000 S 
ATOM     23  H   UNL     1       3.962   4.781  16.191  0.00  0.00    +0.000 HD
ENDBRANCH   2  22
TORSDOF 4
ENDMDL
MODEL 7
REMARK VINA RESULT:      -6.7      0.944      1.763
REMARK  Name = 
REMARK  8 active torsions:
REMARK  status: ('A' for Active; 'I' for Inactive)
REMARK    1  A    between atoms: C_1  and  C_2
REMARK    2  A    between atoms: C_2  and  N_3
REMARK    3  A    between atoms: C_2  and  C_18
REMARK    4  A    between atoms: C_4  and  S_5
REMARK    5  A    between atoms: N_6  and  C_7
REMARK    6  A    between atoms: C_18  and  C_19
REMARK    7  A    between atoms: C_18  and  C_20
REMARK    8  A    between atoms: C_18  and  C_21
REMARK                            x       y       z     vdW  Elec       q    Type
REMARK                         _______ _______ _______ _____ _____    ______ ____
ROOT
ATOM      1  N   UNL     1       2.383   5.653  18.719  0.00  0.00    +0.000 NA
ATOM      2  C   UNL     1       3.092   6.506  18.078  0.00  0.00    +0.000 C 
ATOM      3  N   UNL     1       2.867   7.855  18.102  0.00  0.00    +0.000 N 
ATOM      4  H   UNL     1       3.412   8.404  17.449  0.00  0.00    +0.000 HD
ENDROOT
BRANCH   3   5
ATOM      5  C   UNL     1       2.022   8.570  18.958  0.00  0.00    +0.000 A 
ATOM      6  C   UNL     1       1.895   8.170  20.290  0.00  0.00    +0.000 A 
ATOM      7  C   UNL     1       1.080   8.882  21.174  0.00  0.00    +0.000 A 
ATOM      8  C   UNL     1       0.385   9.990  20.700  0.00  0.00    +0.000 A 
ATOM      9  N   UNL     1      -0.526  10.685  21.536  0.00  0.00    +0.000 N 
ATOM     10  C   UNL     1      -0.838  10.454  22.858  0.00  0.00    +0.000 A 
ATOM     11  C   UNL     1      -1.822  11.361  23.174  0.00  0.00    +0.000 A 
ATOM     12  N   UNL     1      -2.117  12.156  22.102  0.00  0.00    +0.000 NA
ATOM     13  C   UNL     1      -1.321  11.739  21.141  0.00  0.00    +0.000 A 
ATOM     14  N   UNL     1       0.515  10.428  19.426  0.00  0.00    +0.000 NA
ATOM     15  C   UNL     1       1.339   9.729  18.604  0.00  0.00    +0.000 A 
ENDBRANCH   3   5
BRANCH   1  17
ATOM     16  C   UNL     1       1.590   3.690  17.581  0.00  0.00    +0.000 C 
ATOM     17  C   UNL     1       2.516   4.203  18.692  0.00  0.00    +0.000 C 
BRANCH  17  18
ATOM     18  C   UNL     1       2.179   3.637  20.114  0.00  0.00    +0.000 C 
ATOM     19  C   UNL     1       3.279   2.656  20.573  0.00  0.00    +0.000 C 
ATOM     20  C   UNL     1       2.138   4.794  21.137  0.00  0.00    +0.000 C 
ATOM     21  C   UNL     1       0.826   2.901  20.157  0.00  0.00    +0.000 C 
ENDBRANCH  17  18
ENDBRANCH   1  17
BRANCH   2  22
ATOM     22  S   UNL     1       4.441   6.124  17.019  0.00  0.00    +0.000 S 
ATOM     23  H   UNL     1       4.001   4.954  16.548  0.00  0.00    +0.000 HD
ENDBRANCH   2  22
TORSDOF 4
ENDMDL
MODEL 8
REMARK VINA RESULT:      -6.6      2.426      3.947
REMARK  Name = 
REMARK  8 active torsions:
REMARK  status: ('A' for Active; 'I' for Inactive)
REMARK    1  A    between atoms: C_1  and  C_2
REMARK    2  A    between atoms: C_2  and  N_3
REMARK    3  A    between atoms: C_2  and  C_18
REMARK    4  A    between atoms: C_4  and  S_5
REMARK    5  A    between atoms: N_6  and  C_7
REMARK    6  A    between atoms: C_18  and  C_19
REMARK    7  A    between atoms: C_18  and  C_20
REMARK    8  A    between atoms: C_18  and  C_21
REMARK                            x       y       z     vdW  Elec       q    Type
REMARK                         _______ _______ _______ _____ _____    ______ ____
ROOT
ATOM      1  N   UNL     1       4.787   5.264  18.575  0.00  0.00    +0.000 NA
ATOM      2  C   UNL     1       3.913   4.523  19.147  0.00  0.00    +0.000 C 
ATOM      3  N   UNL     1       2.818   5.008  19.809  0.00  0.00    +0.000 N 
ATOM      4  H   UNL     1       2.281   4.327  20.329  0.00  0.00    +0.000 HD
ENDROOT
BRANCH   3   5
ATOM      5  C   UNL     1       2.323   6.316  19.805  0.00  0.00    +0.000 A 
ATOM      6  C   UNL     1       1.710   6.824  20.952  0.00  0.00    +0.000 A 
ATOM      7  C   UNL     1       1.230   8.137  20.985  0.00  0.00    +0.000 A 
ATOM      8  C   UNL     1       1.362   8.925  19.846  0.00  0.00    +0.000 A 
ATOM      9  N   UNL     1       0.806  10.230  19.802  0.00  0.00    +0.000 N 
ATOM     10  C   UNL     1       0.135  10.920  20.788  0.00  0.00    +0.000 A 
ATOM     11  C   UNL     1      -0.252  12.109  20.215  0.00  0.00    +0.000 A 
ATOM     12  N   UNL     1       0.171  12.187  18.918  0.00  0.00    +0.000 NA
ATOM     13  C   UNL     1       0.809  11.057  18.700  0.00  0.00    +0.000 A 
ATOM     14  N   UNL     1       1.985   8.479  18.731  0.00  0.00    +0.000 NA
ATOM     15  C   UNL     1       2.464   7.209  18.747  0.00  0.00    +0.000 A 
ENDBRANCH   3   5
BRANCH   1  17
ATOM     16  C   UNL     1       7.170   5.587  18.567  0.00  0.00    +0.000 C 
ATOM     17  C   UNL     1       6.009   4.828  17.911  0.00  0.00    +0.000 C 
BRANCH  17  18
ATOM     18  C   UNL     1       5.868   5.086  16.372  0.00  0.00    +0.000 C 
ATOM     19  C   UNL     1       4.988   3.996  15.725  0.00  0.00    +0.000 C 
ATOM     20  C   UNL     1       5.168   6.444  16.134  0.00  0.00    +0.000 C 
ATOM     21  C   UNL     1       7.227   5.106  15.645  0.00  0.00    +0.000 C 
ENDBRANCH  17  18
ENDBRANCH   1  17
BRANCH   2  22
ATOM     22  S   UNL     1       3.962   2.769  19.239  0.00  0.00    +0.000 S 
ATOM     23  H   UNL     1       5.284   2.610  19.331  0.00  0.00    +0.000 HD
ENDBRANCH   2  22
TORSDOF 4
ENDMDL
MODEL 9
REMARK VINA RESULT:      -6.6      2.820      7.828
REMARK  Name = 
REMARK  8 active torsions:
REMARK  status: ('A' for Active; 'I' for Inactive)
REMARK    1  A    between atoms: C_1  and  C_2
REMARK    2  A    between atoms: C_2  and  N_3
REMARK    3  A    between atoms: C_2  and  C_18
REMARK    4  A    between atoms: C_4  and  S_5
REMARK    5  A    between atoms: N_6  and  C_7
REMARK    6  A    between atoms: C_18  and  C_19
REMARK    7  A    between atoms: C_18  and  C_20
REMARK    8  A    between atoms: C_18  and  C_21
REMARK                            x       y       z     vdW  Elec       q    Type
REMARK                         _______ _______ _______ _____ _____    ______ ____
ROOT
ATOM      1  N   UNL     1       0.533   9.540  19.717  0.00  0.00    +0.000 NA
ATOM      2  C   UNL     1       0.782   8.884  20.788  0.00  0.00    +0.000 C 
ATOM      3  N   UNL     1       1.509   7.726  20.821  0.00  0.00    +0.000 N 
ATOM      4  H   UNL     1       1.518   7.237  21.707  0.00  0.00    +0.000 HD
ENDROOT
BRANCH   3   5
ATOM      5  C   UNL     1       2.286   7.171  19.799  0.00  0.00    +0.000 A 
ATOM      6  C   UNL     1       2.607   5.812  19.839  0.00  0.00    +0.000 A 
ATOM      7  C   UNL     1       3.359   5.225  18.817  0.00  0.00    +0.000 A 
ATOM      8  C   UNL     1       3.795   6.024  17.765  0.00  0.00    +0.000 A 
ATOM      9  N   UNL     1       4.639   5.492  16.755  0.00  0.00    +0.000 N 
ATOM     10  C   UNL     1       5.109   4.206  16.607  0.00  0.00    +0.000 A 
ATOM     11  C   UNL     1       5.938   4.234  15.510  0.00  0.00    +0.000 A 
ATOM     12  N   UNL     1       5.983   5.486  14.964  0.00  0.00    +0.000 NA
ATOM     13  C   UNL     1       5.191   6.215  15.720  0.00  0.00    +0.000 A 
ATOM     14  N   UNL     1       3.470   7.334  17.673  0.00  0.00    +0.000 NA
ATOM     15  C   UNL     1       2.714   7.862  18.669  0.00  0.00    +0.000 A 
ENDBRANCH   3   5
BRANCH   1  17
ATOM     16  C   UNL     1      -1.315  10.463  18.486  0.00  0.00    +0.000 C 
ATOM     17  C   UNL     1      -0.285  10.739  19.590  0.00  0.00    +0.000 C 
BRANCH  17  18
ATOM     18  C   UNL     1       0.649  11.962  19.298  0.00  0.00    +0.000 C 
ATOM     19  C   UNL     1       1.843  11.527  18.422  0.00  0.00    +0.000 C 
ATOM     20  C   UNL     1      -0.133  13.037  18.510  0.00  0.00    +0.000 C 
ATOM     21  C   UNL     1       1.202  12.608  20.583  0.00  0.00    +0.000 C 
ENDBRANCH  17  18
ENDBRANCH   1  17
BRANCH   2  22
ATOM     22  S   UNL     1       0.211   9.300  22.397  0.00  0.00    +0.000 S 
ATOM     23  H   UNL     1       1.280   8.913  23.096  0.00  0.00    +0.000 HD
ENDBRANCH   2  22
TORSDOF 4
ENDMDL
