MODEL 1
REMARK VINA RESULT:      -5.5      0.000      0.000
REMARK  Name = 
REMARK  20 active torsions:
REMARK  status: ('A' for Active; 'I' for Inactive)
REMARK    1  A    between atoms: C_1  and  C_2
REMARK    2  A    between atoms: C_2  and  C_3
REMARK    3  A    between atoms: C_3  and  C_4
REMARK    4  A    between atoms: C_4  and  C_5
REMARK    5  A    between atoms: C_5  and  C_6
REMARK    6  A    between atoms: C_6  and  C_7
REMARK    7  A    between atoms: C_7  and  C_8
REMARK    8  A    between atoms: C_8  and  C_9
REMARK    9  A    between atoms: C_9  and  C_10
REMARK   10  A    between atoms: C_10  and  C_11
REMARK   11  A    between atoms: C_11  and  C_12
REMARK   12  A    between atoms: C_12  and  C_13
REMARK   13  A    between atoms: C_13  and  C_14
REMARK   14  A    between atoms: C_14  and  O_15
REMARK   15  A    between atoms: C_14  and  C_16
REMARK   16  A    between atoms: C_16  and  C_17
REMARK   17  A    between atoms: C_17  and  O_18
REMARK   18  A    between atoms: C_17  and  C_19
REMARK   19  A    between atoms: C_19  and  C_20
REMARK   20  A    between atoms: C_19  and  N_21
REMARK                            x       y       z     vdW  Elec       q    Type
REMARK                         _______ _______ _______ _____ _____    ______ ____
ROOT
ATOM      1  C   UNL     1       6.456   4.719  16.301  0.00  0.00    +0.000 C 
ENDROOT
BRANCH   1   2
ATOM      2  C   UNL     1       7.148   4.470  14.958  0.00  0.00    +0.000 C 
BRANCH   2   3
ATOM      3  O   UNL     1       7.857   5.637  14.553  0.00  0.00    +0.000 OA
ATOM      4  H   UNL     1       8.227   6.055  15.350  0.00  0.00    +0.000 HD
ENDBRANCH   2   3
BRANCH   2   5
ATOM      5  C   UNL     1       6.140   4.090  13.875  0.00  0.00    +0.000 C 
BRANCH   5   6
ATOM      6  C   UNL     1       6.778   3.569  12.572  0.00  0.00    +0.000 C 
BRANCH   6   7
ATOM      7  C   UNL     1       5.816   2.904  11.566  0.00  0.00    +0.000 C 
ATOM      8  C   UNL     1       4.353   3.293  11.808  0.00  0.00    +0.000 C 
BRANCH   7   9
ATOM      9  N   UNL     1       5.912   1.453  11.636  0.00  0.00    +0.000 NA
ATOM     10  H   UNL     1       6.827   1.093  11.881  0.00  0.00    +0.000 HD
ATOM     11  H   UNL     1       5.517   0.972  10.837  0.00  0.00    +0.000 HD
ENDBRANCH   7   9
ENDBRANCH   6   7
BRANCH   6  12
ATOM     12  O   UNL     1       7.409   4.673  11.926  0.00  0.00    +0.000 OA
ATOM     13  H   UNL     1       7.698   5.307  12.598  0.00  0.00    +0.000 HD
ENDBRANCH   6  12
ENDBRANCH   5   6
ENDBRANCH   2   5
ENDBRANCH   1   2
BRANCH   1  14
ATOM     14  C   UNL     1       5.089   5.371  16.114  0.00  0.00    +0.000 C 
BRANCH  14  15
ATOM     15  C   UNL     1       4.310   5.348  17.422  0.00  0.00    +0.000 C 
BRANCH  15  16
ATOM     16  C   UNL     1       3.057   4.505  17.273  0.00  0.00    +0.000 C 
BRANCH  16  17
ATOM     17  C   UNL     1       1.929   5.083  18.113  0.00  0.00    +0.000 C 
BRANCH  17  18
ATOM     18  C   UNL     1       2.506   5.910  19.247  0.00  0.00    +0.000 C 
BRANCH  18  19
ATOM     19  C   UNL     1       1.826   5.556  20.557  0.00  0.00    +0.000 C 
BRANCH  19  20
ATOM     20  C   UNL     1       0.951   4.328  20.366  0.00  0.00    +0.000 C 
BRANCH  20  21
ATOM     21  C   UNL     1       1.359   3.236  21.340  0.00  0.00    +0.000 C 
BRANCH  21  22
ATOM     22  C   UNL     1       2.200   2.183  20.633  0.00  0.00    +0.000 C 
BRANCH  22  23
ATOM     23  C   UNL     1       3.668   2.585  20.650  0.00  0.00    +0.000 C 
BRANCH  23  25
ATOM     24  C   UNL     1       3.483   1.473  18.416  0.00  0.00    +0.000 C 
ATOM     25  C   UNL     1       4.432   1.912  19.516  0.00  0.00    +0.000 C 
ENDBRANCH  23  25
ENDBRANCH  22  23
ENDBRANCH  21  22
ENDBRANCH  20  21
ENDBRANCH  19  20
ENDBRANCH  18  19
ENDBRANCH  17  18
ENDBRANCH  16  17
ENDBRANCH  15  16
ENDBRANCH  14  15
ENDBRANCH   1  14
TORSDOF 18
ENDMDL
MODEL 2
REMARK VINA RESULT:      -5.5      3.560      5.168
REMARK  Name = 
REMARK  20 active torsions:
REMARK  status: ('A' for Active; 'I' for Inactive)
REMARK    1  A    between atoms: C_1  and  C_2
REMARK    2  A    between atoms: C_2  and  C_3
REMARK    3  A    between atoms: C_3  and  C_4
REMARK    4  A    between atoms: C_4  and  C_5
REMARK    5  A    between atoms: C_5  and  C_6
REMARK    6  A    between atoms: C_6  and  C_7
REMARK    7  A    between atoms: C_7  and  C_8
REMARK    8  A    between atoms: C_8  and  C_9
REMARK    9  A    between atoms: C_9  and  C_10
REMARK   10  A    between atoms: C_10  and  C_11
REMARK   11  A    between atoms: C_11  and  C_12
REMARK   12  A    between atoms: C_12  and  C_13
REMARK   13  A    between atoms: C_13  and  C_14
REMARK   14  A    between atoms: C_14  and  O_15
REMARK   15  A    between atoms: C_14  and  C_16
REMARK   16  A    between atoms: C_16  and  C_17
REMARK   17  A    between atoms: C_17  and  O_18
REMARK   18  A    between atoms: C_17  and  C_19
REMARK   19  A    between atoms: C_19  and  C_20
REMARK   20  A    between atoms: C_19  and  N_21
REMARK                            x       y       z     vdW  Elec       q    Type
REMARK                         _______ _______ _______ _____ _____    ______ ____
ROOT
ATOM      1  C   UNL     1       4.195   3.798  18.293  0.00  0.00    +0.000 C 
ENDROOT
BRANCH   1   2
ATOM      2  C   UNL     1       5.127   4.625  17.404  0.00  0.00    +0.000 C 
BRANCH   2   3
ATOM      3  O   UNL     1       6.344   3.917  17.185  0.00  0.00    +0.000 OA
ATOM      4  H   UNL     1       6.291   3.073  17.667  0.00  0.00    +0.000 HD
ENDBRANCH   2   3
BRANCH   2   5
ATOM      5  C   UNL     1       5.440   5.981  18.034  0.00  0.00    +0.000 C 
BRANCH   5   6
ATOM      6  C   UNL     1       6.199   6.949  17.106  0.00  0.00    +0.000 C 
BRANCH   6   7
ATOM      7  C   UNL     1       7.650   7.280  17.514  0.00  0.00    +0.000 C 
ATOM      8  C   UNL     1       8.076   6.563  18.800  0.00  0.00    +0.000 C 
BRANCH   7   9
ATOM      9  N   UNL     1       7.817   8.711  17.722  0.00  0.00    +0.000 NA
ATOM     10  H   UNL     1       7.491   9.059  18.615  0.00  0.00    +0.000 HD
ATOM     11  H   UNL     1       7.491   9.283  16.951  0.00  0.00    +0.000 HD
ENDBRANCH   7   9
ENDBRANCH   6   7
BRANCH   6  12
ATOM     12  O   UNL     1       6.222   6.372  15.802  0.00  0.00    +0.000 OA
ATOM     13  H   UNL     1       5.429   6.652  15.321  0.00  0.00    +0.000 HD
ENDBRANCH   6  12
ENDBRANCH   5   6
ENDBRANCH   2   5
ENDBRANCH   1   2
BRANCH   1  14
ATOM     14  C   UNL     1       4.049   2.370  17.775  0.00  0.00    +0.000 C 
BRANCH  14  15
ATOM     15  C   UNL     1       2.584   2.049  17.515  0.00  0.00    +0.000 C 
BRANCH  15  16
ATOM     16  C   UNL     1       1.699   3.165  18.042  0.00  0.00    +0.000 C 
BRANCH  16  17
ATOM     17  C   UNL     1       0.669   2.608  19.011  0.00  0.00    +0.000 C 
BRANCH  17  18
ATOM     18  C   UNL     1       0.574   3.505  20.232  0.00  0.00    +0.000 C 
BRANCH  18  19
ATOM     19  C   UNL     1       1.871   3.462  21.020  0.00  0.00    +0.000 C 
BRANCH  19  20
ATOM     20  C   UNL     1       2.376   4.877  21.253  0.00  0.00    +0.000 C 
BRANCH  20  21
ATOM     21  C   UNL     1       1.519   5.874  20.490  0.00  0.00    +0.000 C 
BRANCH  21  22
ATOM     22  C   UNL     1       2.398   6.907  19.800  0.00  0.00    +0.000 C 
BRANCH  22  23
ATOM     23  C   UNL     1       2.107   6.931  18.306  0.00  0.00    +0.000 C 
BRANCH  23  25
ATOM     24  C   UNL     1       1.474   9.289  18.851  0.00  0.00    +0.000 C 
ATOM     25  C   UNL     1       2.030   8.361  17.787  0.00  0.00    +0.000 C 
ENDBRANCH  23  25
ENDBRANCH  22  23
ENDBRANCH  21  22
ENDBRANCH  20  21
ENDBRANCH  19  20
ENDBRANCH  18  19
ENDBRANCH  17  18
ENDBRANCH  16  17
ENDBRANCH  15  16
ENDBRANCH  14  15
ENDBRANCH   1  14
TORSDOF 18
ENDMDL
MODEL 3
REMARK VINA RESULT:      -5.5      6.896      8.340
REMARK  Name = 
REMARK  20 active torsions:
REMARK  status: ('A' for Active; 'I' for Inactive)
REMARK    1  A    between atoms: C_1  and  C_2
REMARK    2  A    between atoms: C_2  and  C_3
REMARK    3  A    between atoms: C_3  and  C_4
REMARK    4  A    between atoms: C_4  and  C_5
REMARK    5  A    between atoms: C_5  and  C_6
REMARK    6  A    between atoms: C_6  and  C_7
REMARK    7  A    between atoms: C_7  and  C_8
REMARK    8  A    between atoms: C_8  and  C_9
REMARK    9  A    between atoms: C_9  and  C_10
REMARK   10  A    between atoms: C_10  and  C_11
REMARK   11  A    between atoms: C_11  and  C_12
REMARK   12  A    between atoms: C_12  and  C_13
REMARK   13  A    between atoms: C_13  and  C_14
REMARK   14  A    between atoms: C_14  and  O_15
REMARK   15  A    between atoms: C_14  and  C_16
REMARK   16  A    between atoms: C_16  and  C_17
REMARK   17  A    between atoms: C_17  and  O_18
REMARK   18  A    between atoms: C_17  and  C_19
REMARK   19  A    between atoms: C_19  and  C_20
REMARK   20  A    between atoms: C_19  and  N_21
REMARK                            x       y       z     vdW  Elec       q    Type
REMARK                         _______ _______ _______ _____ _____    ______ ____
ROOT
ATOM      1  C   UNL     1       8.632  10.673  18.199  0.00  0.00    +0.000 C 
ENDROOT
BRANCH   1   2
ATOM      2  C   UNL     1       9.977  11.398  18.282  0.00  0.00    +0.000 C 
BRANCH   2   3
ATOM      3  O   UNL     1      10.364  11.549  19.645  0.00  0.00    +0.000 OA
ATOM      4  H   UNL     1       9.564  11.747  20.163  0.00  0.00    +0.000 HD
ENDBRANCH   2   3
BRANCH   2   5
ATOM      5  C   UNL     1       9.911  12.773  17.621  0.00  0.00    +0.000 C 
BRANCH   5   6
ATOM      6  C   UNL     1      11.192  13.174  16.865  0.00  0.00    +0.000 C 
BRANCH   6   7
ATOM      7  C   UNL     1      11.796  14.545  17.236  0.00  0.00    +0.000 C 
ATOM      8  C   UNL     1      11.408  14.994  18.648  0.00  0.00    +0.000 C 
BRANCH   7   9
ATOM      9  N   UNL     1      11.362  15.573  16.302  0.00  0.00    +0.000 NA
ATOM     10  H   UNL     1      11.218  15.259  15.350  0.00  0.00    +0.000 HD
ATOM     11  H   UNL     1      11.909  16.426  16.340  0.00  0.00    +0.000 HD
ENDBRANCH   7   9
ENDBRANCH   6   7
BRANCH   6  12
ATOM     12  O   UNL     1      12.174  12.171  17.112  0.00  0.00    +0.000 OA
ATOM     13  H   UNL     1      12.750  12.097  16.336  0.00  0.00    +0.000 HD
ENDBRANCH   6  12
ENDBRANCH   5   6
ENDBRANCH   2   5
ENDBRANCH   1   2
BRANCH   1  14
ATOM     14  C   UNL     1       8.752   9.217  18.642  0.00  0.00    +0.000 C 
BRANCH  14  15
ATOM     15  C   UNL     1       7.832   8.334  17.811  0.00  0.00    +0.000 C 
BRANCH  15  16
ATOM     16  C   UNL     1       7.855   6.910  18.334  0.00  0.00    +0.000 C 
BRANCH  16  17
ATOM     17  C   UNL     1       7.105   5.987  17.387  0.00  0.00    +0.000 C 
BRANCH  17  18
ATOM     18  C   UNL     1       5.939   6.731  16.763  0.00  0.00    +0.000 C 
BRANCH  18  19
ATOM     19  C   UNL     1       4.629   6.050  17.114  0.00  0.00    +0.000 C 
BRANCH  19  20
ATOM     20  C   UNL     1       4.682   4.589  16.696  0.00  0.00    +0.000 C 
BRANCH  20  21
ATOM     21  C   UNL     1       4.058   3.713  17.769  0.00  0.00    +0.000 C 
BRANCH  21  22
ATOM     22  C   UNL     1       2.676   3.247  17.334  0.00  0.00    +0.000 C 
BRANCH  22  23
ATOM     23  C   UNL     1       1.616   4.235  17.801  0.00  0.00    +0.000 C 
BRANCH  23  25
ATOM     24  C   UNL     1       1.060   3.586  20.153  0.00  0.00    +0.000 C 
ATOM     25  C   UNL     1       1.801   4.578  19.274  0.00  0.00    +0.000 C 
ENDBRANCH  23  25
ENDBRANCH  22  23
ENDBRANCH  21  22
ENDBRANCH  20  21
ENDBRANCH  19  20
ENDBRANCH  18  19
ENDBRANCH  17  18
ENDBRANCH  16  17
ENDBRANCH  15  16
ENDBRANCH  14  15
ENDBRANCH   1  14
TORSDOF 18
ENDMDL
MODEL 4
REMARK VINA RESULT:      -5.4      3.862      7.997
REMARK  Name = 
REMARK  20 active torsions:
REMARK  status: ('A' for Active; 'I' for Inactive)
REMARK    1  A    between atoms: C_1  and  C_2
REMARK    2  A    between atoms: C_2  and  C_3
REMARK    3  A    between atoms: C_3  and  C_4
REMARK    4  A    between atoms: C_4  and  C_5
REMARK    5  A    between atoms: C_5  and  C_6
REMARK    6  A    between atoms: C_6  and  C_7
REMARK    7  A    between atoms: C_7  and  C_8
REMARK    8  A    between atoms: C_8  and  C_9
REMARK    9  A    between atoms: C_9  and  C_10
REMARK   10  A    between atoms: C_10  and  C_11
REMARK   11  A    between atoms: C_11  and  C_12
REMARK   12  A    between atoms: C_12  and  C_13
REMARK   13  A    between atoms: C_13  and  C_14
REMARK   14  A    between atoms: C_14  and  O_15
REMARK   15  A    between atoms: C_14  and  C_16
REMARK   16  A    between atoms: C_16  and  C_17
REMARK   17  A    between atoms: C_17  and  O_18
REMARK   18  A    between atoms: C_17  and  C_19
REMARK   19  A    between atoms: C_19  and  C_20
REMARK   20  A    between atoms: C_19  and  N_21
REMARK                            x       y       z     vdW  Elec       q    Type
REMARK                         _______ _______ _______ _____ _____    ______ ____
ROOT
ATOM      1  C   UNL     1       3.155   6.216  19.232  0.00  0.00    +0.000 C 
ENDROOT
BRANCH   1   2
ATOM      2  C   UNL     1       2.061   5.628  20.126  0.00  0.00    +0.000 C 
BRANCH   2   3
ATOM      3  O   UNL     1       1.720   6.558  21.151  0.00  0.00    +0.000 OA
ATOM      4  H   UNL     1       1.130   6.107  21.780  0.00  0.00    +0.000 HD
ENDBRANCH   2   3
BRANCH   2   5
ATOM      5  C   UNL     1       2.509   4.316  20.766  0.00  0.00    +0.000 C 
BRANCH   5   6
ATOM      6  C   UNL     1       1.422   3.224  20.797  0.00  0.00    +0.000 C 
BRANCH   6   7
ATOM      7  C   UNL     1       1.482   2.178  19.664  0.00  0.00    +0.000 C 
ATOM      8  C   UNL     1       2.826   2.184  18.930  0.00  0.00    +0.000 C 
BRANCH   7   9
ATOM      9  N   UNL     1       0.433   2.414  18.683  0.00  0.00    +0.000 NA
ATOM     10  H   UNL     1       0.530   3.266  18.144  0.00  0.00    +0.000 HD
ATOM     11  H   UNL     1      -0.507   2.301  19.046  0.00  0.00    +0.000 HD
ENDBRANCH   7   9
ENDBRANCH   6   7
BRANCH   6  12
ATOM     12  O   UNL     1       1.529   2.539  22.044  0.00  0.00    +0.000 OA
ATOM     13  H   UNL     1       1.888   1.653  21.886  0.00  0.00    +0.000 HD
ENDBRANCH   6  12
ENDBRANCH   5   6
ENDBRANCH   2   5
ENDBRANCH   1   2
BRANCH   1  14
ATOM     14  C   UNL     1       4.398   5.331  19.214  0.00  0.00    +0.000 C 
BRANCH  14  15
ATOM     15  C   UNL     1       5.231   5.615  17.971  0.00  0.00    +0.000 C 
BRANCH  15  16
ATOM     16  C   UNL     1       6.259   4.518  17.764  0.00  0.00    +0.000 C 
BRANCH  16  17
ATOM     17  C   UNL     1       6.922   4.666  16.404  0.00  0.00    +0.000 C 
BRANCH  17  18
ATOM     18  C   UNL     1       6.017   5.455  15.475  0.00  0.00    +0.000 C 
BRANCH  18  19
ATOM     19  C   UNL     1       5.378   4.532  14.453  0.00  0.00    +0.000 C 
BRANCH  19  20
ATOM     20  C   UNL     1       6.430   3.598  13.877  0.00  0.00    +0.000 C 
BRANCH  20  21
ATOM     21  C   UNL     1       6.266   3.489  12.370  0.00  0.00    +0.000 C 
BRANCH  21  22
ATOM     22  C   UNL     1       4.837   3.101  12.020  0.00  0.00    +0.000 C 
BRANCH  22  23
ATOM     23  C   UNL     1       4.248   4.097  11.030  0.00  0.00    +0.000 C 
BRANCH  23  25
ATOM     24  C   UNL     1       2.561   4.452   9.216  0.00  0.00    +0.000 C 
ATOM     25  C   UNL     1       3.113   3.468  10.232  0.00  0.00    +0.000 C 
ENDBRANCH  23  25
ENDBRANCH  22  23
ENDBRANCH  21  22
ENDBRANCH  20  21
ENDBRANCH  19  20
ENDBRANCH  18  19
ENDBRANCH  17  18
ENDBRANCH  16  17
ENDBRANCH  15  16
ENDBRANCH  14  15
ENDBRANCH   1  14
TORSDOF 18
ENDMDL
MODEL 5
REMARK VINA RESULT:      -5.4      2.978      5.546
REMARK  Name = 
REMARK  20 active torsions:
REMARK  status: ('A' for Active; 'I' for Inactive)
REMARK    1  A    between atoms: C_1  and  C_2
REMARK    2  A    between atoms: C_2  and  C_3
REMARK    3  A    between atoms: C_3  and  C_4
REMARK    4  A    between atoms: C_4  and  C_5
REMARK    5  A    between atoms: C_5  and  C_6
REMARK    6  A    between atoms: C_6  and  C_7
REMARK    7  A    between atoms: C_7  and  C_8
REMARK    8  A    between atoms: C_8  and  C_9
REMARK    9  A    between atoms: C_9  and  C_10
REMARK   10  A    between atoms: C_10  and  C_11
REMARK   11  A    between atoms: C_11  and  C_12
REMARK   12  A    between atoms: C_12  and  C_13
REMARK   13  A    between atoms: C_13  and  C_14
REMARK   14  A    between atoms: C_14  and  O_15
REMARK   15  A    between atoms: C_14  and  C_16
REMARK   16  A    between atoms: C_16  and  C_17
REMARK   17  A    between atoms: C_17  and  O_18
REMARK   18  A    between atoms: C_17  and  C_19
REMARK   19  A    between atoms: C_19  and  C_20
REMARK   20  A    between atoms: C_19  and  N_21
REMARK                            x       y       z     vdW  Elec       q    Type
REMARK                         _______ _______ _______ _____ _____    ______ ____
ROOT
ATOM      1  C   UNL     1       3.813   2.719  19.031  0.00  0.00    +0.000 C 
ENDROOT
BRANCH   1   2
ATOM      2  C   UNL     1       4.346   3.569  17.874  0.00  0.00    +0.000 C 
BRANCH   2   3
ATOM      3  O   UNL     1       4.933   2.728  16.884  0.00  0.00    +0.000 OA
ATOM      4  H   UNL     1       5.497   2.078  17.339  0.00  0.00    +0.000 HD
ENDBRANCH   2   3
BRANCH   2   5
ATOM      5  C   UNL     1       5.385   4.579  18.357  0.00  0.00    +0.000 C 
BRANCH   5   6
ATOM      6  C   UNL     1       5.829   5.591  17.283  0.00  0.00    +0.000 C 
BRANCH   6   7
ATOM      7  C   UNL     1       7.171   5.289  16.583  0.00  0.00    +0.000 C 
ATOM      8  C   UNL     1       6.991   4.904  15.111  0.00  0.00    +0.000 C 
BRANCH   7   9
ATOM      9  N   UNL     1       7.871   4.201  17.250  0.00  0.00    +0.000 NA
ATOM     10  H   UNL     1       8.497   4.483  17.995  0.00  0.00    +0.000 HD
ATOM     11  H   UNL     1       8.308   3.540  16.618  0.00  0.00    +0.000 HD
ENDBRANCH   7   9
ENDBRANCH   6   7
BRANCH   6  12
ATOM     12  O   UNL     1       4.809   5.646  16.289  0.00  0.00    +0.000 OA
ATOM     13  H   UNL     1       4.873   6.491  15.819  0.00  0.00    +0.000 HD
ENDBRANCH   6  12
ENDBRANCH   5   6
ENDBRANCH   2   5
ENDBRANCH   1   2
BRANCH   1  14
ATOM     14  C   UNL     1       2.413   2.188  18.736  0.00  0.00    +0.000 C 
BRANCH  14  15
ATOM     15  C   UNL     1       1.380   3.292  18.920  0.00  0.00    +0.000 C 
BRANCH  15  16
ATOM     16  C   UNL     1       1.088   3.498  20.395  0.00  0.00    +0.000 C 
BRANCH  16  17
ATOM     17  C   UNL     1       2.009   4.561  20.972  0.00  0.00    +0.000 C 
BRANCH  17  18
ATOM     18  C   UNL     1       1.547   5.937  20.527  0.00  0.00    +0.000 C 
BRANCH  18  19
ATOM     19  C   UNL     1       2.665   6.659  19.798  0.00  0.00    +0.000 C 
BRANCH  19  20
ATOM     20  C   UNL     1       2.326   6.773  18.321  0.00  0.00    +0.000 C 
BRANCH  20  21
ATOM     21  C   UNL     1       2.667   8.163  17.809  0.00  0.00    +0.000 C 
BRANCH  21  22
ATOM     22  C   UNL     1       1.431   9.050  17.825  0.00  0.00    +0.000 C 
BRANCH  22  23
ATOM     23  C   UNL     1       1.799  10.458  18.271  0.00  0.00    +0.000 C 
BRANCH  23  25
ATOM     24  C   UNL     1       0.260   9.675  20.083  0.00  0.00    +0.000 C 
ATOM     25  C   UNL     1       1.001  10.867  19.503  0.00  0.00    +0.000 C 
ENDBRANCH  23  25
ENDBRANCH  22  23
ENDBRANCH  21  22
ENDBRANCH  20  21
ENDBRANCH  19  20
ENDBRANCH  18  19
ENDBRANCH  17  18
ENDBRANCH  16  17
ENDBRANCH  15  16
ENDBRANCH  14  15
ENDBRANCH   1  14
TORSDOF 18
ENDMDL
MODEL 6
REMARK VINA RESULT:      -5.4      3.467      7.555
REMARK  Name = 
REMARK  20 active torsions:
REMARK  status: ('A' for Active; 'I' for Inactive)
REMARK    1  A    between atoms: C_1  and  C_2
REMARK    2  A    between atoms: C_2  and  C_3
REMARK    3  A    between atoms: C_3  and  C_4
REMARK    4  A    between atoms: C_4  and  C_5
REMARK    5  A    between atoms: C_5  and  C_6
REMARK    6  A    between atoms: C_6  and  C_7
REMARK    7  A    between atoms: C_7  and  C_8
REMARK    8  A    between atoms: C_8  and  C_9
REMARK    9  A    between atoms: C_9  and  C_10
REMARK   10  A    between atoms: C_10  and  C_11
REMARK   11  A    between atoms: C_11  and  C_12
REMARK   12  A    between atoms: C_12  and  C_13
REMARK   13  A    between atoms: C_13  and  C_14
REMARK   14  A    between atoms: C_14  and  O_15
REMARK   15  A    between atoms: C_14  and  C_16
REMARK   16  A    between atoms: C_16  and  C_17
REMARK   17  A    between atoms: C_17  and  O_18
REMARK   18  A    between atoms: C_17  and  C_19
REMARK   19  A    between atoms: C_19  and  C_20
REMARK   20  A    between atoms: C_19  and  N_21
REMARK                            x       y       z     vdW  Elec       q    Type
REMARK                         _______ _______ _______ _____ _____    ______ ____
ROOT
ATOM      1  C   UNL     1       3.161   4.530  17.342  0.00  0.00    +0.000 C 
ENDROOT
BRANCH   1   2
ATOM      2  C   UNL     1       3.630   3.404  18.267  0.00  0.00    +0.000 C 
BRANCH   2   3
ATOM      3  O   UNL     1       4.980   3.061  17.968  0.00  0.00    +0.000 OA
ATOM      4  H   UNL     1       4.968   2.329  17.327  0.00  0.00    +0.000 HD
ENDBRANCH   2   3
BRANCH   2   5
ATOM      5  C   UNL     1       2.751   2.163  18.124  0.00  0.00    +0.000 C 
BRANCH   5   6
ATOM      6  C   UNL     1       1.658   2.035  19.203  0.00  0.00    +0.000 C 
BRANCH   6   7
ATOM      7  C   UNL     1       1.709   3.073  20.344  0.00  0.00    +0.000 C 
ATOM      8  C   UNL     1       1.917   2.427  21.718  0.00  0.00    +0.000 C 
BRANCH   7   9
ATOM      9  N   UNL     1       0.478   3.849  20.395  0.00  0.00    +0.000 NA
ATOM     10  H   UNL     1       0.045   3.913  21.308  0.00  0.00    +0.000 HD
ATOM     11  H   UNL     1      -0.193   3.611  19.673  0.00  0.00    +0.000 HD
ENDBRANCH   7   9
ENDBRANCH   6   7
BRANCH   6  12
ATOM     12  O   UNL     1       0.393   2.145  18.555  0.00  0.00    +0.000 OA
ATOM     13  H   UNL     1       0.348   1.490  17.842  0.00  0.00    +0.000 HD
ENDBRANCH   6  12
ENDBRANCH   5   6
ENDBRANCH   2   5
ENDBRANCH   1   2
BRANCH   1  14
ATOM     14  C   UNL     1       3.029   5.853  18.092  0.00  0.00    +0.000 C 
BRANCH  14  15
ATOM     15  C   UNL     1       3.619   6.988  17.268  0.00  0.00    +0.000 C 
BRANCH  15  16
ATOM     16  C   UNL     1       5.134   6.896  17.253  0.00  0.00    +0.000 C 
BRANCH  16  17
ATOM     17  C   UNL     1       5.605   6.157  16.011  0.00  0.00    +0.000 C 
BRANCH  17  18
ATOM     18  C   UNL     1       6.883   5.398  16.318  0.00  0.00    +0.000 C 
BRANCH  18  19
ATOM     19  C   UNL     1       7.057   4.243  15.350  0.00  0.00    +0.000 C 
BRANCH  19  20
ATOM     20  C   UNL     1       5.898   4.219  14.366  0.00  0.00    +0.000 C 
BRANCH  20  21
ATOM     21  C   UNL     1       6.386   3.799  12.990  0.00  0.00    +0.000 C 
BRANCH  21  22
ATOM     22  C   UNL     1       5.344   2.929  12.302  0.00  0.00    +0.000 C 
BRANCH  22  23
ATOM     23  C   UNL     1       4.882   3.584  11.008  0.00  0.00    +0.000 C 
BRANCH  23  25
ATOM     24  C   UNL     1       2.906   4.048   9.545  0.00  0.00    +0.000 C 
ATOM     25  C   UNL     1       3.362   3.630  10.931  0.00  0.00    +0.000 C 
ENDBRANCH  23  25
ENDBRANCH  22  23
ENDBRANCH  21  22
ENDBRANCH  20  21
ENDBRANCH  19  20
ENDBRANCH  18  19
ENDBRANCH  17  18
ENDBRANCH  16  17
ENDBRANCH  15  16
ENDBRANCH  14  15
ENDBRANCH   1  14
TORSDOF 18
ENDMDL
MODEL 7
REMARK VINA RESULT:      -5.3      5.225      7.804
REMARK  Name = 
REMARK  20 active torsions:
REMARK  status: ('A' for Active; 'I' for Inactive)
REMARK    1  A    between atoms: C_1  and  C_2
REMARK    2  A    between atoms: C_2  and  C_3
REMARK    3  A    between atoms: C_3  and  C_4
REMARK    4  A    between atoms: C_4  and  C_5
REMARK    5  A    between atoms: C_5  and  C_6
REMARK    6  A    between atoms: C_6  and  C_7
REMARK    7  A    between atoms: C_7  and  C_8
REMARK    8  A    between atoms: C_8  and  C_9
REMARK    9  A    between atoms: C_9  and  C_10
REMARK   10  A    between atoms: C_10  and  C_11
REMARK   11  A    between atoms: C_11  and  C_12
REMARK   12  A    between atoms: C_12  and  C_13
REMARK   13  A    between atoms: C_13  and  C_14
REMARK   14  A    between atoms: C_14  and  O_15
REMARK   15  A    between atoms: C_14  and  C_16
REMARK   16  A    between atoms: C_16  and  C_17
REMARK   17  A    between atoms: C_17  and  O_18
REMARK   18  A    between atoms: C_17  and  C_19
REMARK   19  A    between atoms: C_19  and  C_20
REMARK   20  A    between atoms: C_19  and  N_21
REMARK                            x       y       z     vdW  Elec       q    Type
REMARK                         _______ _______ _______ _____ _____    ______ ____
ROOT
ATOM      1  C   UNL     1       2.402   8.176  18.027  0.00  0.00    +0.000 C 
ENDROOT
BRANCH   1   2
ATOM      2  C   UNL     1       1.390   9.298  17.785  0.00  0.00    +0.000 C 
BRANCH   2   3
ATOM      3  O   UNL     1       2.062  10.467  17.324  0.00  0.00    +0.000 OA
ATOM      4  H   UNL     1       2.296  11.005  18.101  0.00  0.00    +0.000 HD
ENDBRANCH   2   3
BRANCH   2   5
ATOM      5  C   UNL     1       0.614   9.632  19.058  0.00  0.00    +0.000 C 
BRANCH   5   6
ATOM      6  C   UNL     1      -0.696  10.406  18.814  0.00  0.00    +0.000 C 
BRANCH   6   7
ATOM      7  C   UNL     1      -0.677  11.903  19.185  0.00  0.00    +0.000 C 
ATOM      8  C   UNL     1      -2.071  12.443  19.522  0.00  0.00    +0.000 C 
BRANCH   7   9
ATOM      9  N   UNL     1      -0.138  12.701  18.093  0.00  0.00    +0.000 NA
ATOM     10  H   UNL     1       0.695  12.327  17.655  0.00  0.00    +0.000 HD
ATOM     11  H   UNL     1      -0.043  13.687  18.308  0.00  0.00    +0.000 HD
ENDBRANCH   7   9
ENDBRANCH   6   7
BRANCH   6  12
ATOM     12  O   UNL     1      -1.017  10.292  17.430  0.00  0.00    +0.000 OA
ATOM     13  H   UNL     1      -0.487  10.932  16.931  0.00  0.00    +0.000 HD
ENDBRANCH   6  12
ENDBRANCH   5   6
ENDBRANCH   2   5
ENDBRANCH   1   2
BRANCH   1  14
ATOM     14  C   UNL     1       2.339   7.664  19.463  0.00  0.00    +0.000 C 
BRANCH  14  15
ATOM     15  C   UNL     1       2.222   6.146  19.479  0.00  0.00    +0.000 C 
BRANCH  15  16
ATOM     16  C   UNL     1       1.699   5.672  20.823  0.00  0.00    +0.000 C 
BRANCH  16  17
ATOM     17  C   UNL     1       2.118   4.233  21.074  0.00  0.00    +0.000 C 
BRANCH  17  18
ATOM     18  C   UNL     1       1.077   3.288  20.501  0.00  0.00    +0.000 C 
BRANCH  18  19
ATOM     19  C   UNL     1       1.751   2.127  19.794  0.00  0.00    +0.000 C 
BRANCH  19  20
ATOM     20  C   UNL     1       1.694   2.338  18.290  0.00  0.00    +0.000 C 
BRANCH  20  21
ATOM     21  C   UNL     1       3.099   2.354  17.708  0.00  0.00    +0.000 C 
BRANCH  21  22
ATOM     22  C   UNL     1       3.417   3.727  17.134  0.00  0.00    +0.000 C 
BRANCH  22  23
ATOM     23  C   UNL     1       4.784   4.194  17.615  0.00  0.00    +0.000 C 
BRANCH  23  25
ATOM     24  C   UNL     1       5.069   6.236  16.197  0.00  0.00    +0.000 C 
ATOM     25  C   UNL     1       5.574   4.833  16.480  0.00  0.00    +0.000 C 
ENDBRANCH  23  25
ENDBRANCH  22  23
ENDBRANCH  21  22
ENDBRANCH  20  21
ENDBRANCH  19  20
ENDBRANCH  18  19
ENDBRANCH  17  18
ENDBRANCH  16  17
ENDBRANCH  15  16
ENDBRANCH  14  15
ENDBRANCH   1  14
TORSDOF 18
ENDMDL
MODEL 8
REMARK VINA RESULT:      -5.2      2.588      4.673
REMARK  Name = 
REMARK  20 active torsions:
REMARK  status: ('A' for Active; 'I' for Inactive)
REMARK    1  A    between atoms: C_1  and  C_2
REMARK    2  A    between atoms: C_2  and  C_3
REMARK    3  A    between atoms: C_3  and  C_4
REMARK    4  A    between atoms: C_4  and  C_5
REMARK    5  A    between atoms: C_5  and  C_6
REMARK    6  A    between atoms: C_6  and  C_7
REMARK    7  A    between atoms: C_7  and  C_8
REMARK    8  A    between atoms: C_8  and  C_9
REMARK    9  A    between atoms: C_9  and  C_10
REMARK   10  A    between atoms: C_10  and  C_11
REMARK   11  A    between atoms: C_11  and  C_12
REMARK   12  A    between atoms: C_12  and  C_13
REMARK   13  A    between atoms: C_13  and  C_14
REMARK   14  A    between atoms: C_14  and  O_15
REMARK   15  A    between atoms: C_14  and  C_16
REMARK   16  A    between atoms: C_16  and  C_17
REMARK   17  A    between atoms: C_17  and  O_18
REMARK   18  A    between atoms: C_17  and  C_19
REMARK   19  A    between atoms: C_19  and  C_20
REMARK   20  A    between atoms: C_19  and  N_21
REMARK                            x       y       z     vdW  Elec       q    Type
REMARK                         _______ _______ _______ _____ _____    ______ ____
ROOT
ATOM      1  C   UNL     1       3.334   4.411  17.517  0.00  0.00    +0.000 C 
ENDROOT
BRANCH   1   2
ATOM      2  C   UNL     1       4.763   3.908  17.302  0.00  0.00    +0.000 C 
BRANCH   2   3
ATOM      3  O   UNL     1       5.383   3.654  18.560  0.00  0.00    +0.000 OA
ATOM      4  H   UNL     1       5.553   2.697  18.622  0.00  0.00    +0.000 HD
ENDBRANCH   2   3
BRANCH   2   5
ATOM      5  C   UNL     1       5.600   4.922  16.524  0.00  0.00    +0.000 C 
BRANCH   5   6
ATOM      6  C   UNL     1       6.625   4.290  15.563  0.00  0.00    +0.000 C 
BRANCH   6   7
ATOM      7  C   UNL     1       6.633   4.843  14.122  0.00  0.00    +0.000 C 
ATOM      8  C   UNL     1       6.330   3.765  13.077  0.00  0.00    +0.000 C 
BRANCH   7   9
ATOM      9  N   UNL     1       7.925   5.432  13.799  0.00  0.00    +0.000 NA
ATOM     10  H   UNL     1       7.929   6.440  13.705  0.00  0.00    +0.000 HD
ATOM     11  H   UNL     1       8.407   4.977  13.032  0.00  0.00    +0.000 HD
ENDBRANCH   7   9
ENDBRANCH   6   7
BRANCH   6  12
ATOM     12  O   UNL     1       7.922   4.482  16.123  0.00  0.00    +0.000 OA
ATOM     13  H   UNL     1       8.588   4.310  15.440  0.00  0.00    +0.000 HD
ENDBRANCH   6  12
ENDBRANCH   5   6
ENDBRANCH   2   5
ENDBRANCH   1   2
BRANCH   1  14
ATOM     14  C   UNL     1       2.306   3.322  17.221  0.00  0.00    +0.000 C 
BRANCH  14  15
ATOM     15  C   UNL     1       2.404   2.209  18.255  0.00  0.00    +0.000 C 
BRANCH  15  16
ATOM     16  C   UNL     1       1.075   2.034  18.968  0.00  0.00    +0.000 C 
BRANCH  16  17
ATOM     17  C   UNL     1       0.717   3.298  19.733  0.00  0.00    +0.000 C 
BRANCH  17  18
ATOM     18  C   UNL     1       1.374   3.273  21.101  0.00  0.00    +0.000 C 
BRANCH  18  19
ATOM     19  C   UNL     1       2.310   4.457  21.258  0.00  0.00    +0.000 C 
BRANCH  19  20
ATOM     20  C   UNL     1       1.883   5.577  20.323  0.00  0.00    +0.000 C 
BRANCH  20  21
ATOM     21  C   UNL     1       1.194   6.682  21.106  0.00  0.00    +0.000 C 
BRANCH  21  22
ATOM     22  C   UNL     1       1.603   8.045  20.568  0.00  0.00    +0.000 C 
BRANCH  22  23
ATOM     23  C   UNL     1       1.030   9.150  21.445  0.00  0.00    +0.000 C 
BRANCH  23  25
ATOM     24  C   UNL     1       0.113  10.020  19.285  0.00  0.00    +0.000 C 
ATOM     25  C   UNL     1       0.723  10.396  20.624  0.00  0.00    +0.000 C 
ENDBRANCH  23  25
ENDBRANCH  22  23
ENDBRANCH  21  22
ENDBRANCH  20  21
ENDBRANCH  19  20
ENDBRANCH  18  19
ENDBRANCH  17  18
ENDBRANCH  16  17
ENDBRANCH  15  16
ENDBRANCH  14  15
ENDBRANCH   1  14
TORSDOF 18
ENDMDL
MODEL 9
REMARK VINA RESULT:      -5.2      3.004      7.350
REMARK  Name = 
REMARK  20 active torsions:
REMARK  status: ('A' for Active; 'I' for Inactive)
REMARK    1  A    between atoms: C_1  and  C_2
REMARK    2  A    between atoms: C_2  and  C_3
REMARK    3  A    between atoms: C_3  and  C_4
REMARK    4  A    between atoms: C_4  and  C_5
REMARK    5  A    between atoms: C_5  and  C_6
REMARK    6  A    between atoms: C_6  and  C_7
REMARK    7  A    between atoms: C_7  and  C_8
REMARK    8  A    between atoms: C_8  and  C_9
REMARK    9  A    between atoms: C_9  and  C_10
REMARK   10  A    between atoms: C_10  and  C_11
REMARK   11  A    between atoms: C_11  and  C_12
REMARK   12  A    between atoms: C_12  and  C_13
REMARK   13  A    between atoms: C_13  and  C_14
REMARK   14  A    between atoms: C_14  and  O_15
REMARK   15  A    between atoms: C_14  and  C_16
REMARK   16  A    between atoms: C_16  and  C_17
REMARK   17  A    between atoms: C_17  and  O_18
REMARK   18  A    between atoms: C_17  and  C_19
REMARK   19  A    between atoms: C_19  and  C_20
REMARK   20  A    between atoms: C_19  and  N_21
REMARK                            x       y       z     vdW  Elec       q    Type
REMARK                         _______ _______ _______ _____ _____    ______ ____
ROOT
ATOM      1  C   UNL     1       2.099   5.563  18.343  0.00  0.00    +0.000 C 
ENDROOT
BRANCH   1   2
ATOM      2  C   UNL     1       2.057   4.408  19.347  0.00  0.00    +0.000 C 
BRANCH   2   3
ATOM      3  O   UNL     1       1.068   4.664  20.340  0.00  0.00    +0.000 OA
ATOM      4  H   UNL     1       0.915   5.625  20.370  0.00  0.00    +0.000 HD
ENDBRANCH   2   3
BRANCH   2   5
ATOM      5  C   UNL     1       3.412   4.209  20.024  0.00  0.00    +0.000 C 
BRANCH   5   6
ATOM      6  C   UNL     1       4.160   2.937  19.581  0.00  0.00    +0.000 C 
BRANCH   6   7
ATOM      7  C   UNL     1       3.425   2.041  18.562  0.00  0.00    +0.000 C 
ATOM      8  C   UNL     1       2.015   1.659  19.025  0.00  0.00    +0.000 C 
BRANCH   7   9
ATOM      9  N   UNL     1       4.167   0.812  18.321  0.00  0.00    +0.000 NA
ATOM     10  H   UNL     1       4.606   0.406  19.138  0.00  0.00    +0.000 HD
ATOM     11  H   UNL     1       4.803   0.859  17.533  0.00  0.00    +0.000 HD
ENDBRANCH   7   9
ENDBRANCH   6   7
BRANCH   6  12
ATOM     12  O   UNL     1       5.401   3.341  19.007  0.00  0.00    +0.000 OA
ATOM     13  H   UNL     1       5.256   4.136  18.473  0.00  0.00    +0.000 HD
ENDBRANCH   6  12
ENDBRANCH   5   6
ENDBRANCH   2   5
ENDBRANCH   1   2
BRANCH   1  14
ATOM     14  C   UNL     1       3.326   5.475  17.440  0.00  0.00    +0.000 C 
BRANCH  14  15
ATOM     15  C   UNL     1       4.118   6.774  17.495  0.00  0.00    +0.000 C 
BRANCH  15  16
ATOM     16  C   UNL     1       5.502   6.573  16.906  0.00  0.00    +0.000 C 
BRANCH  16  17
ATOM     17  C   UNL     1       5.426   5.703  15.662  0.00  0.00    +0.000 C 
BRANCH  17  18
ATOM     18  C   UNL     1       6.377   4.528  15.797  0.00  0.00    +0.000 C 
BRANCH  18  19
ATOM     19  C   UNL     1       6.282   3.629  14.579  0.00  0.00    +0.000 C 
BRANCH  19  20
ATOM     20  C   UNL     1       6.770   4.378  13.349  0.00  0.00    +0.000 C 
BRANCH  20  21
ATOM     21  C   UNL     1       6.645   3.499  12.115  0.00  0.00    +0.000 C 
BRANCH  21  22
ATOM     22  C   UNL     1       5.261   2.869  12.053  0.00  0.00    +0.000 C 
BRANCH  22  23
ATOM     23  C   UNL     1       4.260   3.854  11.466  0.00  0.00    +0.000 C 
BRANCH  23  25
ATOM     24  C   UNL     1       2.855   4.165   9.419  0.00  0.00    +0.000 C 
ATOM     25  C   UNL     1       3.351   3.171  10.453  0.00  0.00    +0.000 C 
ENDBRANCH  23  25
ENDBRANCH  22  23
ENDBRANCH  21  22
ENDBRANCH  20  21
ENDBRANCH  19  20
ENDBRANCH  18  19
ENDBRANCH  17  18
ENDBRANCH  16  17
ENDBRANCH  15  16
ENDBRANCH  14  15
ENDBRANCH   1  14
TORSDOF 18
ENDMDL
