MODEL 1
REMARK VINA RESULT:      -7.8      0.000      0.000
REMARK  Name = 
REMARK  8 active torsions:
REMARK  status: ('A' for Active; 'I' for Inactive)
REMARK    1  A    between atoms: S_2  and  C_4
REMARK    2  A    between atoms: S_2  and  C_13
REMARK    3  A    between atoms: C_5  and  C_6
REMARK    4  A    between atoms: C_16  and  O_17
REMARK    5  A    between atoms: O_17  and  C_18
REMARK    6  A    between atoms: C_18  and  C_19
REMARK    7  A    between atoms: C_19  and  C_20
REMARK    8  A    between atoms: C_20  and  N_21
REMARK                            x       y       z     vdW  Elec       q    Type
REMARK                         _______ _______ _______ _____ _____    ______ ____
ROOT
ATOM      1  C   UNL     1       1.402   8.942  19.976  0.00  0.00    +0.000 A 
ATOM      2  C   UNL     1       1.976   8.640  18.741  0.00  0.00    +0.000 A 
ATOM      3  C   UNL     1       2.488   7.373  18.506  0.00  0.00    +0.000 A 
ATOM      4  C   UNL     1       2.432   6.389  19.515  0.00  0.00    +0.000 A 
ATOM      5  C   UNL     1       1.838   6.692  20.743  0.00  0.00    +0.000 A 
ATOM      6  C   UNL     1       1.324   7.967  20.977  0.00  0.00    +0.000 A 
ENDROOT
BRANCH   1   8
ATOM      7  O   UNL     1       1.784  11.589  19.922  0.00  0.00    +0.000 OA
ATOM      8  S   UNL     1       0.712  10.546  20.269  0.00  0.00    +0.000 S 
ATOM      9  O   UNL     1       0.550  10.803  21.775  0.00  0.00    +0.000 OA
BRANCH   8  10
ATOM     10  C   UNL     1      -0.746  10.993  19.372  0.00  0.00    +0.000 C 
ATOM     11  C   UNL     1      -1.209  10.256  18.357  0.00  0.00    +0.000 C 
BRANCH  11  12
ATOM     12  C   UNL     1      -2.412  10.663  17.596  0.00  0.00    +0.000 A 
ATOM     13  C   UNL     1      -3.481  11.347  18.213  0.00  0.00    +0.000 A 
ATOM     14  C   UNL     1      -4.617  11.689  17.487  0.00  0.00    +0.000 A 
ATOM     15  C   UNL     1      -4.709  11.348  16.136  0.00  0.00    +0.000 A 
ATOM     16  C   UNL     1      -3.647  10.686  15.507  0.00  0.00    +0.000 A 
ATOM     17  F   UNL     1      -3.743  10.352  14.198  0.00  0.00    +0.000 F 
ATOM     18  C   UNL     1      -2.500  10.357  16.231  0.00  0.00    +0.000 A 
ENDBRANCH  11  12
ENDBRANCH   8  10
ENDBRANCH   1   8
BRANCH   4  19
ATOM     19  O   UNL     1       2.939   5.150  19.337  0.00  0.00    +0.000 OA
BRANCH  19  20
ATOM     20  C   UNL     1       2.984   4.499  18.125  0.00  0.00    +0.000 C 
BRANCH  20  21
ATOM     21  C   UNL     1       4.423   4.240  17.735  0.00  0.00    +0.000 C 
BRANCH  21  22
ATOM     22  C   UNL     1       5.413   4.713  18.817  0.00  0.00    +0.000 C 
BRANCH  22  23
ATOM     23  N   UNL     1       6.808   4.577  18.344  0.00  0.00    +0.000 NA
ATOM     24  C   UNL     1       7.722   5.658  18.777  0.00  0.00    +0.000 C 
ATOM     25  C   UNL     1       7.504   6.939  17.958  0.00  0.00    +0.000 C 
ATOM     26  O   UNL     1       7.697   6.679  16.582  0.00  0.00    +0.000 OA
ATOM     27  C   UNL     1       6.731   5.745  16.141  0.00  0.00    +0.000 C 
ATOM     28  C   UNL     1       6.894   4.403  16.879  0.00  0.00    +0.000 C 
ENDBRANCH  22  23
ENDBRANCH  21  22
ENDBRANCH  20  21
ENDBRANCH  19  20
ENDBRANCH   4  19
TORSDOF 8
ENDMDL
MODEL 2
REMARK VINA RESULT:      -7.8      1.725      2.464
REMARK  Name = 
REMARK  8 active torsions:
REMARK  status: ('A' for Active; 'I' for Inactive)
REMARK    1  A    between atoms: S_2  and  C_4
REMARK    2  A    between atoms: S_2  and  C_13
REMARK    3  A    between atoms: C_5  and  C_6
REMARK    4  A    between atoms: C_16  and  O_17
REMARK    5  A    between atoms: O_17  and  C_18
REMARK    6  A    between atoms: C_18  and  C_19
REMARK    7  A    between atoms: C_19  and  C_20
REMARK    8  A    between atoms: C_20  and  N_21
REMARK                            x       y       z     vdW  Elec       q    Type
REMARK                         _______ _______ _______ _____ _____    ______ ____
ROOT
ATOM      1  C   UNL     1       1.302   9.262  19.661  0.00  0.00    +0.000 A 
ATOM      2  C   UNL     1       1.337   8.337  20.704  0.00  0.00    +0.000 A 
ATOM      3  C   UNL     1       1.818   7.056  20.477  0.00  0.00    +0.000 A 
ATOM      4  C   UNL     1       2.269   6.686  19.193  0.00  0.00    +0.000 A 
ATOM      5  C   UNL     1       2.249   7.625  18.157  0.00  0.00    +0.000 A 
ATOM      6  C   UNL     1       1.765   8.912  18.388  0.00  0.00    +0.000 A 
ENDROOT
BRANCH   1   8
ATOM      7  O   UNL     1       1.489  11.849  19.008  0.00  0.00    +0.000 OA
ATOM      8  S   UNL     1       0.725  10.911  19.953  0.00  0.00    +0.000 S 
ATOM      9  O   UNL     1       1.215  11.426  21.315  0.00  0.00    +0.000 OA
BRANCH   8  10
ATOM     10  C   UNL     1      -0.997  11.235  19.715  0.00  0.00    +0.000 C 
ATOM     11  C   UNL     1      -1.556  11.254  18.501  0.00  0.00    +0.000 C 
BRANCH  11  12
ATOM     12  C   UNL     1      -2.993  11.560  18.318  0.00  0.00    +0.000 A 
ATOM     13  C   UNL     1      -3.642  11.350  17.083  0.00  0.00    +0.000 A 
ATOM     14  C   UNL     1      -4.985  11.677  16.924  0.00  0.00    +0.000 A 
ATOM     15  C   UNL     1      -5.699  12.226  17.991  0.00  0.00    +0.000 A 
ATOM     16  C   UNL     1      -5.071  12.423  19.226  0.00  0.00    +0.000 A 
ATOM     17  F   UNL     1      -5.767  12.961  20.256  0.00  0.00    +0.000 F 
ATOM     18  C   UNL     1      -3.729  12.079  19.392  0.00  0.00    +0.000 A 
ENDBRANCH  11  12
ENDBRANCH   8  10
ENDBRANCH   1   8
BRANCH   4  19
ATOM     19  O   UNL     1       2.722   5.443  18.923  0.00  0.00    +0.000 OA
BRANCH  19  20
ATOM     20  C   UNL     1       2.209   4.629  17.939  0.00  0.00    +0.000 C 
BRANCH  20  21
ATOM     21  C   UNL     1       3.307   3.755  17.374  0.00  0.00    +0.000 C 
BRANCH  21  22
ATOM     22  C   UNL     1       4.698   4.405  17.509  0.00  0.00    +0.000 C 
BRANCH  22  23
ATOM     23  N   UNL     1       4.895   5.440  16.470  0.00  0.00    +0.000 NA
ATOM     24  C   UNL     1       5.484   4.949  15.205  0.00  0.00    +0.000 C 
ATOM     25  C   UNL     1       6.996   4.712  15.343  0.00  0.00    +0.000 C 
ATOM     26  O   UNL     1       7.645   5.905  15.735  0.00  0.00    +0.000 OA
ATOM     27  C   UNL     1       7.175   6.296  17.011  0.00  0.00    +0.000 C 
ATOM     28  C   UNL     1       5.666   6.600  16.967  0.00  0.00    +0.000 C 
ENDBRANCH  22  23
ENDBRANCH  21  22
ENDBRANCH  20  21
ENDBRANCH  19  20
ENDBRANCH   4  19
TORSDOF 8
ENDMDL
MODEL 3
REMARK VINA RESULT:      -7.7      2.025      3.490
REMARK  Name = 
REMARK  8 active torsions:
REMARK  status: ('A' for Active; 'I' for Inactive)
REMARK    1  A    between atoms: S_2  and  C_4
REMARK    2  A    between atoms: S_2  and  C_13
REMARK    3  A    between atoms: C_5  and  C_6
REMARK    4  A    between atoms: C_16  and  O_17
REMARK    5  A    between atoms: O_17  and  C_18
REMARK    6  A    between atoms: C_18  and  C_19
REMARK    7  A    between atoms: C_19  and  C_20
REMARK    8  A    between atoms: C_20  and  N_21
REMARK                            x       y       z     vdW  Elec       q    Type
REMARK                         _______ _______ _______ _____ _____    ______ ____
ROOT
ATOM      1  C   UNL     1       1.412   8.635  19.661  0.00  0.00    +0.000 A 
ATOM      2  C   UNL     1       1.715   7.544  20.475  0.00  0.00    +0.000 A 
ATOM      3  C   UNL     1       2.587   6.563  20.023  0.00  0.00    +0.000 A 
ATOM      4  C   UNL     1       3.165   6.667  18.741  0.00  0.00    +0.000 A 
ATOM      5  C   UNL     1       2.872   7.773  17.939  0.00  0.00    +0.000 A 
ATOM      6  C   UNL     1       1.996   8.757  18.395  0.00  0.00    +0.000 A 
ENDROOT
BRANCH   1   8
ATOM      7  O   UNL     1       1.199  11.093  20.692  0.00  0.00    +0.000 OA
ATOM      8  S   UNL     1       0.331   9.909  20.246  0.00  0.00    +0.000 S 
ATOM      9  O   UNL     1      -0.306   9.510  21.586  0.00  0.00    +0.000 OA
BRANCH   8  10
ATOM     10  C   UNL     1      -0.872  10.551  19.119  0.00  0.00    +0.000 C 
ATOM     11  C   UNL     1      -1.585   9.758  18.313  0.00  0.00    +0.000 C 
BRANCH  11  12
ATOM     12  C   UNL     1      -2.564  10.315  17.352  0.00  0.00    +0.000 A 
ATOM     13  C   UNL     1      -3.632  11.134  17.776  0.00  0.00    +0.000 A 
ATOM     14  C   UNL     1      -4.560  11.618  16.861  0.00  0.00    +0.000 A 
ATOM     15  C   UNL     1      -4.442  11.289  15.509  0.00  0.00    +0.000 A 
ATOM     16  C   UNL     1      -3.376  10.493  15.073  0.00  0.00    +0.000 A 
ATOM     17  F   UNL     1      -3.269  10.172  13.761  0.00  0.00    +0.000 F 
ATOM     18  C   UNL     1      -2.435  10.020  15.988  0.00  0.00    +0.000 A 
ENDBRANCH  11  12
ENDBRANCH   8  10
ENDBRANCH   1   8
BRANCH   4  19
ATOM     19  O   UNL     1       3.999   5.723  18.253  0.00  0.00    +0.000 OA
BRANCH  19  20
ATOM     20  C   UNL     1       3.699   4.899  17.193  0.00  0.00    +0.000 C 
BRANCH  20  21
ATOM     21  C   UNL     1       3.841   3.452  17.614  0.00  0.00    +0.000 C 
BRANCH  21  22
ATOM     22  C   UNL     1       4.097   3.308  19.126  0.00  0.00    +0.000 C 
BRANCH  22  23
ATOM     23  N   UNL     1       3.271   2.221  19.696  0.00  0.00    +0.000 NA
ATOM     24  C   UNL     1       1.909   2.110  19.129  0.00  0.00    +0.000 C 
ATOM     25  C   UNL     1       0.976   3.195  19.690  0.00  0.00    +0.000 C 
ATOM     26  O   UNL     1       0.911   3.104  21.099  0.00  0.00    +0.000 OA
ATOM     27  C   UNL     1       2.194   3.347  21.644  0.00  0.00    +0.000 C 
ATOM     28  C   UNL     1       3.198   2.279  21.171  0.00  0.00    +0.000 C 
ENDBRANCH  22  23
ENDBRANCH  21  22
ENDBRANCH  20  21
ENDBRANCH  19  20
ENDBRANCH   4  19
TORSDOF 8
ENDMDL
MODEL 4
REMARK VINA RESULT:      -7.7      1.997      3.349
REMARK  Name = 
REMARK  8 active torsions:
REMARK  status: ('A' for Active; 'I' for Inactive)
REMARK    1  A    between atoms: S_2  and  C_4
REMARK    2  A    between atoms: S_2  and  C_13
REMARK    3  A    between atoms: C_5  and  C_6
REMARK    4  A    between atoms: C_16  and  O_17
REMARK    5  A    between atoms: O_17  and  C_18
REMARK    6  A    between atoms: C_18  and  C_19
REMARK    7  A    between atoms: C_19  and  C_20
REMARK    8  A    between atoms: C_20  and  N_21
REMARK                            x       y       z     vdW  Elec       q    Type
REMARK                         _______ _______ _______ _____ _____    ______ ____
ROOT
ATOM      1  C   UNL     1       1.619   8.627  19.642  0.00  0.00    +0.000 A 
ATOM      2  C   UNL     1       2.123   8.773  18.350  0.00  0.00    +0.000 A 
ATOM      3  C   UNL     1       2.922   7.780  17.802  0.00  0.00    +0.000 A 
ATOM      4  C   UNL     1       3.227   6.624  18.549  0.00  0.00    +0.000 A 
ATOM      5  C   UNL     1       2.702   6.476  19.836  0.00  0.00    +0.000 A 
ATOM      6  C   UNL     1       1.900   7.475  20.385  0.00  0.00    +0.000 A 
ENDROOT
BRANCH   1   8
ATOM      7  O   UNL     1       1.340  11.198  20.323  0.00  0.00    +0.000 OA
ATOM      8  S   UNL     1       0.567   9.872  20.333  0.00  0.00    +0.000 S 
ATOM      9  O   UNL     1       0.394   9.662  21.845  0.00  0.00    +0.000 OA
BRANCH   8  10
ATOM     10  C   UNL     1      -0.983  10.177  19.537  0.00  0.00    +0.000 C 
ATOM     11  C   UNL     1      -1.060  10.650  18.289  0.00  0.00    +0.000 C 
BRANCH  11  12
ATOM     12  C   UNL     1      -2.366  10.930  17.650  0.00  0.00    +0.000 A 
ATOM     13  C   UNL     1      -3.397  11.603  18.340  0.00  0.00    +0.000 A 
ATOM     14  C   UNL     1      -4.628  11.825  17.732  0.00  0.00    +0.000 A 
ATOM     15  C   UNL     1      -4.854  11.375  16.430  0.00  0.00    +0.000 A 
ATOM     16  C   UNL     1      -3.833  10.722  15.728  0.00  0.00    +0.000 A 
ATOM     17  F   UNL     1      -4.058  10.282  14.467  0.00  0.00    +0.000 F 
ATOM     18  C   UNL     1      -2.591  10.513  16.331  0.00  0.00    +0.000 A 
ENDBRANCH  11  12
ENDBRANCH   8  10
ENDBRANCH   1   8
BRANCH   4  19
ATOM     19  O   UNL     1       4.020   5.645  18.063  0.00  0.00    +0.000 OA
BRANCH  19  20
ATOM     20  C   UNL     1       3.601   4.678  17.179  0.00  0.00    +0.000 C 
BRANCH  20  21
ATOM     21  C   UNL     1       4.054   3.316  17.657  0.00  0.00    +0.000 C 
BRANCH  21  22
ATOM     22  C   UNL     1       4.195   3.255  19.191  0.00  0.00    +0.000 C 
BRANCH  22  23
ATOM     23  N   UNL     1       3.336   2.190  19.753  0.00  0.00    +0.000 NA
ATOM     24  C   UNL     1       2.013   2.047  19.106  0.00  0.00    +0.000 C 
ATOM     25  C   UNL     1       1.045   3.152  19.556  0.00  0.00    +0.000 C 
ATOM     26  O   UNL     1       0.889   3.123  20.960  0.00  0.00    +0.000 OA
ATOM     27  C   UNL     1       2.133   3.396  21.576  0.00  0.00    +0.000 C 
ATOM     28  C   UNL     1       3.168   2.314  21.217  0.00  0.00    +0.000 C 
ENDBRANCH  22  23
ENDBRANCH  21  22
ENDBRANCH  20  21
ENDBRANCH  19  20
ENDBRANCH   4  19
TORSDOF 8
ENDMDL
MODEL 5
REMARK VINA RESULT:      -7.7      1.391      1.972
REMARK  Name = 
REMARK  8 active torsions:
REMARK  status: ('A' for Active; 'I' for Inactive)
REMARK    1  A    between atoms: S_2  and  C_4
REMARK    2  A    between atoms: S_2  and  C_13
REMARK    3  A    between atoms: C_5  and  C_6
REMARK    4  A    between atoms: C_16  and  O_17
REMARK    5  A    between atoms: O_17  and  C_18
REMARK    6  A    between atoms: C_18  and  C_19
REMARK    7  A    between atoms: C_19  and  C_20
REMARK    8  A    between atoms: C_20  and  N_21
REMARK                            x       y       z     vdW  Elec       q    Type
REMARK                         _______ _______ _______ _____ _____    ______ ____
ROOT
ATOM      1  C   UNL     1       1.433   8.850  19.788  0.00  0.00    +0.000 A 
ATOM      2  C   UNL     1       1.404   7.905  20.813  0.00  0.00    +0.000 A 
ATOM      3  C   UNL     1       1.893   6.626  20.590  0.00  0.00    +0.000 A 
ATOM      4  C   UNL     1       2.417   6.279  19.327  0.00  0.00    +0.000 A 
ATOM      5  C   UNL     1       2.461   7.237  18.311  0.00  0.00    +0.000 A 
ATOM      6  C   UNL     1       1.969   8.522  18.537  0.00  0.00    +0.000 A 
ENDROOT
BRANCH   1   8
ATOM      7  O   UNL     1       1.809  11.466  19.381  0.00  0.00    +0.000 OA
ATOM      8  S   UNL     1       0.846  10.495  20.077  0.00  0.00    +0.000 S 
ATOM      9  O   UNL     1       1.055  10.898  21.545  0.00  0.00    +0.000 OA
BRANCH   8  10
ATOM     10  C   UNL     1      -0.783  10.899  19.518  0.00  0.00    +0.000 C 
ATOM     11  C   UNL     1      -1.220  10.562  18.300  0.00  0.00    +0.000 C 
BRANCH  11  12
ATOM     12  C   UNL     1      -2.575  10.938  17.836  0.00  0.00    +0.000 A 
ATOM     13  C   UNL     1      -3.007  10.668  16.521  0.00  0.00    +0.000 A 
ATOM     14  C   UNL     1      -4.272  11.060  16.096  0.00  0.00    +0.000 A 
ATOM     15  C   UNL     1      -5.124  11.734  16.974  0.00  0.00    +0.000 A 
ATOM     16  C   UNL     1      -4.714  11.992  18.287  0.00  0.00    +0.000 A 
ATOM     17  F   UNL     1      -5.541  12.651  19.133  0.00  0.00    +0.000 F 
ATOM     18  C   UNL     1      -3.451  11.584  18.720  0.00  0.00    +0.000 A 
ENDBRANCH  11  12
ENDBRANCH   8  10
ENDBRANCH   1   8
BRANCH   4  19
ATOM     19  O   UNL     1       2.881   5.039  19.060  0.00  0.00    +0.000 OA
BRANCH  19  20
ATOM     20  C   UNL     1       2.233   4.126  18.259  0.00  0.00    +0.000 C 
BRANCH  20  21
ATOM     21  C   UNL     1       3.244   3.368  17.427  0.00  0.00    +0.000 C 
BRANCH  21  22
ATOM     22  C   UNL     1       4.150   4.309  16.610  0.00  0.00    +0.000 C 
BRANCH  22  23
ATOM     23  N   UNL     1       5.577   3.990  16.837  0.00  0.00    +0.000 NA
ATOM     24  C   UNL     1       6.297   4.938  17.714  0.00  0.00    +0.000 C 
ATOM     25  C   UNL     1       6.643   6.239  16.973  0.00  0.00    +0.000 C 
ATOM     26  O   UNL     1       7.430   5.958  15.833  0.00  0.00    +0.000 OA
ATOM     27  C   UNL     1       6.684   5.161  14.933  0.00  0.00    +0.000 C 
ATOM     28  C   UNL     1       6.323   3.808  15.573  0.00  0.00    +0.000 C 
ENDBRANCH  22  23
ENDBRANCH  21  22
ENDBRANCH  20  21
ENDBRANCH  19  20
ENDBRANCH   4  19
TORSDOF 8
ENDMDL
MODEL 6
REMARK VINA RESULT:      -7.7      0.907      1.396
REMARK  Name = 
REMARK  8 active torsions:
REMARK  status: ('A' for Active; 'I' for Inactive)
REMARK    1  A    between atoms: S_2  and  C_4
REMARK    2  A    between atoms: S_2  and  C_13
REMARK    3  A    between atoms: C_5  and  C_6
REMARK    4  A    between atoms: C_16  and  O_17
REMARK    5  A    between atoms: O_17  and  C_18
REMARK    6  A    between atoms: C_18  and  C_19
REMARK    7  A    between atoms: C_19  and  C_20
REMARK    8  A    between atoms: C_20  and  N_21
REMARK                            x       y       z     vdW  Elec       q    Type
REMARK                         _______ _______ _______ _____ _____    ______ ____
ROOT
ATOM      1  C   UNL     1       1.306   8.952  19.880  0.00  0.00    +0.000 A 
ATOM      2  C   UNL     1       1.426   7.953  20.845  0.00  0.00    +0.000 A 
ATOM      3  C   UNL     1       2.158   6.807  20.570  0.00  0.00    +0.000 A 
ATOM      4  C   UNL     1       2.780   6.650  19.314  0.00  0.00    +0.000 A 
ATOM      5  C   UNL     1       2.671   7.664  18.358  0.00  0.00    +0.000 A 
ATOM      6  C   UNL     1       1.935   8.815  18.637  0.00  0.00    +0.000 A 
ENDROOT
BRANCH   1   8
ATOM      7  O   UNL     1       1.415  11.584  20.342  0.00  0.00    +0.000 OA
ATOM      8  S   UNL     1       0.405  10.433  20.239  0.00  0.00    +0.000 S 
ATOM      9  O   UNL     1      -0.136  10.407  21.676  0.00  0.00    +0.000 OA
BRANCH   8  10
ATOM     10  C   UNL     1      -0.836  10.943  19.086  0.00  0.00    +0.000 C 
ATOM     11  C   UNL     1      -1.581  10.063  18.408  0.00  0.00    +0.000 C 
BRANCH  11  12
ATOM     12  C   UNL     1      -2.593  10.507  17.422  0.00  0.00    +0.000 A 
ATOM     13  C   UNL     1      -3.721  11.260  17.810  0.00  0.00    +0.000 A 
ATOM     14  C   UNL     1      -4.677  11.637  16.872  0.00  0.00    +0.000 A 
ATOM     15  C   UNL     1      -4.526  11.263  15.535  0.00  0.00    +0.000 A 
ATOM     16  C   UNL     1      -3.402  10.531  15.135  0.00  0.00    +0.000 A 
ATOM     17  F   UNL     1      -3.264  10.166  13.838  0.00  0.00    +0.000 F 
ATOM     18  C   UNL     1      -2.434  10.167  16.072  0.00  0.00    +0.000 A 
ENDBRANCH  11  12
ENDBRANCH   8  10
ENDBRANCH   1   8
BRANCH   4  19
ATOM     19  O   UNL     1       3.481   5.541  18.995  0.00  0.00    +0.000 OA
BRANCH  19  20
ATOM     20  C   UNL     1       2.922   4.296  18.818  0.00  0.00    +0.000 C 
BRANCH  20  21
ATOM     21  C   UNL     1       3.149   3.831  17.396  0.00  0.00    +0.000 C 
BRANCH  21  22
ATOM     22  C   UNL     1       4.210   4.679  16.668  0.00  0.00    +0.000 C 
BRANCH  22  23
ATOM     23  N   UNL     1       5.550   4.066  16.800  0.00  0.00    +0.000 NA
ATOM     24  C   UNL     1       6.532   4.870  17.560  0.00  0.00    +0.000 C 
ATOM     25  C   UNL     1       7.079   6.033  16.719  0.00  0.00    +0.000 C 
ATOM     26  O   UNL     1       7.683   5.541  15.539  0.00  0.00    +0.000 OA
ATOM     27  C   UNL     1       6.706   4.890  14.749  0.00  0.00    +0.000 C 
ATOM     28  C   UNL     1       6.124   3.675  15.494  0.00  0.00    +0.000 C 
ENDBRANCH  22  23
ENDBRANCH  21  22
ENDBRANCH  20  21
ENDBRANCH  19  20
ENDBRANCH   4  19
TORSDOF 8
ENDMDL
MODEL 7
REMARK VINA RESULT:      -7.6      4.168      9.585
REMARK  Name = 
REMARK  8 active torsions:
REMARK  status: ('A' for Active; 'I' for Inactive)
REMARK    1  A    between atoms: S_2  and  C_4
REMARK    2  A    between atoms: S_2  and  C_13
REMARK    3  A    between atoms: C_5  and  C_6
REMARK    4  A    between atoms: C_16  and  O_17
REMARK    5  A    between atoms: O_17  and  C_18
REMARK    6  A    between atoms: C_18  and  C_19
REMARK    7  A    between atoms: C_19  and  C_20
REMARK    8  A    between atoms: C_20  and  N_21
REMARK                            x       y       z     vdW  Elec       q    Type
REMARK                         _______ _______ _______ _____ _____    ______ ____
ROOT
ATOM      1  C   UNL     1       3.750   5.636  18.651  0.00  0.00    +0.000 A 
ATOM      2  C   UNL     1       3.011   5.671  19.833  0.00  0.00    +0.000 A 
ATOM      3  C   UNL     1       2.191   6.756  20.106  0.00  0.00    +0.000 A 
ATOM      4  C   UNL     1       2.105   7.826  19.190  0.00  0.00    +0.000 A 
ATOM      5  C   UNL     1       2.833   7.775  17.998  0.00  0.00    +0.000 A 
ATOM      6  C   UNL     1       3.657   6.683  17.727  0.00  0.00    +0.000 A 
ENDROOT
BRANCH   1   8
ATOM      7  O   UNL     1       4.023   2.977  18.741  0.00  0.00    +0.000 OA
ATOM      8  S   UNL     1       4.768   4.237  18.279  0.00  0.00    +0.000 S 
ATOM      9  O   UNL     1       5.993   4.192  19.206  0.00  0.00    +0.000 OA
BRANCH   8  10
ATOM     10  C   UNL     1       5.222   3.973  16.590  0.00  0.00    +0.000 C 
ATOM     11  C   UNL     1       6.106   4.753  15.961  0.00  0.00    +0.000 C 
BRANCH  11  12
ATOM     12  C   UNL     1       6.449   4.538  14.536  0.00  0.00    +0.000 A 
ATOM     13  C   UNL     1       7.502   5.242  13.915  0.00  0.00    +0.000 A 
ATOM     14  C   UNL     1       7.784   5.049  12.567  0.00  0.00    +0.000 A 
ATOM     15  C   UNL     1       7.017   4.157  11.815  0.00  0.00    +0.000 A 
ATOM     16  C   UNL     1       5.981   3.439  12.424  0.00  0.00    +0.000 A 
ATOM     17  F   UNL     1       5.236   2.579  11.690  0.00  0.00    +0.000 F 
ATOM     18  C   UNL     1       5.708   3.619  13.781  0.00  0.00    +0.000 A 
ENDBRANCH  11  12
ENDBRANCH   8  10
ENDBRANCH   1   8
BRANCH   4  19
ATOM     19  O   UNL     1       1.338   8.912  19.427  0.00  0.00    +0.000 OA
BRANCH  19  20
ATOM     20  C   UNL     1       1.002   9.845  18.473  0.00  0.00    +0.000 C 
BRANCH  20  21
ATOM     21  C   UNL     1      -0.446  10.250  18.640  0.00  0.00    +0.000 C 
BRANCH  21  22
ATOM     22  C   UNL     1      -0.636  11.777  18.563  0.00  0.00    +0.000 C 
BRANCH  22  23
ATOM     23  N   UNL     1       0.423  12.476  19.324  0.00  0.00    +0.000 NA
ATOM     24  C   UNL     1       0.129  12.681  20.759  0.00  0.00    +0.000 C 
ATOM     25  C   UNL     1      -0.867  13.831  20.970  0.00  0.00    +0.000 C 
ATOM     26  O   UNL     1      -0.357  15.028  20.416  0.00  0.00    +0.000 OA
ATOM     27  C   UNL     1      -0.206  14.870  19.018  0.00  0.00    +0.000 C 
ATOM     28  C   UNL     1       0.812  13.759  18.701  0.00  0.00    +0.000 C 
ENDBRANCH  22  23
ENDBRANCH  21  22
ENDBRANCH  20  21
ENDBRANCH  19  20
ENDBRANCH   4  19
TORSDOF 8
ENDMDL
MODEL 8
REMARK VINA RESULT:      -7.6      4.416      9.879
REMARK  Name = 
REMARK  8 active torsions:
REMARK  status: ('A' for Active; 'I' for Inactive)
REMARK    1  A    between atoms: S_2  and  C_4
REMARK    2  A    between atoms: S_2  and  C_13
REMARK    3  A    between atoms: C_5  and  C_6
REMARK    4  A    between atoms: C_16  and  O_17
REMARK    5  A    between atoms: O_17  and  C_18
REMARK    6  A    between atoms: C_18  and  C_19
REMARK    7  A    between atoms: C_19  and  C_20
REMARK    8  A    between atoms: C_20  and  N_21
REMARK                            x       y       z     vdW  Elec       q    Type
REMARK                         _______ _______ _______ _____ _____    ______ ____
ROOT
ATOM      1  C   UNL     1       3.502   5.512  18.668  0.00  0.00    +0.000 A 
ATOM      2  C   UNL     1       3.521   6.634  17.840  0.00  0.00    +0.000 A 
ATOM      3  C   UNL     1       2.813   7.771  18.199  0.00  0.00    +0.000 A 
ATOM      4  C   UNL     1       2.073   7.795  19.398  0.00  0.00    +0.000 A 
ATOM      5  C   UNL     1       2.074   6.673  20.233  0.00  0.00    +0.000 A 
ATOM      6  C   UNL     1       2.786   5.531  19.870  0.00  0.00    +0.000 A 
ENDROOT
BRANCH   1   8
ATOM      7  O   UNL     1       3.579   2.840  18.568  0.00  0.00    +0.000 OA
ATOM      8  S   UNL     1       4.435   4.070  18.234  0.00  0.00    +0.000 S 
ATOM      9  O   UNL     1       5.607   3.867  19.206  0.00  0.00    +0.000 OA
BRANCH   8  10
ATOM     10  C   UNL     1       4.947   3.895  16.550  0.00  0.00    +0.000 C 
ATOM     11  C   UNL     1       5.991   4.566  16.052  0.00  0.00    +0.000 C 
BRANCH  11  12
ATOM     12  C   UNL     1       6.386   4.433  14.631  0.00  0.00    +0.000 A 
ATOM     13  C   UNL     1       7.431   5.204  14.079  0.00  0.00    +0.000 A 
ATOM     14  C   UNL     1       7.762   5.087  12.733  0.00  0.00    +0.000 A 
ATOM     15  C   UNL     1       7.053   4.205  11.915  0.00  0.00    +0.000 A 
ATOM     16  C   UNL     1       6.026   3.421  12.455  0.00  0.00    +0.000 A 
ATOM     17  F   UNL     1       5.338   2.571  11.657  0.00  0.00    +0.000 F 
ATOM     18  C   UNL     1       5.704   3.525  13.809  0.00  0.00    +0.000 A 
ENDBRANCH  11  12
ENDBRANCH   8  10
ENDBRANCH   1   8
BRANCH   4  19
ATOM     19  O   UNL     1       1.351   8.873  19.774  0.00  0.00    +0.000 OA
BRANCH  19  20
ATOM     20  C   UNL     1       0.760   9.752  18.895  0.00  0.00    +0.000 C 
BRANCH  20  21
ATOM     21  C   UNL     1       0.565  11.094  19.568  0.00  0.00    +0.000 C 
BRANCH  21  22
ATOM     22  C   UNL     1      -0.802  11.199  20.271  0.00  0.00    +0.000 C 
BRANCH  22  23
ATOM     23  N   UNL     1      -0.892  12.449  21.058  0.00  0.00    +0.000 NA
ATOM     24  C   UNL     1      -0.817  12.269  22.524  0.00  0.00    +0.000 C 
ATOM     25  C   UNL     1      -2.143  11.743  23.094  0.00  0.00    +0.000 C 
ATOM     26  O   UNL     1      -3.198  12.631  22.779  0.00  0.00    +0.000 OA
ATOM     27  C   UNL     1      -3.354  12.693  21.374  0.00  0.00    +0.000 C 
ATOM     28  C   UNL     1      -2.083  13.252  20.709  0.00  0.00    +0.000 C 
ENDBRANCH  22  23
ENDBRANCH  21  22
ENDBRANCH  20  21
ENDBRANCH  19  20
ENDBRANCH   4  19
TORSDOF 8
ENDMDL
MODEL 9
REMARK VINA RESULT:      -7.6      4.477      9.794
REMARK  Name = 
REMARK  8 active torsions:
REMARK  status: ('A' for Active; 'I' for Inactive)
REMARK    1  A    between atoms: S_2  and  C_4
REMARK    2  A    between atoms: S_2  and  C_13
REMARK    3  A    between atoms: C_5  and  C_6
REMARK    4  A    between atoms: C_16  and  O_17
REMARK    5  A    between atoms: O_17  and  C_18
REMARK    6  A    between atoms: C_18  and  C_19
REMARK    7  A    between atoms: C_19  and  C_20
REMARK    8  A    between atoms: C_20  and  N_21
REMARK                            x       y       z     vdW  Elec       q    Type
REMARK                         _______ _______ _______ _____ _____    ______ ____
ROOT
ATOM      1  C   UNL     1       3.824   5.845  18.602  0.00  0.00    +0.000 A 
ATOM      2  C   UNL     1       3.740   6.921  17.720  0.00  0.00    +0.000 A 
ATOM      3  C   UNL     1       2.876   7.972  17.988  0.00  0.00    +0.000 A 
ATOM      4  C   UNL     1       2.079   7.954  19.152  0.00  0.00    +0.000 A 
ATOM      5  C   UNL     1       2.183   6.881  20.042  0.00  0.00    +0.000 A 
ATOM      6  C   UNL     1       3.052   5.826  19.770  0.00  0.00    +0.000 A 
ENDROOT
BRANCH   1   8
ATOM      7  O   UNL     1       4.162   3.204  18.348  0.00  0.00    +0.000 OA
ATOM      8  S   UNL     1       4.953   4.519  18.285  0.00  0.00    +0.000 S 
ATOM      9  O   UNL     1       5.912   4.325  19.468  0.00  0.00    +0.000 OA
BRANCH   8  10
ATOM     10  C   UNL     1       5.816   4.523  16.741  0.00  0.00    +0.000 C 
ATOM     11  C   UNL     1       5.190   4.329  15.576  0.00  0.00    +0.000 C 
BRANCH  11  12
ATOM     12  C   UNL     1       5.934   4.303  14.296  0.00  0.00    +0.000 A 
ATOM     13  C   UNL     1       5.525   3.487  13.220  0.00  0.00    +0.000 A 
ATOM     14  C   UNL     1       6.259   3.452  12.039  0.00  0.00    +0.000 A 
ATOM     15  C   UNL     1       7.415   4.225  11.914  0.00  0.00    +0.000 A 
ATOM     16  C   UNL     1       7.821   5.052  12.967  0.00  0.00    +0.000 A 
ATOM     17  F   UNL     1       8.947   5.796  12.844  0.00  0.00    +0.000 F 
ATOM     18  C   UNL     1       7.077   5.101  14.147  0.00  0.00    +0.000 A 
ENDBRANCH  11  12
ENDBRANCH   8  10
ENDBRANCH   1   8
BRANCH   4  19
ATOM     19  O   UNL     1       1.208   8.944  19.440  0.00  0.00    +0.000 OA
BRANCH  19  20
ATOM     20  C   UNL     1       0.757   9.869  18.524  0.00  0.00    +0.000 C 
BRANCH  20  21
ATOM     21  C   UNL     1       1.094  11.265  18.999  0.00  0.00    +0.000 C 
BRANCH  21  22
ATOM     22  C   UNL     1       0.065  11.799  20.014  0.00  0.00    +0.000 C 
BRANCH  22  23
ATOM     23  N   UNL     1      -1.010  12.548  19.326  0.00  0.00    +0.000 NA
ATOM     24  C   UNL     1      -0.542  13.539  18.333  0.00  0.00    +0.000 C 
ATOM     25  C   UNL     1      -0.010  14.809  19.014  0.00  0.00    +0.000 C 
ATOM     26  O   UNL     1      -1.014  15.388  19.824  0.00  0.00    +0.000 OA
ATOM     27  C   UNL     1      -1.361  14.486  20.857  0.00  0.00    +0.000 C 
ATOM     28  C   UNL     1      -1.948  13.188  20.273  0.00  0.00    +0.000 C 
ENDBRANCH  22  23
ENDBRANCH  21  22
ENDBRANCH  20  21
ENDBRANCH  19  20
ENDBRANCH   4  19
TORSDOF 8
ENDMDL
