MODEL 1
REMARK VINA RESULT:      -9.1      0.000      0.000
REMARK  Name = 
REMARK  4 active torsions:
REMARK  status: ('A' for Active; 'I' for Inactive)
REMARK    1  A    between atoms: C_1  and  C_2
REMARK    2  A    between atoms: C_5  and  O_6
REMARK    3  A    between atoms: O_6  and  C_7
REMARK    4  A    between atoms: C_22  and  C_23
REMARK                            x       y       z     vdW  Elec       q    Type
REMARK                         _______ _______ _______ _____ _____    ______ ____
ROOT
ATOM      1  C   UNL     1       3.281   5.647  18.717  0.00  0.00    +0.000 A 
ATOM      2  C   UNL     1       2.460   4.535  19.017  0.00  0.00    +0.000 A 
ATOM      3  C   UNL     1       2.555   3.430  18.166  0.00  0.00    +0.000 A 
ATOM      4  N   UNL     1       3.425   3.363  17.131  0.00  0.00    +0.000 NA
ATOM      5  C   UNL     1       4.248   4.389  16.896  0.00  0.00    +0.000 A 
ATOM      6  C   UNL     1       5.149   4.274  15.844  0.00  0.00    +0.000 A 
ATOM      7  C   UNL     1       6.052   5.289  15.530  0.00  0.00    +0.000 A 
ATOM      8  C   UNL     1       6.052   6.457  16.277  0.00  0.00    +0.000 A 
ATOM      9  C   UNL     1       5.149   6.602  17.331  0.00  0.00    +0.000 A 
ATOM     10  C   UNL     1       4.227   5.572  17.660  0.00  0.00    +0.000 A 
ATOM     11  C   UNL     1       1.735   2.179  18.365  0.00  0.00    +0.000 C 
ATOM     12  C   UNL     1       0.588   2.309  19.361  0.00  0.00    +0.000 C 
ATOM     13  C   UNL     1       1.037   3.100  20.576  0.00  0.00    +0.000 C 
ATOM     14  C   UNL     1       1.441   4.498  20.130  0.00  0.00    +0.000 C 
ENDROOT
BRANCH   1  15
ATOM     15  O   UNL     1       3.302   6.843  19.437  0.00  0.00    +0.000 OA
BRANCH  15  20
ATOM     16  C   UNL     1      -0.204  11.230  18.948  0.00  0.00    +0.000 C 
ATOM     17  C   UNL     1       0.561   9.942  19.078  0.00  0.00    +0.000 A 
ATOM     18  C   UNL     1       1.174   9.384  17.945  0.00  0.00    +0.000 A 
ATOM     19  C   UNL     1       2.032   8.287  18.070  0.00  0.00    +0.000 A 
ATOM     20  C   UNL     1       2.252   7.727  19.326  0.00  0.00    +0.000 A 
ATOM     21  C   UNL     1       1.498   8.147  20.421  0.00  0.00    +0.000 A 
ATOM     22  C   UNL     1       0.728   9.317  20.329  0.00  0.00    +0.000 A 
ATOM     23  C   UNL     1       0.234   9.955  21.597  0.00  0.00    +0.000 C 
ENDBRANCH  15  20
ENDBRANCH   1  15
TORSDOF 2
ENDMDL
MODEL 2
REMARK VINA RESULT:      -8.9      0.354      3.821
REMARK  Name = 
REMARK  4 active torsions:
REMARK  status: ('A' for Active; 'I' for Inactive)
REMARK    1  A    between atoms: C_1  and  C_2
REMARK    2  A    between atoms: C_5  and  O_6
REMARK    3  A    between atoms: O_6  and  C_7
REMARK    4  A    between atoms: C_22  and  C_23
REMARK                            x       y       z     vdW  Elec       q    Type
REMARK                         _______ _______ _______ _____ _____    ______ ____
ROOT
ATOM      1  C   UNL     1       3.424   5.616  18.823  0.00  0.00    +0.000 A 
ATOM      2  C   UNL     1       4.185   5.548  17.632  0.00  0.00    +0.000 A 
ATOM      3  C   UNL     1       4.205   4.321  16.963  0.00  0.00    +0.000 A 
ATOM      4  N   UNL     1       3.492   3.243  17.367  0.00  0.00    +0.000 NA
ATOM      5  C   UNL     1       2.719   3.336  18.454  0.00  0.00    +0.000 A 
ATOM      6  C   UNL     1       1.978   2.220  18.823  0.00  0.00    +0.000 A 
ATOM      7  C   UNL     1       1.138   2.225  19.936  0.00  0.00    +0.000 A 
ATOM      8  C   UNL     1       1.039   3.372  20.709  0.00  0.00    +0.000 A 
ATOM      9  C   UNL     1       1.782   4.502  20.367  0.00  0.00    +0.000 A 
ATOM     10  C   UNL     1       2.639   4.506  19.234  0.00  0.00    +0.000 A 
ATOM     11  C   UNL     1       4.978   4.106  15.685  0.00  0.00    +0.000 C 
ATOM     12  C   UNL     1       5.970   5.209  15.335  0.00  0.00    +0.000 C 
ATOM     13  C   UNL     1       5.357   6.570  15.609  0.00  0.00    +0.000 C 
ATOM     14  C   UNL     1       5.032   6.674  17.091  0.00  0.00    +0.000 C 
ENDROOT
BRANCH   1  15
ATOM     15  O   UNL     1       3.308   6.747  19.634  0.00  0.00    +0.000 OA
BRANCH  15  20
ATOM     16  C   UNL     1      -0.101  11.151  18.761  0.00  0.00    +0.000 C 
ATOM     17  C   UNL     1       0.637   9.860  18.987  0.00  0.00    +0.000 A 
ATOM     18  C   UNL     1       1.311   9.252  17.916  0.00  0.00    +0.000 A 
ATOM     19  C   UNL     1       2.146   8.151  18.136  0.00  0.00    +0.000 A 
ATOM     20  C   UNL     1       2.280   7.637  19.424  0.00  0.00    +0.000 A 
ATOM     21  C   UNL     1       1.465   8.108  20.453  0.00  0.00    +0.000 A 
ATOM     22  C   UNL     1       0.718   9.282  20.269  0.00  0.00    +0.000 A 
ATOM     23  C   UNL     1       0.155   9.973  21.478  0.00  0.00    +0.000 C 
ENDBRANCH  15  20
ENDBRANCH   1  15
TORSDOF 2
ENDMDL
MODEL 3
REMARK VINA RESULT:      -8.9      1.441      4.192
REMARK  Name = 
REMARK  4 active torsions:
REMARK  status: ('A' for Active; 'I' for Inactive)
REMARK    1  A    between atoms: C_1  and  C_2
REMARK    2  A    between atoms: C_5  and  O_6
REMARK    3  A    between atoms: O_6  and  C_7
REMARK    4  A    between atoms: C_22  and  C_23
REMARK                            x       y       z     vdW  Elec       q    Type
REMARK                         _______ _______ _______ _____ _____    ______ ____
ROOT
ATOM      1  C   UNL     1       3.553   5.730  18.047  0.00  0.00    +0.000 A 
ATOM      2  C   UNL     1       4.951   5.950  18.061  0.00  0.00    +0.000 A 
ATOM      3  C   UNL     1       5.753   4.896  18.506  0.00  0.00    +0.000 A 
ATOM      4  N   UNL     1       5.261   3.684  18.856  0.00  0.00    +0.000 NA
ATOM      5  C   UNL     1       3.945   3.460  18.773  0.00  0.00    +0.000 A 
ATOM      6  C   UNL     1       3.477   2.196  19.111  0.00  0.00    +0.000 A 
ATOM      7  C   UNL     1       2.124   1.867  19.046  0.00  0.00    +0.000 A 
ATOM      8  C   UNL     1       1.208   2.827  18.644  0.00  0.00    +0.000 A 
ATOM      9  C   UNL     1       1.651   4.108  18.311  0.00  0.00    +0.000 A 
ATOM     10  C   UNL     1       3.028   4.451  18.371  0.00  0.00    +0.000 A 
ATOM     11  C   UNL     1       7.258   4.994  18.576  0.00  0.00    +0.000 C 
ATOM     12  C   UNL     1       7.822   6.402  18.423  0.00  0.00    +0.000 C 
ATOM     13  C   UNL     1       7.082   7.145  17.325  0.00  0.00    +0.000 C 
ATOM     14  C   UNL     1       5.615   7.260  17.712  0.00  0.00    +0.000 C 
ENDROOT
BRANCH   1  15
ATOM     15  O   UNL     1       2.599   6.673  17.660  0.00  0.00    +0.000 OA
BRANCH  15  20
ATOM     16  C   UNL     1      -0.002  10.053  21.347  0.00  0.00    +0.000 C 
ATOM     17  C   UNL     1       0.854   9.279  20.382  0.00  0.00    +0.000 A 
ATOM     18  C   UNL     1       1.497   8.108  20.813  0.00  0.00    +0.000 A 
ATOM     19  C   UNL     1       2.152   7.280  19.896  0.00  0.00    +0.000 A 
ATOM     20  C   UNL     1       2.193   7.641  18.552  0.00  0.00    +0.000 A 
ATOM     21  C   UNL     1       1.732   8.894  18.149  0.00  0.00    +0.000 A 
ATOM     22  C   UNL     1       0.972   9.673  19.035  0.00  0.00    +0.000 A 
ATOM     23  C   UNL     1       0.177  10.822  18.481  0.00  0.00    +0.000 C 
ENDBRANCH  15  20
ENDBRANCH   1  15
TORSDOF 2
ENDMDL
MODEL 4
REMARK VINA RESULT:      -8.6      1.352      2.007
REMARK  Name = 
REMARK  4 active torsions:
REMARK  status: ('A' for Active; 'I' for Inactive)
REMARK    1  A    between atoms: C_1  and  C_2
REMARK    2  A    between atoms: C_5  and  O_6
REMARK    3  A    between atoms: O_6  and  C_7
REMARK    4  A    between atoms: C_22  and  C_23
REMARK                            x       y       z     vdW  Elec       q    Type
REMARK                         _______ _______ _______ _____ _____    ______ ____
ROOT
ATOM      1  C   UNL     1       3.457   5.720  17.993  0.00  0.00    +0.000 A 
ATOM      2  C   UNL     1       2.946   4.516  18.534  0.00  0.00    +0.000 A 
ATOM      3  C   UNL     1       3.877   3.539  18.895  0.00  0.00    +0.000 A 
ATOM      4  N   UNL     1       5.216   3.720  18.806  0.00  0.00    +0.000 NA
ATOM      5  C   UNL     1       5.694   4.886  18.361  0.00  0.00    +0.000 A 
ATOM      6  C   UNL     1       7.073   5.049  18.312  0.00  0.00    +0.000 A 
ATOM      7  C   UNL     1       7.662   6.233  17.870  0.00  0.00    +0.000 A 
ATOM      8  C   UNL     1       6.856   7.283  17.457  0.00  0.00    +0.000 A 
ATOM      9  C   UNL     1       5.468   7.140  17.485  0.00  0.00    +0.000 A 
ATOM     10  C   UNL     1       4.859   5.938  17.935  0.00  0.00    +0.000 A 
ATOM     11  C   UNL     1       3.472   2.207  19.479  0.00  0.00    +0.000 C 
ATOM     12  C   UNL     1       1.987   1.878  19.370  0.00  0.00    +0.000 C 
ATOM     13  C   UNL     1       1.154   3.108  19.683  0.00  0.00    +0.000 C 
ATOM     14  C   UNL     1       1.477   4.192  18.665  0.00  0.00    +0.000 C 
ENDROOT
BRANCH   1  15
ATOM     15  O   UNL     1       2.679   6.793  17.556  0.00  0.00    +0.000 OA
BRANCH  15  20
ATOM     16  C   UNL     1      -0.072   9.967  21.316  0.00  0.00    +0.000 C 
ATOM     17  C   UNL     1       0.815   9.258  20.331  0.00  0.00    +0.000 A 
ATOM     18  C   UNL     1       1.539   8.127  20.739  0.00  0.00    +0.000 A 
ATOM     19  C   UNL     1       2.230   7.350  19.804  0.00  0.00    +0.000 A 
ATOM     20  C   UNL     1       2.226   7.725  18.463  0.00  0.00    +0.000 A 
ATOM     21  C   UNL     1       1.680   8.949  18.080  0.00  0.00    +0.000 A 
ATOM     22  C   UNL     1       0.886   9.671  18.985  0.00  0.00    +0.000 A 
ATOM     23  C   UNL     1       0.010  10.771  18.456  0.00  0.00    +0.000 C 
ENDBRANCH  15  20
ENDBRANCH   1  15
TORSDOF 2
ENDMDL
MODEL 5
REMARK VINA RESULT:      -8.0      1.588      1.859
REMARK  Name = 
REMARK  4 active torsions:
REMARK  status: ('A' for Active; 'I' for Inactive)
REMARK    1  A    between atoms: C_1  and  C_2
REMARK    2  A    between atoms: C_5  and  O_6
REMARK    3  A    between atoms: O_6  and  C_7
REMARK    4  A    between atoms: C_22  and  C_23
REMARK                            x       y       z     vdW  Elec       q    Type
REMARK                         _______ _______ _______ _____ _____    ______ ____
ROOT
ATOM      1  C   UNL     1       3.642   5.859  18.137  0.00  0.00    +0.000 A 
ATOM      2  C   UNL     1       3.096   4.752  18.829  0.00  0.00    +0.000 A 
ATOM      3  C   UNL     1       4.002   3.856  19.403  0.00  0.00    +0.000 A 
ATOM      4  N   UNL     1       5.344   4.037  19.376  0.00  0.00    +0.000 NA
ATOM      5  C   UNL     1       5.850   5.123  18.781  0.00  0.00    +0.000 A 
ATOM      6  C   UNL     1       7.229   5.292  18.798  0.00  0.00    +0.000 A 
ATOM      7  C   UNL     1       7.845   6.397  18.212  0.00  0.00    +0.000 A 
ATOM      8  C   UNL     1       7.067   7.357  17.582  0.00  0.00    +0.000 A 
ATOM      9  C   UNL     1       5.681   7.203  17.541  0.00  0.00    +0.000 A 
ATOM     10  C   UNL     1       5.045   6.083  18.137  0.00  0.00    +0.000 A 
ATOM     11  C   UNL     1       3.560   2.631  20.165  0.00  0.00    +0.000 C 
ATOM     12  C   UNL     1       2.087   2.271  20.012  0.00  0.00    +0.000 C 
ATOM     13  C   UNL     1       1.233   3.525  20.067  0.00  0.00    +0.000 C 
ATOM     14  C   UNL     1       1.623   4.436  18.913  0.00  0.00    +0.000 C 
ENDROOT
BRANCH   1  15
ATOM     15  O   UNL     1       2.894   6.840  17.482  0.00  0.00    +0.000 OA
BRANCH  15  20
ATOM     16  C   UNL     1       0.701  11.066  20.500  0.00  0.00    +0.000 C 
ATOM     17  C   UNL     1       1.098   9.852  19.707  0.00  0.00    +0.000 A 
ATOM     18  C   UNL     1       1.176   9.935  18.307  0.00  0.00    +0.000 A 
ATOM     19  C   UNL     1       1.709   8.878  17.562  0.00  0.00    +0.000 A 
ATOM     20  C   UNL     1       2.134   7.723  18.214  0.00  0.00    +0.000 A 
ATOM     21  C   UNL     1       1.878   7.554  19.575  0.00  0.00    +0.000 A 
ATOM     22  C   UNL     1       1.456   8.648  20.345  0.00  0.00    +0.000 A 
ATOM     23  C   UNL     1       1.549   8.553  21.842  0.00  0.00    +0.000 C 
ENDBRANCH  15  20
ENDBRANCH   1  15
TORSDOF 2
ENDMDL
MODEL 6
REMARK VINA RESULT:      -8.0      1.634      4.136
REMARK  Name = 
REMARK  4 active torsions:
REMARK  status: ('A' for Active; 'I' for Inactive)
REMARK    1  A    between atoms: C_1  and  C_2
REMARK    2  A    between atoms: C_5  and  O_6
REMARK    3  A    between atoms: O_6  and  C_7
REMARK    4  A    between atoms: C_22  and  C_23
REMARK                            x       y       z     vdW  Elec       q    Type
REMARK                         _______ _______ _______ _____ _____    ______ ____
ROOT
ATOM      1  C   UNL     1       3.779   5.860  17.981  0.00  0.00    +0.000 A 
ATOM      2  C   UNL     1       5.167   6.108  18.105  0.00  0.00    +0.000 A 
ATOM      3  C   UNL     1       5.924   5.146  18.777  0.00  0.00    +0.000 A 
ATOM      4  N   UNL     1       5.405   3.986  19.247  0.00  0.00    +0.000 NA
ATOM      5  C   UNL     1       4.106   3.726  19.064  0.00  0.00    +0.000 A 
ATOM      6  C   UNL     1       3.613   2.514  19.531  0.00  0.00    +0.000 A 
ATOM      7  C   UNL     1       2.276   2.152  19.378  0.00  0.00    +0.000 A 
ATOM      8  C   UNL     1       1.401   3.025  18.749  0.00  0.00    +0.000 A 
ATOM      9  C   UNL     1       1.869   4.253  18.281  0.00  0.00    +0.000 A 
ATOM     10  C   UNL     1       3.230   4.629  18.431  0.00  0.00    +0.000 A 
ATOM     11  C   UNL     1       7.413   5.284  18.986  0.00  0.00    +0.000 C 
ATOM     12  C   UNL     1       7.982   6.666  18.688  0.00  0.00    +0.000 C 
ATOM     13  C   UNL     1       7.356   7.229  17.425  0.00  0.00    +0.000 C 
ATOM     14  C   UNL     1       5.856   7.368  17.639  0.00  0.00    +0.000 C 
ENDROOT
BRANCH   1  15
ATOM     15  O   UNL     1       2.865   6.718  17.366  0.00  0.00    +0.000 OA
BRANCH  15  20
ATOM     16  C   UNL     1       0.913  10.960  20.524  0.00  0.00    +0.000 C 
ATOM     17  C   UNL     1       1.241   9.753  19.690  0.00  0.00    +0.000 A 
ATOM     18  C   UNL     1       1.330   9.879  18.294  0.00  0.00    +0.000 A 
ATOM     19  C   UNL     1       1.803   8.819  17.514  0.00  0.00    +0.000 A 
ATOM     20  C   UNL     1       2.155   7.619  18.127  0.00  0.00    +0.000 A 
ATOM     21  C   UNL     1       1.884   7.419  19.480  0.00  0.00    +0.000 A 
ATOM     22  C   UNL     1       1.524   8.509  20.287  0.00  0.00    +0.000 A 
ATOM     23  C   UNL     1       1.604   8.356  21.780  0.00  0.00    +0.000 C 
ENDBRANCH  15  20
ENDBRANCH   1  15
TORSDOF 2
ENDMDL
MODEL 7
REMARK VINA RESULT:      -7.6      3.486      5.483
REMARK  Name = 
REMARK  4 active torsions:
REMARK  status: ('A' for Active; 'I' for Inactive)
REMARK    1  A    between atoms: C_1  and  C_2
REMARK    2  A    between atoms: C_5  and  O_6
REMARK    3  A    between atoms: O_6  and  C_7
REMARK    4  A    between atoms: C_22  and  C_23
REMARK                            x       y       z     vdW  Elec       q    Type
REMARK                         _______ _______ _______ _____ _____    ______ ____
ROOT
ATOM      1  C   UNL     1       5.582   3.736  16.202  0.00  0.00    +0.000 A 
ATOM      2  C   UNL     1       6.144   4.544  17.218  0.00  0.00    +0.000 A 
ATOM      3  C   UNL     1       7.155   5.431  16.835  0.00  0.00    +0.000 A 
ATOM      4  N   UNL     1       7.561   5.585  15.552  0.00  0.00    +0.000 NA
ATOM      5  C   UNL     1       6.976   4.868  14.587  0.00  0.00    +0.000 A 
ATOM      6  C   UNL     1       7.396   5.073  13.279  0.00  0.00    +0.000 A 
ATOM      7  C   UNL     1       6.838   4.379  12.206  0.00  0.00    +0.000 A 
ATOM      8  C   UNL     1       5.840   3.447  12.443  0.00  0.00    +0.000 A 
ATOM      9  C   UNL     1       5.409   3.214  13.749  0.00  0.00    +0.000 A 
ATOM     10  C   UNL     1       5.970   3.918  14.847  0.00  0.00    +0.000 A 
ATOM     11  C   UNL     1       7.845   6.349  17.815  0.00  0.00    +0.000 C 
ATOM     12  C   UNL     1       7.587   6.037  19.284  0.00  0.00    +0.000 C 
ATOM     13  C   UNL     1       6.124   5.691  19.498  0.00  0.00    +0.000 C 
ATOM     14  C   UNL     1       5.788   4.452  18.682  0.00  0.00    +0.000 C 
ENDROOT
BRANCH   1  15
ATOM     15  O   UNL     1       4.585   2.779  16.402  0.00  0.00    +0.000 OA
BRANCH  15  20
ATOM     16  C   UNL     1       1.093   4.633  20.420  0.00  0.00    +0.000 C 
ATOM     17  C   UNL     1       1.890   3.983  19.323  0.00  0.00    +0.000 A 
ATOM     18  C   UNL     1       1.820   4.497  18.019  0.00  0.00    +0.000 A 
ATOM     19  C   UNL     1       2.679   4.025  17.023  0.00  0.00    +0.000 A 
ATOM     20  C   UNL     1       3.588   3.013  17.322  0.00  0.00    +0.000 A 
ATOM     21  C   UNL     1       3.529   2.362  18.554  0.00  0.00    +0.000 A 
ATOM     22  C   UNL     1       2.757   2.906  19.592  0.00  0.00    +0.000 A 
ATOM     23  C   UNL     1       2.994   2.422  20.995  0.00  0.00    +0.000 C 
ENDBRANCH  15  20
ENDBRANCH   1  15
TORSDOF 2
ENDMDL
MODEL 8
REMARK VINA RESULT:      -7.4      4.311      6.605
REMARK  Name = 
REMARK  4 active torsions:
REMARK  status: ('A' for Active; 'I' for Inactive)
REMARK    1  A    between atoms: C_1  and  C_2
REMARK    2  A    between atoms: C_5  and  O_6
REMARK    3  A    between atoms: O_6  and  C_7
REMARK    4  A    between atoms: C_22  and  C_23
REMARK                            x       y       z     vdW  Elec       q    Type
REMARK                         _______ _______ _______ _____ _____    ______ ____
ROOT
ATOM      1  C   UNL     1       5.165   4.939  16.920  0.00  0.00    +0.000 A 
ATOM      2  C   UNL     1       4.353   3.982  17.572  0.00  0.00    +0.000 A 
ATOM      3  C   UNL     1       4.694   3.655  18.888  0.00  0.00    +0.000 A 
ATOM      4  N   UNL     1       5.706   4.250  19.563  0.00  0.00    +0.000 NA
ATOM      5  C   UNL     1       6.424   5.204  18.963  0.00  0.00    +0.000 A 
ATOM      6  C   UNL     1       7.436   5.814  19.695  0.00  0.00    +0.000 A 
ATOM      7  C   UNL     1       8.230   6.826  19.157  0.00  0.00    +0.000 A 
ATOM      8  C   UNL     1       8.019   7.235  17.849  0.00  0.00    +0.000 A 
ATOM      9  C   UNL     1       7.018   6.629  17.089  0.00  0.00    +0.000 A 
ATOM     10  C   UNL     1       6.202   5.600  17.630  0.00  0.00    +0.000 A 
ATOM     11  C   UNL     1       3.918   2.647  19.701  0.00  0.00    +0.000 C 
ATOM     12  C   UNL     1       2.936   1.794  18.907  0.00  0.00    +0.000 C 
ATOM     13  C   UNL     1       2.200   2.650  17.892  0.00  0.00    +0.000 C 
ATOM     14  C   UNL     1       3.212   3.239  16.921  0.00  0.00    +0.000 C 
ENDROOT
BRANCH   1  15
ATOM     15  O   UNL     1       4.993   5.368  15.602  0.00  0.00    +0.000 OA
BRANCH  15  20
ATOM     16  C   UNL     1       7.330   3.430  10.852  0.00  0.00    +0.000 C 
ATOM     17  C   UNL     1       6.726   3.754  12.191  0.00  0.00    +0.000 A 
ATOM     18  C   UNL     1       7.508   4.388  13.169  0.00  0.00    +0.000 A 
ATOM     19  C   UNL     1       6.926   4.855  14.351  0.00  0.00    +0.000 A 
ATOM     20  C   UNL     1       5.565   4.658  14.571  0.00  0.00    +0.000 A 
ATOM     21  C   UNL     1       4.824   3.859  13.701  0.00  0.00    +0.000 A 
ATOM     22  C   UNL     1       5.368   3.490  12.461  0.00  0.00    +0.000 A 
ATOM     23  C   UNL     1       4.445   2.965  11.398  0.00  0.00    +0.000 C 
ENDBRANCH  15  20
ENDBRANCH   1  15
TORSDOF 2
ENDMDL
MODEL 9
REMARK VINA RESULT:      -7.2      3.447      6.456
REMARK  Name = 
REMARK  4 active torsions:
REMARK  status: ('A' for Active; 'I' for Inactive)
REMARK    1  A    between atoms: C_1  and  C_2
REMARK    2  A    between atoms: C_5  and  O_6
REMARK    3  A    between atoms: O_6  and  C_7
REMARK    4  A    between atoms: C_22  and  C_23
REMARK                            x       y       z     vdW  Elec       q    Type
REMARK                         _______ _______ _______ _____ _____    ______ ____
ROOT
ATOM      1  C   UNL     1       0.556  10.564  19.452  0.00  0.00    +0.000 A 
ATOM      2  C   UNL     1      -0.002  10.678  20.747  0.00  0.00    +0.000 A 
ATOM      3  C   UNL     1       0.161   9.587  21.604  0.00  0.00    +0.000 A 
ATOM      4  N   UNL     1       0.867   8.480  21.272  0.00  0.00    +0.000 NA
ATOM      5  C   UNL     1       1.451   8.408  20.071  0.00  0.00    +0.000 A 
ATOM      6  C   UNL     1       2.192   7.271  19.774  0.00  0.00    +0.000 A 
ATOM      7  C   UNL     1       2.844   7.112  18.552  0.00  0.00    +0.000 A 
ATOM      8  C   UNL     1       2.747   8.109  17.593  0.00  0.00    +0.000 A 
ATOM      9  C   UNL     1       1.999   9.255  17.862  0.00  0.00    +0.000 A 
ATOM     10  C   UNL     1       1.334   9.427  19.105  0.00  0.00    +0.000 A 
ATOM     11  C   UNL     1      -0.385   9.570  23.011  0.00  0.00    +0.000 C 
ATOM     12  C   UNL     1      -1.376  10.682  23.333  0.00  0.00    +0.000 C 
ATOM     13  C   UNL     1      -0.901  11.996  22.739  0.00  0.00    +0.000 C 
ATOM     14  C   UNL     1      -0.822  11.851  21.226  0.00  0.00    +0.000 C 
ENDROOT
BRANCH   1  15
ATOM     15  O   UNL     1       0.470  11.539  18.456  0.00  0.00    +0.000 OA
BRANCH  15  20
ATOM     16  C   UNL     1       2.572  16.765  18.219  0.00  0.00    +0.000 C 
ATOM     17  C   UNL     1       2.068  15.373  18.481  0.00  0.00    +0.000 A 
ATOM     18  C   UNL     1       0.695  15.160  18.683  0.00  0.00    +0.000 A 
ATOM     19  C   UNL     1       0.181  13.862  18.755  0.00  0.00    +0.000 A 
ATOM     20  C   UNL     1       1.045  12.774  18.657  0.00  0.00    +0.000 A 
ATOM     21  C   UNL     1       2.425  12.975  18.656  0.00  0.00    +0.000 A 
ATOM     22  C   UNL     1       2.940  14.267  18.465  0.00  0.00    +0.000 A 
ATOM     23  C   UNL     1       4.389  14.416  18.093  0.00  0.00    +0.000 C 
ENDBRANCH  15  20
ENDBRANCH   1  15
TORSDOF 2
ENDMDL
