MODEL 1
REMARK VINA RESULT:      -7.3      0.000      0.000
REMARK  Name = 
REMARK  1 active torsions:
REMARK  status: ('A' for Active; 'I' for Inactive)
REMARK    1  A    between atoms: N_3  and  C_4
REMARK                            x       y       z     vdW  Elec       q    Type
REMARK                         _______ _______ _______ _____ _____    ______ ____
ROOT
ATOM      1  O   UNL     1       1.444   4.122  17.320  0.00  0.00    +0.000 OA
ATOM      2  C   UNL     1       2.263   3.951  18.209  0.00  0.00    +0.000 A 
ATOM      3  N   UNL     1       3.669   4.045  18.163  0.00  0.00    +0.000 N 
ATOM      4  C   UNL     1       4.196   3.534  19.362  0.00  0.00    +0.000 A 
ATOM      5  O   UNL     1       5.357   3.357  19.695  0.00  0.00    +0.000 OA
ATOM      6  N   UNL     1       3.106   3.256  20.165  0.00  0.00    +0.000 N 
ATOM      7  N   UNL     1       1.954   3.522  19.488  0.00  0.00    +0.000 N 
ATOM      8  C   UNL     1       0.834   2.880  20.132  0.00  0.00    +0.000 C 
ATOM      9  C   UNL     1       1.320   2.762  21.576  0.00  0.00    +0.000 C 
ATOM     10  C   UNL     1       2.839   2.624  21.433  0.00  0.00    +0.000 C 
ENDROOT
BRANCH   3  11
ATOM     11  C   UNL     1       4.419   4.510  17.054  0.00  0.00    +0.000 A 
ATOM     12  C   UNL     1       4.554   5.886  16.806  0.00  0.00    +0.000 A 
ATOM     13  C   UNL     1       5.309   6.357  15.727  0.00  0.00    +0.000 A 
ATOM     14  C   UNL     1       5.924   5.459  14.863  0.00  0.00    +0.000 A 
ATOM     15  C   UNL     1       5.805   4.091  15.090  0.00  0.00    +0.000 A 
ATOM     16  C   UNL     1       5.070   3.623  16.185  0.00  0.00    +0.000 A 
ENDBRANCH   3  11
TORSDOF 1
ENDMDL
MODEL 2
REMARK VINA RESULT:      -7.3      0.182      1.213
REMARK  Name = 
REMARK  1 active torsions:
REMARK  status: ('A' for Active; 'I' for Inactive)
REMARK    1  A    between atoms: N_3  and  C_4
REMARK                            x       y       z     vdW  Elec       q    Type
REMARK                         _______ _______ _______ _____ _____    ______ ____
ROOT
ATOM      1  O   UNL     1       1.587   3.922  17.175  0.00  0.00    +0.000 OA
ATOM      2  C   UNL     1       2.377   3.821  18.101  0.00  0.00    +0.000 A 
ATOM      3  N   UNL     1       3.779   3.972  18.104  0.00  0.00    +0.000 N 
ATOM      4  C   UNL     1       4.278   3.532  19.342  0.00  0.00    +0.000 A 
ATOM      5  O   UNL     1       5.431   3.417  19.726  0.00  0.00    +0.000 OA
ATOM      6  N   UNL     1       3.169   3.241  20.114  0.00  0.00    +0.000 N 
ATOM      7  N   UNL     1       2.035   3.431  19.384  0.00  0.00    +0.000 N 
ATOM      8  C   UNL     1       0.917   2.769  20.012  0.00  0.00    +0.000 C 
ATOM      9  C   UNL     1       1.350   2.730  21.476  0.00  0.00    +0.000 C 
ATOM     10  C   UNL     1       2.877   2.650  21.397  0.00  0.00    +0.000 C 
ENDROOT
BRANCH   3  11
ATOM     11  C   UNL     1       4.553   4.423  17.006  0.00  0.00    +0.000 A 
ATOM     12  C   UNL     1       5.271   3.513  16.213  0.00  0.00    +0.000 A 
ATOM     13  C   UNL     1       6.021   3.945  15.114  0.00  0.00    +0.000 A 
ATOM     14  C   UNL     1       6.085   5.297  14.803  0.00  0.00    +0.000 A 
ATOM     15  C   UNL     1       5.381   6.217  15.574  0.00  0.00    +0.000 A 
ATOM     16  C   UNL     1       4.610   5.780  16.658  0.00  0.00    +0.000 A 
ENDBRANCH   3  11
TORSDOF 1
ENDMDL
MODEL 3
REMARK VINA RESULT:      -7.1      0.200      2.083
REMARK  Name = 
REMARK  1 active torsions:
REMARK  status: ('A' for Active; 'I' for Inactive)
REMARK    1  A    between atoms: N_3  and  C_4
REMARK                            x       y       z     vdW  Elec       q    Type
REMARK                         _______ _______ _______ _____ _____    ______ ____
ROOT
ATOM      1  O   UNL     1       5.317   3.609  19.722  0.00  0.00    +0.000 OA
ATOM      2  C   UNL     1       4.167   3.584  19.313  0.00  0.00    +0.000 A 
ATOM      3  N   UNL     1       3.646   4.012  18.075  0.00  0.00    +0.000 N 
ATOM      4  C   UNL     1       2.242   4.004  18.148  0.00  0.00    +0.000 A 
ATOM      5  O   UNL     1       1.413   4.376  17.334  0.00  0.00    +0.000 OA
ATOM      6  N   UNL     1       1.932   3.455  19.379  0.00  0.00    +0.000 N 
ATOM      7  N   UNL     1       3.076   3.186  20.066  0.00  0.00    +0.000 N 
ATOM      8  C   UNL     1       2.787   2.996  21.467  0.00  0.00    +0.000 C 
ATOM      9  C   UNL     1       1.329   2.539  21.434  0.00  0.00    +0.000 C 
ATOM     10  C   UNL     1       0.762   3.239  20.194  0.00  0.00    +0.000 C 
ENDROOT
BRANCH   3  11
ATOM     11  C   UNL     1       4.421   4.447  16.971  0.00  0.00    +0.000 A 
ATOM     12  C   UNL     1       4.562   5.816  16.690  0.00  0.00    +0.000 A 
ATOM     13  C   UNL     1       5.341   6.257  15.615  0.00  0.00    +0.000 A 
ATOM     14  C   UNL     1       5.975   5.337  14.790  0.00  0.00    +0.000 A 
ATOM     15  C   UNL     1       5.849   3.976  15.050  0.00  0.00    +0.000 A 
ATOM     16  C   UNL     1       5.090   3.536  16.141  0.00  0.00    +0.000 A 
ENDBRANCH   3  11
TORSDOF 1
ENDMDL
MODEL 4
REMARK VINA RESULT:      -7.1      0.202      2.405
REMARK  Name = 
REMARK  1 active torsions:
REMARK  status: ('A' for Active; 'I' for Inactive)
REMARK    1  A    between atoms: N_3  and  C_4
REMARK                            x       y       z     vdW  Elec       q    Type
REMARK                         _______ _______ _______ _____ _____    ______ ____
ROOT
ATOM      1  O   UNL     1       5.328   3.601  19.753  0.00  0.00    +0.000 OA
ATOM      2  C   UNL     1       4.182   3.574  19.332  0.00  0.00    +0.000 A 
ATOM      3  N   UNL     1       3.672   4.004  18.090  0.00  0.00    +0.000 N 
ATOM      4  C   UNL     1       2.268   3.992  18.149  0.00  0.00    +0.000 A 
ATOM      5  O   UNL     1       1.446   4.364  17.328  0.00  0.00    +0.000 OA
ATOM      6  N   UNL     1       1.947   3.439  19.375  0.00  0.00    +0.000 N 
ATOM      7  N   UNL     1       3.085   3.171  20.073  0.00  0.00    +0.000 N 
ATOM      8  C   UNL     1       2.782   2.976  21.471  0.00  0.00    +0.000 C 
ATOM      9  C   UNL     1       1.326   2.515  21.422  0.00  0.00    +0.000 C 
ATOM     10  C   UNL     1       0.770   3.216  20.178  0.00  0.00    +0.000 C 
ENDROOT
BRANCH   3  11
ATOM     11  C   UNL     1       4.457   4.444  16.995  0.00  0.00    +0.000 A 
ATOM     12  C   UNL     1       5.122   3.520  16.172  0.00  0.00    +0.000 A 
ATOM     13  C   UNL     1       5.882   3.943  15.077  0.00  0.00    +0.000 A 
ATOM     14  C   UNL     1       6.008   5.298  14.798  0.00  0.00    +0.000 A 
ATOM     15  C   UNL     1       5.358   6.231  15.600  0.00  0.00    +0.000 A 
ATOM     16  C   UNL     1       4.577   5.805  16.681  0.00  0.00    +0.000 A 
ENDBRANCH   3  11
TORSDOF 1
ENDMDL
MODEL 5
REMARK VINA RESULT:      -7.1      1.067      2.402
REMARK  Name = 
REMARK  1 active torsions:
REMARK  status: ('A' for Active; 'I' for Inactive)
REMARK    1  A    between atoms: N_3  and  C_4
REMARK                            x       y       z     vdW  Elec       q    Type
REMARK                         _______ _______ _______ _____ _____    ______ ____
ROOT
ATOM      1  O   UNL     1       5.252   2.522  19.834  0.00  0.00    +0.000 OA
ATOM      2  C   UNL     1       4.250   3.134  19.497  0.00  0.00    +0.000 A 
ATOM      3  N   UNL     1       4.082   4.080  18.465  0.00  0.00    +0.000 N 
ATOM      4  C   UNL     1       2.821   4.685  18.607  0.00  0.00    +0.000 A 
ATOM      5  O   UNL     1       2.317   5.603  17.981  0.00  0.00    +0.000 OA
ATOM      6  N   UNL     1       2.195   4.013  19.641  0.00  0.00    +0.000 N 
ATOM      7  N   UNL     1       3.036   3.076  20.159  0.00  0.00    +0.000 N 
ATOM      8  C   UNL     1       2.574   2.650  21.458  0.00  0.00    +0.000 C 
ATOM      9  C   UNL     1       1.074   2.929  21.371  0.00  0.00    +0.000 C 
ATOM     10  C   UNL     1       0.987   4.126  20.420  0.00  0.00    +0.000 C 
ENDROOT
BRANCH   3  11
ATOM     11  C   UNL     1       5.061   4.411  17.495  0.00  0.00    +0.000 A 
ATOM     12  C   UNL     1       5.046   3.807  16.227  0.00  0.00    +0.000 A 
ATOM     13  C   UNL     1       5.994   4.142  15.255  0.00  0.00    +0.000 A 
ATOM     14  C   UNL     1       6.988   5.070  15.542  0.00  0.00    +0.000 A 
ATOM     15  C   UNL     1       7.022   5.680  16.792  0.00  0.00    +0.000 A 
ATOM     16  C   UNL     1       6.057   5.363  17.754  0.00  0.00    +0.000 A 
ENDBRANCH   3  11
TORSDOF 1
ENDMDL
MODEL 6
REMARK VINA RESULT:      -7.1      1.494      5.256
REMARK  Name = 
REMARK  1 active torsions:
REMARK  status: ('A' for Active; 'I' for Inactive)
REMARK    1  A    between atoms: N_3  and  C_4
REMARK                            x       y       z     vdW  Elec       q    Type
REMARK                         _______ _______ _______ _____ _____    ______ ____
ROOT
ATOM      1  O   UNL     1       2.905   3.434  16.602  0.00  0.00    +0.000 OA
ATOM      2  C   UNL     1       3.948   3.738  17.161  0.00  0.00    +0.000 A 
ATOM      3  N   UNL     1       4.208   3.925  18.534  0.00  0.00    +0.000 N 
ATOM      4  C   UNL     1       5.484   4.496  18.679  0.00  0.00    +0.000 A 
ATOM      5  O   UNL     1       6.058   4.890  19.682  0.00  0.00    +0.000 OA
ATOM      6  N   UNL     1       6.028   4.530  17.408  0.00  0.00    +0.000 N 
ATOM      7  N   UNL     1       5.123   4.062  16.505  0.00  0.00    +0.000 N 
ATOM      8  C   UNL     1       5.500   4.451  15.168  0.00  0.00    +0.000 C 
ATOM      9  C   UNL     1       7.013   4.621  15.299  0.00  0.00    +0.000 C 
ATOM     10  C   UNL     1       7.199   5.061  16.755  0.00  0.00    +0.000 C 
ENDROOT
BRANCH   3  11
ATOM     11  C   UNL     1       3.295   3.650  19.582  0.00  0.00    +0.000 A 
ATOM     12  C   UNL     1       2.097   4.374  19.698  0.00  0.00    +0.000 A 
ATOM     13  C   UNL     1       1.178   4.096  20.716  0.00  0.00    +0.000 A 
ATOM     14  C   UNL     1       1.452   3.104  21.649  0.00  0.00    +0.000 A 
ATOM     15  C   UNL     1       2.633   2.373  21.553  0.00  0.00    +0.000 A 
ATOM     16  C   UNL     1       3.538   2.635  20.519  0.00  0.00    +0.000 A 
ENDBRANCH   3  11
TORSDOF 1
ENDMDL
MODEL 7
REMARK VINA RESULT:      -7.0      1.054      2.186
REMARK  Name = 
REMARK  1 active torsions:
REMARK  status: ('A' for Active; 'I' for Inactive)
REMARK    1  A    between atoms: N_3  and  C_4
REMARK                            x       y       z     vdW  Elec       q    Type
REMARK                         _______ _______ _______ _____ _____    ______ ____
ROOT
ATOM      1  O   UNL     1       5.253   2.538  19.823  0.00  0.00    +0.000 OA
ATOM      2  C   UNL     1       4.245   3.141  19.487  0.00  0.00    +0.000 A 
ATOM      3  N   UNL     1       4.064   4.074  18.446  0.00  0.00    +0.000 N 
ATOM      4  C   UNL     1       2.800   4.673  18.591  0.00  0.00    +0.000 A 
ATOM      5  O   UNL     1       2.286   5.581  17.959  0.00  0.00    +0.000 OA
ATOM      6  N   UNL     1       2.186   4.010  19.637  0.00  0.00    +0.000 N 
ATOM      7  N   UNL     1       3.037   3.083  20.160  0.00  0.00    +0.000 N 
ATOM      8  C   UNL     1       2.587   2.670  21.467  0.00  0.00    +0.000 C 
ATOM      9  C   UNL     1       1.085   2.939  21.389  0.00  0.00    +0.000 C 
ATOM     10  C   UNL     1       0.983   4.125  20.424  0.00  0.00    +0.000 C 
ENDROOT
BRANCH   3  11
ATOM     11  C   UNL     1       5.033   4.399  17.465  0.00  0.00    +0.000 A 
ATOM     12  C   UNL     1       6.039   5.341  17.736  0.00  0.00    +0.000 A 
ATOM     13  C   UNL     1       7.013   5.655  16.782  0.00  0.00    +0.000 A 
ATOM     14  C   UNL     1       6.984   5.048  15.532  0.00  0.00    +0.000 A 
ATOM     15  C   UNL     1       5.996   4.113  15.242  0.00  0.00    +0.000 A 
ATOM     16  C   UNL     1       5.038   3.781  16.206  0.00  0.00    +0.000 A 
ENDBRANCH   3  11
TORSDOF 1
ENDMDL
MODEL 8
REMARK VINA RESULT:      -7.0      1.502      5.344
REMARK  Name = 
REMARK  1 active torsions:
REMARK  status: ('A' for Active; 'I' for Inactive)
REMARK    1  A    between atoms: N_3  and  C_4
REMARK                            x       y       z     vdW  Elec       q    Type
REMARK                         _______ _______ _______ _____ _____    ______ ____
ROOT
ATOM      1  O   UNL     1       2.842   3.336  16.549  0.00  0.00    +0.000 OA
ATOM      2  C   UNL     1       3.876   3.659  17.111  0.00  0.00    +0.000 A 
ATOM      3  N   UNL     1       4.121   3.876  18.483  0.00  0.00    +0.000 N 
ATOM      4  C   UNL     1       5.392   4.459  18.628  0.00  0.00    +0.000 A 
ATOM      5  O   UNL     1       5.953   4.877  19.629  0.00  0.00    +0.000 OA
ATOM      6  N   UNL     1       5.948   4.472  17.363  0.00  0.00    +0.000 N 
ATOM      7  N   UNL     1       5.055   3.978  16.461  0.00  0.00    +0.000 N 
ATOM      8  C   UNL     1       5.443   4.343  15.120  0.00  0.00    +0.000 C 
ATOM      9  C   UNL     1       6.953   4.528  15.262  0.00  0.00    +0.000 C 
ATOM     10  C   UNL     1       7.122   4.998  16.710  0.00  0.00    +0.000 C 
ENDROOT
BRANCH   3  11
ATOM     11  C   UNL     1       3.200   3.614  19.527  0.00  0.00    +0.000 A 
ATOM     12  C   UNL     1       3.470   2.629  20.491  0.00  0.00    +0.000 A 
ATOM     13  C   UNL     1       2.577   2.376  21.538  0.00  0.00    +0.000 A 
ATOM     14  C   UNL     1       1.388   3.089  21.626  0.00  0.00    +0.000 A 
ATOM     15  C   UNL     1       1.100   4.070  20.682  0.00  0.00    +0.000 A 
ATOM     16  C   UNL     1       2.006   4.339  19.650  0.00  0.00    +0.000 A 
ENDBRANCH   3  11
TORSDOF 1
ENDMDL
MODEL 9
REMARK VINA RESULT:      -7.0      1.566      5.679
REMARK  Name = 
REMARK  1 active torsions:
REMARK  status: ('A' for Active; 'I' for Inactive)
REMARK    1  A    between atoms: N_3  and  C_4
REMARK                            x       y       z     vdW  Elec       q    Type
REMARK                         _______ _______ _______ _____ _____    ______ ____
ROOT
ATOM      1  O   UNL     1       6.102   4.732  19.691  0.00  0.00    +0.000 OA
ATOM      2  C   UNL     1       5.497   4.501  18.656  0.00  0.00    +0.000 A 
ATOM      3  N   UNL     1       4.200   3.978  18.474  0.00  0.00    +0.000 N 
ATOM      4  C   UNL     1       4.025   3.669  17.113  0.00  0.00    +0.000 A 
ATOM      5  O   UNL     1       3.090   3.126  16.547  0.00  0.00    +0.000 OA
ATOM      6  N   UNL     1       5.164   4.123  16.474  0.00  0.00    +0.000 N 
ATOM      7  N   UNL     1       6.033   4.637  17.388  0.00  0.00    +0.000 N 
ATOM      8  C   UNL     1       7.354   4.746  16.818  0.00  0.00    +0.000 C 
ATOM      9  C   UNL     1       7.050   4.863  15.325  0.00  0.00    +0.000 C 
ATOM     10  C   UNL     1       5.754   4.065  15.159  0.00  0.00    +0.000 C 
ENDROOT
BRANCH   3  11
ATOM     11  C   UNL     1       3.265   3.737  19.510  0.00  0.00    +0.000 A 
ATOM     12  C   UNL     1       3.477   2.708  20.442  0.00  0.00    +0.000 A 
ATOM     13  C   UNL     1       2.570   2.475  21.482  0.00  0.00    +0.000 A 
ATOM     14  C   UNL     1       1.424   3.253  21.594  0.00  0.00    +0.000 A 
ATOM     15  C   UNL     1       1.194   4.278  20.681  0.00  0.00    +0.000 A 
ATOM     16  C   UNL     1       2.115   4.526  19.657  0.00  0.00    +0.000 A 
ENDBRANCH   3  11
TORSDOF 1
ENDMDL
