MODEL 1
REMARK VINA RESULT:      -7.6      0.000      0.000
REMARK  Name = 
REMARK  6 active torsions:
REMARK  status: ('A' for Active; 'I' for Inactive)
REMARK    1  A    between atoms: C_1  and  C_2
REMARK    2  A    between atoms: C_6  and  C_7
REMARK    3  A    between atoms: C_7  and  N_8
REMARK    4  A    between atoms: N_8  and  C_9
REMARK    5  A    between atoms: N_8  and  C_14
REMARK    6  A    between atoms: C_9  and  C_10
REMARK                            x       y       z     vdW  Elec       q    Type
REMARK                         _______ _______ _______ _____ _____    ______ ____
ROOT
ATOM      1  N   UNL     1       4.690   5.208  17.262  0.00  0.00    +0.000 N 
ENDROOT
BRANCH   1   2
ATOM      2  C   UNL     1       5.812   5.876  17.814  0.00  0.00    +0.000 A 
ATOM      3  C   UNL     1       6.558   5.357  18.888  0.00  0.00    +0.000 A 
ATOM      4  C   UNL     1       7.787   5.893  19.291  0.00  0.00    +0.000 A 
ATOM      5  C   UNL     1       8.293   7.021  18.669  0.00  0.00    +0.000 A 
ATOM      6  C   UNL     1       7.540   7.635  17.682  0.00  0.00    +0.000 A 
ATOM      7  C   UNL     1       6.318   7.076  17.275  0.00  0.00    +0.000 A 
ENDBRANCH   1   2
BRANCH   1   8
ATOM      8  C   UNL     1       3.320   5.707  17.550  0.00  0.00    +0.000 C 
BRANCH   8  14
ATOM      9  C   UNL     1       2.234   3.332  21.950  0.00  0.00    +0.000 C 
ATOM     10  C   UNL     1       1.968   3.576  20.490  0.00  0.00    +0.000 A 
ATOM     11  C   UNL     1       1.117   2.705  19.800  0.00  0.00    +0.000 A 
ATOM     12  C   UNL     1       0.902   2.861  18.435  0.00  0.00    +0.000 A 
ATOM     13  C   UNL     1       1.557   3.874  17.732  0.00  0.00    +0.000 A 
ATOM     14  C   UNL     1       2.456   4.735  18.375  0.00  0.00    +0.000 A 
ATOM     15  C   UNL     1       2.626   4.598  19.772  0.00  0.00    +0.000 A 
ENDBRANCH   8  14
ENDBRANCH   1   8
BRANCH   1  16
ATOM     16  C   UNL     1       4.970   4.271  16.141  0.00  0.00    +0.000 C 
BRANCH  16  17
ATOM     17  C   UNL     1       5.410   4.782  14.768  0.00  0.00    +0.000 C 
ATOM     18  C   UNL     1       6.931   4.560  14.515  0.00  0.00    +0.000 C 
ATOM     19  N   UNL     1       6.619   3.514  13.538  0.00  0.00    +0.000 NA
ATOM     20  C   UNL     1       5.201   3.894  13.528  0.00  0.00    +0.000 C 
ATOM     21  H   UNL     1       7.095   3.605  12.639  0.00  0.00    +0.000 HD
ENDBRANCH  16  17
ENDBRANCH   1  16
TORSDOF 5
ENDMDL
MODEL 2
REMARK VINA RESULT:      -7.5      2.555      5.150
REMARK  Name = 
REMARK  6 active torsions:
REMARK  status: ('A' for Active; 'I' for Inactive)
REMARK    1  A    between atoms: C_1  and  C_2
REMARK    2  A    between atoms: C_6  and  C_7
REMARK    3  A    between atoms: C_7  and  N_8
REMARK    4  A    between atoms: N_8  and  C_9
REMARK    5  A    between atoms: N_8  and  C_14
REMARK    6  A    between atoms: C_9  and  C_10
REMARK                            x       y       z     vdW  Elec       q    Type
REMARK                         _______ _______ _______ _____ _____    ______ ____
ROOT
ATOM      1  N   UNL     1       3.709   5.216  18.718  0.00  0.00    +0.000 N 
ENDROOT
BRANCH   1   2
ATOM      2  C   UNL     1       2.891   4.326  19.457  0.00  0.00    +0.000 A 
ATOM      3  C   UNL     1       3.110   4.036  20.816  0.00  0.00    +0.000 A 
ATOM      4  C   UNL     1       2.187   3.339  21.605  0.00  0.00    +0.000 A 
ATOM      5  C   UNL     1       1.022   2.845  21.043  0.00  0.00    +0.000 A 
ATOM      6  C   UNL     1       0.815   3.008  19.684  0.00  0.00    +0.000 A 
ATOM      7  C   UNL     1       1.740   3.724  18.908  0.00  0.00    +0.000 A 
ENDBRANCH   1   2
BRANCH   1   8
ATOM      8  C   UNL     1       3.086   6.167  17.760  0.00  0.00    +0.000 C 
BRANCH   8  14
ATOM      9  C   UNL     1       0.866   8.519  21.726  0.00  0.00    +0.000 C 
ATOM     10  C   UNL     1       1.405   8.539  20.321  0.00  0.00    +0.000 A 
ATOM     11  C   UNL     1       1.116   9.635  19.500  0.00  0.00    +0.000 A 
ATOM     12  C   UNL     1       1.541   9.656  18.175  0.00  0.00    +0.000 A 
ATOM     13  C   UNL     1       2.238   8.569  17.644  0.00  0.00    +0.000 A 
ATOM     14  C   UNL     1       2.502   7.432  18.418  0.00  0.00    +0.000 A 
ATOM     15  C   UNL     1       2.110   7.444  19.777  0.00  0.00    +0.000 A 
ENDBRANCH   8  14
ENDBRANCH   1   8
BRANCH   1  16
ATOM     16  C   UNL     1       5.103   5.390  19.209  0.00  0.00    +0.000 C 
BRANCH  16  17
ATOM     17  C   UNL     1       6.245   5.734  18.252  0.00  0.00    +0.000 C 
ATOM     18  C   UNL     1       7.645   5.538  18.908  0.00  0.00    +0.000 C 
ATOM     19  N   UNL     1       7.878   4.363  18.065  0.00  0.00    +0.000 NA
ATOM     20  C   UNL     1       6.716   4.685  17.228  0.00  0.00    +0.000 C 
ATOM     21  H   UNL     1       8.774   4.354  17.572  0.00  0.00    +0.000 HD
ENDBRANCH  16  17
ENDBRANCH   1  16
TORSDOF 5
ENDMDL
MODEL 3
REMARK VINA RESULT:      -7.5      2.810      5.051
REMARK  Name = 
REMARK  6 active torsions:
REMARK  status: ('A' for Active; 'I' for Inactive)
REMARK    1  A    between atoms: C_1  and  C_2
REMARK    2  A    between atoms: C_6  and  C_7
REMARK    3  A    between atoms: C_7  and  N_8
REMARK    4  A    between atoms: N_8  and  C_9
REMARK    5  A    between atoms: N_8  and  C_14
REMARK    6  A    between atoms: C_9  and  C_10
REMARK                            x       y       z     vdW  Elec       q    Type
REMARK                         _______ _______ _______ _____ _____    ______ ____
ROOT
ATOM      1  N   UNL     1       3.811   5.500  18.680  0.00  0.00    +0.000 N 
ENDROOT
BRANCH   1   2
ATOM      2  C   UNL     1       5.194   5.738  18.484  0.00  0.00    +0.000 A 
ATOM      3  C   UNL     1       5.696   6.475  17.396  0.00  0.00    +0.000 A 
ATOM      4  C   UNL     1       7.028   6.901  17.313  0.00  0.00    +0.000 A 
ATOM      5  C   UNL     1       7.934   6.548  18.298  0.00  0.00    +0.000 A 
ATOM      6  C   UNL     1       7.514   5.728  19.332  0.00  0.00    +0.000 A 
ATOM      7  C   UNL     1       6.171   5.324  19.411  0.00  0.00    +0.000 A 
ENDBRANCH   1   2
BRANCH   1   8
ATOM      8  C   UNL     1       2.813   6.222  17.848  0.00  0.00    +0.000 C 
BRANCH   8  14
ATOM      9  C   UNL     1       0.869   8.793  21.822  0.00  0.00    +0.000 C 
ATOM     10  C   UNL     1       1.326   8.740  20.389  0.00  0.00    +0.000 A 
ATOM     11  C   UNL     1       1.009   9.803  19.537  0.00  0.00    +0.000 A 
ATOM     12  C   UNL     1       1.357   9.756  18.190  0.00  0.00    +0.000 A 
ATOM     13  C   UNL     1       2.002   8.634  17.671  0.00  0.00    +0.000 A 
ATOM     14  C   UNL     1       2.291   7.527  18.480  0.00  0.00    +0.000 A 
ATOM     15  C   UNL     1       1.979   7.608  19.856  0.00  0.00    +0.000 A 
ENDBRANCH   8  14
ENDBRANCH   1   8
BRANCH   1  16
ATOM     16  C   UNL     1       3.458   4.282  19.457  0.00  0.00    +0.000 C 
BRANCH  16  17
ATOM     17  C   UNL     1       2.533   4.355  20.673  0.00  0.00    +0.000 C 
ATOM     18  C   UNL     1       1.040   4.128  20.295  0.00  0.00    +0.000 C 
ATOM     19  N   UNL     1       1.070   2.817  20.946  0.00  0.00    +0.000 NA
ATOM     20  C   UNL     1       2.365   3.114  21.570  0.00  0.00    +0.000 C 
ATOM     21  H   UNL     1       0.307   2.641  21.603  0.00  0.00    +0.000 HD
ENDBRANCH  16  17
ENDBRANCH   1  16
TORSDOF 5
ENDMDL
MODEL 4
REMARK VINA RESULT:      -7.4      2.681      5.282
REMARK  Name = 
REMARK  6 active torsions:
REMARK  status: ('A' for Active; 'I' for Inactive)
REMARK    1  A    between atoms: C_1  and  C_2
REMARK    2  A    between atoms: C_6  and  C_7
REMARK    3  A    between atoms: C_7  and  N_8
REMARK    4  A    between atoms: N_8  and  C_9
REMARK    5  A    between atoms: N_8  and  C_14
REMARK    6  A    between atoms: C_9  and  C_10
REMARK                            x       y       z     vdW  Elec       q    Type
REMARK                         _______ _______ _______ _____ _____    ______ ____
ROOT
ATOM      1  N   UNL     1       3.545   5.432  18.739  0.00  0.00    +0.000 N 
ENDROOT
BRANCH   1   2
ATOM      2  C   UNL     1       2.659   4.629  19.500  0.00  0.00    +0.000 A 
ATOM      3  C   UNL     1       1.557   3.961  18.936  0.00  0.00    +0.000 A 
ATOM      4  C   UNL     1       0.814   2.997  19.629  0.00  0.00    +0.000 A 
ATOM      5  C   UNL     1       1.109   2.707  20.950  0.00  0.00    +0.000 A 
ATOM      6  C   UNL     1       2.113   3.420  21.583  0.00  0.00    +0.000 A 
ATOM      7  C   UNL     1       2.862   4.371  20.871  0.00  0.00    +0.000 A 
ENDBRANCH   1   2
BRANCH   1   8
ATOM      8  C   UNL     1       2.999   6.439  17.793  0.00  0.00    +0.000 C 
BRANCH   8  14
ATOM      9  C   UNL     1       0.746   8.674  21.807  0.00  0.00    +0.000 C 
ATOM     10  C   UNL     1       1.279   8.730  20.401  0.00  0.00    +0.000 A 
ATOM     11  C   UNL     1       0.965   9.835  19.601  0.00  0.00    +0.000 A 
ATOM     12  C   UNL     1       1.385   9.888  18.276  0.00  0.00    +0.000 A 
ATOM     13  C   UNL     1       2.102   8.826  17.723  0.00  0.00    +0.000 A 
ATOM     14  C   UNL     1       2.392   7.681  18.476  0.00  0.00    +0.000 A 
ATOM     15  C   UNL     1       2.004   7.660  19.835  0.00  0.00    +0.000 A 
ENDBRANCH   8  14
ENDBRANCH   1   8
BRANCH   1  16
ATOM     16  C   UNL     1       4.960   5.464  19.197  0.00  0.00    +0.000 C 
BRANCH  16  17
ATOM     17  C   UNL     1       6.105   5.750  18.224  0.00  0.00    +0.000 C 
ATOM     18  C   UNL     1       7.503   5.569  18.886  0.00  0.00    +0.000 C 
ATOM     19  N   UNL     1       7.722   4.353  18.100  0.00  0.00    +0.000 NA
ATOM     20  C   UNL     1       6.562   4.648  17.250  0.00  0.00    +0.000 C 
ATOM     21  H   UNL     1       8.616   4.310  17.607  0.00  0.00    +0.000 HD
ENDBRANCH  16  17
ENDBRANCH   1  16
TORSDOF 5
ENDMDL
MODEL 5
REMARK VINA RESULT:      -7.4      2.654      6.125
REMARK  Name = 
REMARK  6 active torsions:
REMARK  status: ('A' for Active; 'I' for Inactive)
REMARK    1  A    between atoms: C_1  and  C_2
REMARK    2  A    between atoms: C_6  and  C_7
REMARK    3  A    between atoms: C_7  and  N_8
REMARK    4  A    between atoms: N_8  and  C_9
REMARK    5  A    between atoms: N_8  and  C_14
REMARK    6  A    between atoms: C_9  and  C_10
REMARK                            x       y       z     vdW  Elec       q    Type
REMARK                         _______ _______ _______ _____ _____    ______ ____
ROOT
ATOM      1  N   UNL     1       2.997   5.990  18.791  0.00  0.00    +0.000 N 
ENDROOT
BRANCH   1   2
ATOM      2  C   UNL     1       2.452   7.291  18.933  0.00  0.00    +0.000 A 
ATOM      3  C   UNL     1       2.401   8.218  17.877  0.00  0.00    +0.000 A 
ATOM      4  C   UNL     1       1.671   9.412  17.946  0.00  0.00    +0.000 A 
ATOM      5  C   UNL     1       1.009   9.758  19.111  0.00  0.00    +0.000 A 
ATOM      6  C   UNL     1       1.123   8.931  20.216  0.00  0.00    +0.000 A 
ATOM      7  C   UNL     1       1.843   7.728  20.127  0.00  0.00    +0.000 A 
ENDBRANCH   1   2
BRANCH   1   8
ATOM      8  C   UNL     1       4.358   5.701  19.311  0.00  0.00    +0.000 C 
BRANCH   8  14
ATOM      9  C   UNL     1       5.518   4.455  14.485  0.00  0.00    +0.000 C 
ATOM     10  C   UNL     1       5.932   4.746  15.902  0.00  0.00    +0.000 A 
ATOM     11  C   UNL     1       7.239   4.443  16.302  0.00  0.00    +0.000 A 
ATOM     12  C   UNL     1       7.636   4.637  17.621  0.00  0.00    +0.000 A 
ATOM     13  C   UNL     1       6.725   5.111  18.566  0.00  0.00    +0.000 A 
ATOM     14  C   UNL     1       5.395   5.378  18.217  0.00  0.00    +0.000 A 
ATOM     15  C   UNL     1       5.017   5.226  16.863  0.00  0.00    +0.000 A 
ENDBRANCH   8  14
ENDBRANCH   1   8
BRANCH   1  16
ATOM     16  C   UNL     1       2.033   4.908  18.453  0.00  0.00    +0.000 C 
BRANCH  16  17
ATOM     17  C   UNL     1       2.071   3.558  19.171  0.00  0.00    +0.000 C 
ATOM     18  C   UNL     1       1.600   3.662  20.652  0.00  0.00    +0.000 C 
ATOM     19  N   UNL     1       0.365   2.952  20.313  0.00  0.00    +0.000 NA
ATOM     20  C   UNL     1       0.898   2.576  18.997  0.00  0.00    +0.000 C 
ATOM     21  H   UNL     1       0.135   2.166  20.924  0.00  0.00    +0.000 HD
ENDBRANCH  16  17
ENDBRANCH   1  16
TORSDOF 5
ENDMDL
MODEL 6
REMARK VINA RESULT:      -7.3      2.714      4.275
REMARK  Name = 
REMARK  6 active torsions:
REMARK  status: ('A' for Active; 'I' for Inactive)
REMARK    1  A    between atoms: C_1  and  C_2
REMARK    2  A    between atoms: C_6  and  C_7
REMARK    3  A    between atoms: C_7  and  N_8
REMARK    4  A    between atoms: N_8  and  C_9
REMARK    5  A    between atoms: N_8  and  C_14
REMARK    6  A    between atoms: C_9  and  C_10
REMARK                            x       y       z     vdW  Elec       q    Type
REMARK                         _______ _______ _______ _____ _____    ______ ____
ROOT
ATOM      1  N   UNL     1       3.853   5.379  18.872  0.00  0.00    +0.000 N 
ENDROOT
BRANCH   1   2
ATOM      2  C   UNL     1       5.190   5.718  18.545  0.00  0.00    +0.000 A 
ATOM      3  C   UNL     1       5.525   6.544  17.457  0.00  0.00    +0.000 A 
ATOM      4  C   UNL     1       6.812   7.061  17.260  0.00  0.00    +0.000 A 
ATOM      5  C   UNL     1       7.840   6.714  18.119  0.00  0.00    +0.000 A 
ATOM      6  C   UNL     1       7.585   5.813  19.140  0.00  0.00    +0.000 A 
ATOM      7  C   UNL     1       6.286   5.318  19.336  0.00  0.00    +0.000 A 
ENDBRANCH   1   2
BRANCH   1   8
ATOM      8  C   UNL     1       2.731   5.982  18.106  0.00  0.00    +0.000 C 
BRANCH   8  14
ATOM      9  C   UNL     1       0.847   8.860  21.894  0.00  0.00    +0.000 C 
ATOM     10  C   UNL     1       1.316   8.703  20.472  0.00  0.00    +0.000 A 
ATOM     11  C   UNL     1       1.049   9.724  19.553  0.00  0.00    +0.000 A 
ATOM     12  C   UNL     1       1.408   9.583  18.217  0.00  0.00    +0.000 A 
ATOM     13  C   UNL     1       2.015   8.407  17.774  0.00  0.00    +0.000 A 
ATOM     14  C   UNL     1       2.253   7.342  18.651  0.00  0.00    +0.000 A 
ATOM     15  C   UNL     1       1.930   7.517  20.016  0.00  0.00    +0.000 A 
ENDBRANCH   8  14
ENDBRANCH   1   8
BRANCH   1  16
ATOM     16  C   UNL     1       3.670   4.172  19.722  0.00  0.00    +0.000 C 
BRANCH  16  17
ATOM     17  C   UNL     1       3.601   2.772  19.110  0.00  0.00    +0.000 C 
ATOM     18  C   UNL     1       2.137   2.261  18.966  0.00  0.00    +0.000 C 
ATOM     19  N   UNL     1       2.221   2.415  17.513  0.00  0.00    +0.000 NA
ATOM     20  C   UNL     1       3.675   2.611  17.580  0.00  0.00    +0.000 C 
ATOM     21  H   UNL     1       1.922   1.601  16.972  0.00  0.00    +0.000 HD
ENDBRANCH  16  17
ENDBRANCH   1  16
TORSDOF 5
ENDMDL
MODEL 7
REMARK VINA RESULT:      -7.3      2.682      4.900
REMARK  Name = 
REMARK  6 active torsions:
REMARK  status: ('A' for Active; 'I' for Inactive)
REMARK    1  A    between atoms: C_1  and  C_2
REMARK    2  A    between atoms: C_6  and  C_7
REMARK    3  A    between atoms: C_7  and  N_8
REMARK    4  A    between atoms: N_8  and  C_9
REMARK    5  A    between atoms: N_8  and  C_14
REMARK    6  A    between atoms: C_9  and  C_10
REMARK                            x       y       z     vdW  Elec       q    Type
REMARK                         _______ _______ _______ _____ _____    ______ ____
ROOT
ATOM      1  N   UNL     1       3.417   4.729  18.484  0.00  0.00    +0.000 N 
ENDROOT
BRANCH   1   2
ATOM      2  C   UNL     1       4.623   4.513  17.771  0.00  0.00    +0.000 A 
ATOM      3  C   UNL     1       4.653   4.093  16.429  0.00  0.00    +0.000 A 
ATOM      4  C   UNL     1       5.822   4.092  15.656  0.00  0.00    +0.000 A 
ATOM      5  C   UNL     1       7.031   4.455  16.223  0.00  0.00    +0.000 A 
ATOM      6  C   UNL     1       7.071   4.769  17.571  0.00  0.00    +0.000 A 
ATOM      7  C   UNL     1       5.889   4.784  18.329  0.00  0.00    +0.000 A 
ENDBRANCH   1   2
BRANCH   1   8
ATOM      8  C   UNL     1       3.399   5.672  19.632  0.00  0.00    +0.000 C 
BRANCH   8  14
ATOM      9  C   UNL     1       0.130   9.428  20.810  0.00  0.00    +0.000 C 
ATOM     10  C   UNL     1       1.145   8.813  19.885  0.00  0.00    +0.000 A 
ATOM     11  C   UNL     1       1.289   9.333  18.594  0.00  0.00    +0.000 A 
ATOM     12  C   UNL     1       2.170   8.746  17.691  0.00  0.00    +0.000 A 
ATOM     13  C   UNL     1       2.900   7.614  18.056  0.00  0.00    +0.000 A 
ATOM     14  C   UNL     1       2.746   7.033  19.321  0.00  0.00    +0.000 A 
ATOM     15  C   UNL     1       1.886   7.668  20.247  0.00  0.00    +0.000 A 
ENDBRANCH   8  14
ENDBRANCH   1   8
BRANCH   1  16
ATOM     16  C   UNL     1       2.168   4.275  17.815  0.00  0.00    +0.000 C 
BRANCH  16  17
ATOM     17  C   UNL     1       1.332   3.129  18.387  0.00  0.00    +0.000 C 
ATOM     18  C   UNL     1       2.215   2.004  19.004  0.00  0.00    +0.000 C 
ATOM     19  N   UNL     1       1.790   2.402  20.348  0.00  0.00    +0.000 NA
ATOM     20  C   UNL     1       0.734   3.262  19.800  0.00  0.00    +0.000 C 
ATOM     21  H   UNL     1       1.457   1.639  20.941  0.00  0.00    +0.000 HD
ENDBRANCH  16  17
ENDBRANCH   1  16
TORSDOF 5
ENDMDL
MODEL 8
REMARK VINA RESULT:      -7.3      2.440      5.830
REMARK  Name = 
REMARK  6 active torsions:
REMARK  status: ('A' for Active; 'I' for Inactive)
REMARK    1  A    between atoms: C_1  and  C_2
REMARK    2  A    between atoms: C_6  and  C_7
REMARK    3  A    between atoms: C_7  and  N_8
REMARK    4  A    between atoms: N_8  and  C_9
REMARK    5  A    between atoms: N_8  and  C_14
REMARK    6  A    between atoms: C_9  and  C_10
REMARK                            x       y       z     vdW  Elec       q    Type
REMARK                         _______ _______ _______ _____ _____    ______ ____
ROOT
ATOM      1  N   UNL     1       2.931   5.616  19.252  0.00  0.00    +0.000 N 
ENDROOT
BRANCH   1   2
ATOM      2  C   UNL     1       2.491   6.962  19.175  0.00  0.00    +0.000 A 
ATOM      3  C   UNL     1       2.575   7.727  17.998  0.00  0.00    +0.000 A 
ATOM      4  C   UNL     1       1.946   8.970  17.850  0.00  0.00    +0.000 A 
ATOM      5  C   UNL     1       1.253   9.530  18.910  0.00  0.00    +0.000 A 
ATOM      6  C   UNL     1       1.238   8.866  20.125  0.00  0.00    +0.000 A 
ATOM      7  C   UNL     1       1.857   7.612  20.253  0.00  0.00    +0.000 A 
ENDBRANCH   1   2
BRANCH   1   8
ATOM      8  C   UNL     1       4.377   5.323  19.429  0.00  0.00    +0.000 C 
BRANCH   8  14
ATOM      9  C   UNL     1       5.412   4.242  14.536  0.00  0.00    +0.000 C 
ATOM     10  C   UNL     1       5.726   4.970  15.815  0.00  0.00    +0.000 A 
ATOM     11  C   UNL     1       6.960   5.617  15.941  0.00  0.00    +0.000 A 
ATOM     12  C   UNL     1       7.311   6.243  17.132  0.00  0.00    +0.000 A 
ATOM     13  C   UNL     1       6.444   6.208  18.226  0.00  0.00    +0.000 A 
ATOM     14  C   UNL     1       5.222   5.527  18.157  0.00  0.00    +0.000 A 
ATOM     15  C   UNL     1       4.855   4.939  16.925  0.00  0.00    +0.000 A 
ENDBRANCH   8  14
ENDBRANCH   1   8
BRANCH   1  16
ATOM     16  C   UNL     1       1.880   4.595  19.511  0.00  0.00    +0.000 C 
BRANCH  16  17
ATOM     17  C   UNL     1       1.364   3.686  18.396  0.00  0.00    +0.000 C 
ATOM     18  C   UNL     1       2.478   2.760  17.823  0.00  0.00    +0.000 C 
ATOM     19  N   UNL     1       1.848   1.602  18.461  0.00  0.00    +0.000 NA
ATOM     20  C   UNL     1       0.638   2.377  18.762  0.00  0.00    +0.000 C 
ATOM     21  H   UNL     1       1.701   0.797  17.848  0.00  0.00    +0.000 HD
ENDBRANCH  16  17
ENDBRANCH   1  16
TORSDOF 5
ENDMDL
MODEL 9
REMARK VINA RESULT:      -7.3      2.545      6.164
REMARK  Name = 
REMARK  6 active torsions:
REMARK  status: ('A' for Active; 'I' for Inactive)
REMARK    1  A    between atoms: C_1  and  C_2
REMARK    2  A    between atoms: C_6  and  C_7
REMARK    3  A    between atoms: C_7  and  N_8
REMARK    4  A    between atoms: N_8  and  C_9
REMARK    5  A    between atoms: N_8  and  C_14
REMARK    6  A    between atoms: C_9  and  C_10
REMARK                            x       y       z     vdW  Elec       q    Type
REMARK                         _______ _______ _______ _____ _____    ______ ____
ROOT
ATOM      1  N   UNL     1       2.754   5.528  19.039  0.00  0.00    +0.000 N 
ENDROOT
BRANCH   1   2
ATOM      2  C   UNL     1       2.276   6.803  19.433  0.00  0.00    +0.000 A 
ATOM      3  C   UNL     1       2.225   7.904  18.560  0.00  0.00    +0.000 A 
ATOM      4  C   UNL     1       1.554   9.094  18.871  0.00  0.00    +0.000 A 
ATOM      5  C   UNL     1       0.955   9.253  20.108  0.00  0.00    +0.000 A 
ATOM      6  C   UNL     1       1.075   8.239  21.044  0.00  0.00    +0.000 A 
ATOM      7  C   UNL     1       1.735   7.045  20.712  0.00  0.00    +0.000 A 
ENDBRANCH   1   2
BRANCH   1   8
ATOM      8  C   UNL     1       3.027   5.255  17.604  0.00  0.00    +0.000 C 
BRANCH   8  14
ATOM      9  C   UNL     1       7.636   7.471  17.449  0.00  0.00    +0.000 C 
ATOM     10  C   UNL     1       6.725   6.313  17.145  0.00  0.00    +0.000 A 
ATOM     11  C   UNL     1       7.168   5.313  16.272  0.00  0.00    +0.000 A 
ATOM     12  C   UNL     1       6.328   4.262  15.917  0.00  0.00    +0.000 A 
ATOM     13  C   UNL     1       5.022   4.211  16.408  0.00  0.00    +0.000 A 
ATOM     14  C   UNL     1       4.524   5.220  17.243  0.00  0.00    +0.000 A 
ATOM     15  C   UNL     1       5.404   6.254  17.637  0.00  0.00    +0.000 A 
ENDBRANCH   8  14
ENDBRANCH   1   8
BRANCH   1  16
ATOM     16  C   UNL     1       3.292   4.665  20.124  0.00  0.00    +0.000 C 
BRANCH  16  17
ATOM     17  C   UNL     1       2.771   3.244  20.342  0.00  0.00    +0.000 C 
ATOM     18  C   UNL     1       1.948   3.111  21.657  0.00  0.00    +0.000 C 
ATOM     19  N   UNL     1       0.716   2.973  20.877  0.00  0.00    +0.000 NA
ATOM     20  C   UNL     1       1.478   2.796  19.635  0.00  0.00    +0.000 C 
ATOM     21  H   UNL     1       0.126   2.180  21.136  0.00  0.00    +0.000 HD
ENDBRANCH  16  17
ENDBRANCH   1  16
TORSDOF 5
ENDMDL
