MODEL 1
REMARK VINA RESULT:      -7.3      0.000      0.000
REMARK  Name = 
REMARK  4 active torsions:
REMARK  status: ('A' for Active; 'I' for Inactive)
REMARK    1  A    between atoms: C_1  and  C_2
REMARK    2  A    between atoms: C_5  and  N_6
REMARK    3  A    between atoms: N_6  and  S_7
REMARK    4  A    between atoms: S_7  and  C_10
REMARK                            x       y       z     vdW  Elec       q    Type
REMARK                         _______ _______ _______ _____ _____    ______ ____
ROOT
ATOM      1  S   UNL     1       2.769   4.666  19.602  0.00  0.00    +0.000 S 
ATOM      2  O   UNL     1       3.123   3.708  20.630  0.00  0.00    +0.000 OA
ATOM      3  O   UNL     1       1.417   4.681  19.073  0.00  0.00    +0.000 OA
ENDROOT
BRANCH   1   4
ATOM      4  C   UNL     1       3.872   4.418  18.237  0.00  0.00    +0.000 A 
ATOM      5  C   UNL     1       3.378   3.837  17.057  0.00  0.00    +0.000 A 
ATOM      6  C   UNL     1       4.240   3.580  15.999  0.00  0.00    +0.000 A 
ATOM      7  C   UNL     1       5.591   3.891  16.126  0.00  0.00    +0.000 A 
ATOM      8  C   UNL     1       6.082   4.467  17.312  0.00  0.00    +0.000 A 
ATOM      9  C   UNL     1       7.445   4.767  17.438  0.00  0.00    +0.000 A 
ATOM     10  C   UNL     1       7.930   5.325  18.612  0.00  0.00    +0.000 A 
ATOM     11  C   UNL     1       7.026   5.578  19.622  0.00  0.00    +0.000 A 
ATOM     12  N   UNL     1       5.702   5.321  19.530  0.00  0.00    +0.000 NA
ATOM     13  C   UNL     1       5.221   4.749  18.400  0.00  0.00    +0.000 A 
ENDBRANCH   1   4
BRANCH   1  14
ATOM     14  N   UNL     1       3.114   6.196  20.191  0.00  0.00    +0.000 N 
ATOM     15  H   UNL     1       4.003   6.304  20.676  0.00  0.00    +0.000 HD
BRANCH  14  20
ATOM     16  C   UNL     1      -0.308  10.683  19.120  0.00  0.00    +0.000 C 
ATOM     17  C   UNL     1       0.604   9.526  19.402  0.00  0.00    +0.000 A 
ATOM     18  C   UNL     1       0.581   8.864  20.632  0.00  0.00    +0.000 A 
ATOM     19  C   UNL     1       1.421   7.768  20.863  0.00  0.00    +0.000 A 
ATOM     20  C   UNL     1       2.295   7.313  19.867  0.00  0.00    +0.000 A 
ATOM     21  C   UNL     1       2.347   7.994  18.650  0.00  0.00    +0.000 A 
ATOM     22 CL   UNL     1       3.461   7.573  17.403  0.00  0.00    +0.000 Cl
ATOM     23  C   UNL     1       1.497   9.085  18.416  0.00  0.00    +0.000 A 
ENDBRANCH  14  20
ENDBRANCH   1  14
TORSDOF 3
ENDMDL
MODEL 2
REMARK VINA RESULT:      -7.3      3.508      6.693
REMARK  Name = 
REMARK  4 active torsions:
REMARK  status: ('A' for Active; 'I' for Inactive)
REMARK    1  A    between atoms: C_1  and  C_2
REMARK    2  A    between atoms: C_5  and  N_6
REMARK    3  A    between atoms: N_6  and  S_7
REMARK    4  A    between atoms: S_7  and  C_10
REMARK                            x       y       z     vdW  Elec       q    Type
REMARK                         _______ _______ _______ _____ _____    ______ ____
ROOT
ATOM      1  S   UNL     1       7.173   5.425  17.117  0.00  0.00    +0.000 S 
ATOM      2  O   UNL     1       7.973   4.227  16.955  0.00  0.00    +0.000 OA
ATOM      3  O   UNL     1       7.700   6.539  17.885  0.00  0.00    +0.000 OA
ENDROOT
BRANCH   1   4
ATOM      4  C   UNL     1       5.638   4.945  17.862  0.00  0.00    +0.000 A 
ATOM      5  C   UNL     1       5.501   3.640  18.365  0.00  0.00    +0.000 A 
ATOM      6  C   UNL     1       4.287   3.227  18.896  0.00  0.00    +0.000 A 
ATOM      7  C   UNL     1       3.211   4.111  18.914  0.00  0.00    +0.000 A 
ATOM      8  C   UNL     1       3.351   5.414  18.403  0.00  0.00    +0.000 A 
ATOM      9  C   UNL     1       2.262   6.296  18.413  0.00  0.00    +0.000 A 
ATOM     10  C   UNL     1       2.398   7.577  17.899  0.00  0.00    +0.000 A 
ATOM     11  C   UNL     1       3.632   7.941  17.403  0.00  0.00    +0.000 A 
ATOM     12  N   UNL     1       4.710   7.126  17.394  0.00  0.00    +0.000 NA
ATOM     13  C   UNL     1       4.582   5.863  17.866  0.00  0.00    +0.000 A 
ENDBRANCH   1   4
BRANCH   1  14
ATOM     14  N   UNL     1       6.779   5.986  15.589  0.00  0.00    +0.000 N 
ATOM     15  H   UNL     1       6.853   6.992  15.444  0.00  0.00    +0.000 HD
BRANCH  14  20
ATOM     16  C   UNL     1       5.584   2.278  11.370  0.00  0.00    +0.000 C 
ATOM     17  C   UNL     1       5.890   3.264  12.457  0.00  0.00    +0.000 A 
ATOM     18  C   UNL     1       5.038   3.429  13.551  0.00  0.00    +0.000 A 
ATOM     19  C   UNL     1       5.358   4.334  14.570  0.00  0.00    +0.000 A 
ATOM     20  C   UNL     1       6.538   5.088  14.513  0.00  0.00    +0.000 A 
ATOM     21  C   UNL     1       7.374   4.954  13.403  0.00  0.00    +0.000 A 
ATOM     22 CL   UNL     1       8.792   5.912  13.194  0.00  0.00    +0.000 Cl
ATOM     23  C   UNL     1       7.058   4.038  12.390  0.00  0.00    +0.000 A 
ENDBRANCH  14  20
ENDBRANCH   1  14
TORSDOF 3
ENDMDL
MODEL 3
REMARK VINA RESULT:      -7.2      0.981      1.213
REMARK  Name = 
REMARK  4 active torsions:
REMARK  status: ('A' for Active; 'I' for Inactive)
REMARK    1  A    between atoms: C_1  and  C_2
REMARK    2  A    between atoms: C_5  and  N_6
REMARK    3  A    between atoms: N_6  and  S_7
REMARK    4  A    between atoms: S_7  and  C_10
REMARK                            x       y       z     vdW  Elec       q    Type
REMARK                         _______ _______ _______ _____ _____    ______ ____
ROOT
ATOM      1  S   UNL     1       2.047   5.113  20.509  0.00  0.00    +0.000 S 
ATOM      2  O   UNL     1       2.633   4.353  21.595  0.00  0.00    +0.000 OA
ATOM      3  O   UNL     1       0.604   5.136  20.348  0.00  0.00    +0.000 OA
ENDROOT
BRANCH   1   4
ATOM      4  C   UNL     1       2.741   4.505  18.995  0.00  0.00    +0.000 A 
ATOM      5  C   UNL     1       1.917   3.800  18.101  0.00  0.00    +0.000 A 
ATOM      6  C   UNL     1       2.457   3.264  16.939  0.00  0.00    +0.000 A 
ATOM      7  C   UNL     1       3.815   3.423  16.679  0.00  0.00    +0.000 A 
ATOM      8  C   UNL     1       4.637   4.124  17.581  0.00  0.00    +0.000 A 
ATOM      9  C   UNL     1       6.006   4.270  17.318  0.00  0.00    +0.000 A 
ATOM     10  C   UNL     1       6.817   4.952  18.213  0.00  0.00    +0.000 A 
ATOM     11  C   UNL     1       6.224   5.482  19.340  0.00  0.00    +0.000 A 
ATOM     12  N   UNL     1       4.905   5.378  19.617  0.00  0.00    +0.000 NA
ATOM     13  C   UNL     1       4.108   4.689  18.766  0.00  0.00    +0.000 A 
ENDBRANCH   1   4
BRANCH   1  14
ATOM     14  N   UNL     1       2.580   6.695  20.648  0.00  0.00    +0.000 N 
ATOM     15  H   UNL     1       3.553   6.822  20.923  0.00  0.00    +0.000 HD
BRANCH  14  20
ATOM     16  C   UNL     1      -0.805  11.095  19.178  0.00  0.00    +0.000 C 
ATOM     17  C   UNL     1       0.097   9.961  19.563  0.00  0.00    +0.000 A 
ATOM     18  C   UNL     1       0.050   9.395  20.839  0.00  0.00    +0.000 A 
ATOM     19  C   UNL     1       0.881   8.318  21.168  0.00  0.00    +0.000 A 
ATOM     20  C   UNL     1       1.771   7.786  20.225  0.00  0.00    +0.000 A 
ATOM     21  C   UNL     1       1.847   8.372  18.961  0.00  0.00    +0.000 A 
ATOM     22 CL   UNL     1       2.982   7.854  17.769  0.00  0.00    +0.000 Cl
ATOM     23  C   UNL     1       1.005   9.444  18.629  0.00  0.00    +0.000 A 
ENDBRANCH  14  20
ENDBRANCH   1  14
TORSDOF 3
ENDMDL
MODEL 4
REMARK VINA RESULT:      -7.2      2.191      2.787
REMARK  Name = 
REMARK  4 active torsions:
REMARK  status: ('A' for Active; 'I' for Inactive)
REMARK    1  A    between atoms: C_1  and  C_2
REMARK    2  A    between atoms: C_5  and  N_6
REMARK    3  A    between atoms: N_6  and  S_7
REMARK    4  A    between atoms: S_7  and  C_10
REMARK                            x       y       z     vdW  Elec       q    Type
REMARK                         _______ _______ _______ _____ _____    ______ ____
ROOT
ATOM      1  S   UNL     1       3.978   2.892  18.244  0.00  0.00    +0.000 S 
ATOM      2  O   UNL     1       4.537   2.975  19.579  0.00  0.00    +0.000 OA
ATOM      3  O   UNL     1       3.872   1.600  17.591  0.00  0.00    +0.000 OA
ENDROOT
BRANCH   1   4
ATOM      4  C   UNL     1       4.946   3.942  17.194  0.00  0.00    +0.000 A 
ATOM      5  C   UNL     1       4.759   3.876  15.802  0.00  0.00    +0.000 A 
ATOM      6  C   UNL     1       5.550   4.645  14.960  0.00  0.00    +0.000 A 
ATOM      7  C   UNL     1       6.531   5.468  15.506  0.00  0.00    +0.000 A 
ATOM      8  C   UNL     1       6.719   5.526  16.899  0.00  0.00    +0.000 A 
ATOM      9  C   UNL     1       7.716   6.348  17.441  0.00  0.00    +0.000 A 
ATOM     10  C   UNL     1       7.909   6.396  18.814  0.00  0.00    +0.000 A 
ATOM     11  C   UNL     1       7.081   5.627  19.604  0.00  0.00    +0.000 A 
ATOM     12  N   UNL     1       6.096   4.838  19.119  0.00  0.00    +0.000 NA
ATOM     13  C   UNL     1       5.918   4.760  17.779  0.00  0.00    +0.000 A 
ENDBRANCH   1   4
BRANCH   1  14
ATOM     14  N   UNL     1       2.451   3.580  18.287  0.00  0.00    +0.000 N 
ATOM     15  H   UNL     1       1.698   3.036  17.869  0.00  0.00    +0.000 HD
BRANCH  14  20
ATOM     16  C   UNL     1       1.525   8.515  21.075  0.00  0.00    +0.000 C 
ATOM     17  C   UNL     1       1.744   7.224  20.344  0.00  0.00    +0.000 A 
ATOM     18  C   UNL     1       2.255   7.202  19.044  0.00  0.00    +0.000 A 
ATOM     19  C   UNL     1       2.478   5.984  18.390  0.00  0.00    +0.000 A 
ATOM     20  C   UNL     1       2.198   4.767  19.028  0.00  0.00    +0.000 A 
ATOM     21  C   UNL     1       1.652   4.787  20.312  0.00  0.00    +0.000 A 
ATOM     22 CL   UNL     1       1.179   3.347  21.136  0.00  0.00    +0.000 Cl
ATOM     23  C   UNL     1       1.440   6.007  20.970  0.00  0.00    +0.000 A 
ENDBRANCH  14  20
ENDBRANCH   1  14
TORSDOF 3
ENDMDL
MODEL 5
REMARK VINA RESULT:      -7.1      3.518      6.611
REMARK  Name = 
REMARK  4 active torsions:
REMARK  status: ('A' for Active; 'I' for Inactive)
REMARK    1  A    between atoms: C_1  and  C_2
REMARK    2  A    between atoms: C_5  and  N_6
REMARK    3  A    between atoms: N_6  and  S_7
REMARK    4  A    between atoms: S_7  and  C_10
REMARK                            x       y       z     vdW  Elec       q    Type
REMARK                         _______ _______ _______ _____ _____    ______ ____
ROOT
ATOM      1  S   UNL     1       7.028   5.529  17.280  0.00  0.00    +0.000 S 
ATOM      2  O   UNL     1       7.240   4.096  17.349  0.00  0.00    +0.000 OA
ATOM      3  O   UNL     1       7.835   6.413  18.102  0.00  0.00    +0.000 OA
ENDROOT
BRANCH   1   4
ATOM      4  C   UNL     1       5.328   5.836  17.678  0.00  0.00    +0.000 A 
ATOM      5  C   UNL     1       4.726   7.023  17.227  0.00  0.00    +0.000 A 
ATOM      6  C   UNL     1       3.414   7.310  17.579  0.00  0.00    +0.000 A 
ATOM      7  C   UNL     1       2.712   6.420  18.388  0.00  0.00    +0.000 A 
ATOM      8  C   UNL     1       3.322   5.237  18.842  0.00  0.00    +0.000 A 
ATOM      9  C   UNL     1       2.613   4.350  19.664  0.00  0.00    +0.000 A 
ATOM     10  C   UNL     1       3.219   3.188  20.120  0.00  0.00    +0.000 A 
ATOM     11  C   UNL     1       4.516   2.944  19.722  0.00  0.00    +0.000 A 
ATOM     12  N   UNL     1       5.224   3.764  18.914  0.00  0.00    +0.000 NA
ATOM     13  C   UNL     1       4.654   4.916  18.487  0.00  0.00    +0.000 A 
ENDBRANCH   1   4
BRANCH   1  14
ATOM     14  N   UNL     1       7.210   5.995  15.681  0.00  0.00    +0.000 N 
ATOM     15  H   UNL     1       7.735   6.852  15.517  0.00  0.00    +0.000 HD
BRANCH  14  20
ATOM     16  C   UNL     1       5.399   2.474  11.521  0.00  0.00    +0.000 C 
ATOM     17  C   UNL     1       5.865   3.412  12.595  0.00  0.00    +0.000 A 
ATOM     18  C   UNL     1       5.148   3.572  13.782  0.00  0.00    +0.000 A 
ATOM     19  C   UNL     1       5.617   4.431  14.783  0.00  0.00    +0.000 A 
ATOM     20  C   UNL     1       6.813   5.142  14.615  0.00  0.00    +0.000 A 
ATOM     21  C   UNL     1       7.513   5.013  13.414  0.00  0.00    +0.000 A 
ATOM     22 CL   UNL     1       8.938   5.923  13.073  0.00  0.00    +0.000 Cl
ATOM     23  C   UNL     1       7.048   4.143  12.417  0.00  0.00    +0.000 A 
ENDBRANCH  14  20
ENDBRANCH   1  14
TORSDOF 3
ENDMDL
MODEL 6
REMARK VINA RESULT:      -7.1      2.226      3.366
REMARK  Name = 
REMARK  4 active torsions:
REMARK  status: ('A' for Active; 'I' for Inactive)
REMARK    1  A    between atoms: C_1  and  C_2
REMARK    2  A    between atoms: C_5  and  N_6
REMARK    3  A    between atoms: N_6  and  S_7
REMARK    4  A    between atoms: S_7  and  C_10
REMARK                            x       y       z     vdW  Elec       q    Type
REMARK                         _______ _______ _______ _____ _____    ______ ____
ROOT
ATOM      1  S   UNL     1       4.005   3.156  18.587  0.00  0.00    +0.000 S 
ATOM      2  O   UNL     1       3.976   2.884  20.011  0.00  0.00    +0.000 OA
ATOM      3  O   UNL     1       4.065   2.051  17.647  0.00  0.00    +0.000 OA
ENDROOT
BRANCH   1   4
ATOM      4  C   UNL     1       5.402   4.200  18.271  0.00  0.00    +0.000 A 
ATOM      5  C   UNL     1       6.008   4.873  19.346  0.00  0.00    +0.000 A 
ATOM      6  C   UNL     1       7.065   5.742  19.110  0.00  0.00    +0.000 A 
ATOM      7  C   UNL     1       7.505   5.946  17.806  0.00  0.00    +0.000 A 
ATOM      8  C   UNL     1       6.891   5.276  16.733  0.00  0.00    +0.000 A 
ATOM      9  C   UNL     1       7.331   5.494  15.420  0.00  0.00    +0.000 A 
ATOM     10  C   UNL     1       6.717   4.840  14.362  0.00  0.00    +0.000 A 
ATOM     11  C   UNL     1       5.687   3.973  14.656  0.00  0.00    +0.000 A 
ATOM     12  N   UNL     1       5.248   3.722  15.909  0.00  0.00    +0.000 NA
ATOM     13  C   UNL     1       5.819   4.376  16.948  0.00  0.00    +0.000 A 
ENDBRANCH   1   4
BRANCH   1  14
ATOM     14  N   UNL     1       2.657   4.080  18.217  0.00  0.00    +0.000 N 
ATOM     15  H   UNL     1       2.045   3.716  17.488  0.00  0.00    +0.000 HD
BRANCH  14  20
ATOM     16  C   UNL     1       1.317   8.787  21.222  0.00  0.00    +0.000 C 
ATOM     17  C   UNL     1       1.644   7.556  20.431  0.00  0.00    +0.000 A 
ATOM     18  C   UNL     1       2.295   7.634  19.198  0.00  0.00    +0.000 A 
ATOM     19  C   UNL     1       2.616   6.470  18.490  0.00  0.00    +0.000 A 
ATOM     20  C   UNL     1       2.296   5.207  19.006  0.00  0.00    +0.000 A 
ATOM     21  C   UNL     1       1.614   5.126  20.221  0.00  0.00    +0.000 A 
ATOM     22 CL   UNL     1       1.087   3.624  20.885  0.00  0.00    +0.000 Cl
ATOM     23  C   UNL     1       1.303   6.292  20.934  0.00  0.00    +0.000 A 
ENDBRANCH  14  20
ENDBRANCH   1  14
TORSDOF 3
ENDMDL
MODEL 7
REMARK VINA RESULT:      -7.0      1.815      2.939
REMARK  Name = 
REMARK  4 active torsions:
REMARK  status: ('A' for Active; 'I' for Inactive)
REMARK    1  A    between atoms: C_1  and  C_2
REMARK    2  A    between atoms: C_5  and  N_6
REMARK    3  A    between atoms: N_6  and  S_7
REMARK    4  A    between atoms: S_7  and  C_10
REMARK                            x       y       z     vdW  Elec       q    Type
REMARK                         _______ _______ _______ _____ _____    ______ ____
ROOT
ATOM      1  S   UNL     1       3.901   3.312  18.644  0.00  0.00    +0.000 S 
ATOM      2  O   UNL     1       3.835   3.105  20.077  0.00  0.00    +0.000 OA
ATOM      3  O   UNL     1       3.905   2.165  17.754  0.00  0.00    +0.000 OA
ENDROOT
BRANCH   1   4
ATOM      4  C   UNL     1       5.366   4.252  18.307  0.00  0.00    +0.000 A 
ATOM      5  C   UNL     1       6.034   4.880  19.372  0.00  0.00    +0.000 A 
ATOM      6  C   UNL     1       7.148   5.670  19.120  0.00  0.00    +0.000 A 
ATOM      7  C   UNL     1       7.584   5.840  17.809  0.00  0.00    +0.000 A 
ATOM      8  C   UNL     1       6.908   5.214  16.746  0.00  0.00    +0.000 A 
ATOM      9  C   UNL     1       7.345   5.398  15.427  0.00  0.00    +0.000 A 
ATOM     10  C   UNL     1       6.671   4.790  14.378  0.00  0.00    +0.000 A 
ATOM     11  C   UNL     1       5.585   4.000  14.688  0.00  0.00    +0.000 A 
ATOM     12  N   UNL     1       5.145   3.782  15.948  0.00  0.00    +0.000 NA
ATOM     13  C   UNL     1       5.777   4.395  16.978  0.00  0.00    +0.000 A 
ENDBRANCH   1   4
BRANCH   1  14
ATOM     14  N   UNL     1       2.620   4.301  18.212  0.00  0.00    +0.000 N 
ATOM     15  H   UNL     1       2.029   3.968  17.452  0.00  0.00    +0.000 HD
BRANCH  14  20
ATOM     16  C   UNL     1       1.104   8.751  21.509  0.00  0.00    +0.000 C 
ATOM     17  C   UNL     1       1.522   7.591  20.656  0.00  0.00    +0.000 A 
ATOM     18  C   UNL     1       1.203   6.278  21.006  0.00  0.00    +0.000 A 
ATOM     19  C   UNL     1       1.578   5.212  20.180  0.00  0.00    +0.000 A 
ATOM     20  C   UNL     1       2.276   5.442  18.986  0.00  0.00    +0.000 A 
ATOM     21  C   UNL     1       2.629   6.751  18.651  0.00  0.00    +0.000 A 
ATOM     22 CL   UNL     1       3.576   7.124  17.259  0.00  0.00    +0.000 Cl
ATOM     23  C   UNL     1       2.242   7.818  19.475  0.00  0.00    +0.000 A 
ENDBRANCH  14  20
ENDBRANCH   1  14
TORSDOF 3
ENDMDL
MODEL 8
REMARK VINA RESULT:      -6.9      2.346      5.344
REMARK  Name = 
REMARK  4 active torsions:
REMARK  status: ('A' for Active; 'I' for Inactive)
REMARK    1  A    between atoms: C_1  and  C_2
REMARK    2  A    between atoms: C_5  and  N_6
REMARK    3  A    between atoms: N_6  and  S_7
REMARK    4  A    between atoms: S_7  and  C_10
REMARK                            x       y       z     vdW  Elec       q    Type
REMARK                         _______ _______ _______ _____ _____    ______ ____
ROOT
ATOM      1  S   UNL     1       3.098   2.931  17.596  0.00  0.00    +0.000 S 
ATOM      2  O   UNL     1       2.600   3.672  16.454  0.00  0.00    +0.000 OA
ATOM      3  O   UNL     1       2.660   1.563  17.809  0.00  0.00    +0.000 OA
ENDROOT
BRANCH   1   4
ATOM      4  C   UNL     1       2.687   3.855  19.052  0.00  0.00    +0.000 A 
ATOM      5  C   UNL     1       2.431   3.164  20.249  0.00  0.00    +0.000 A 
ATOM      6  C   UNL     1       2.048   3.866  21.384  0.00  0.00    +0.000 A 
ATOM      7  C   UNL     1       1.911   5.250  21.320  0.00  0.00    +0.000 A 
ATOM      8  C   UNL     1       2.162   5.935  20.117  0.00  0.00    +0.000 A 
ATOM      9  C   UNL     1       2.012   7.328  20.056  0.00  0.00    +0.000 A 
ATOM     10  C   UNL     1       2.249   8.002  18.867  0.00  0.00    +0.000 A 
ATOM     11  C   UNL     1       2.647   7.257  17.777  0.00  0.00    +0.000 A 
ATOM     12  N   UNL     1       2.822   5.917  17.803  0.00  0.00    +0.000 NA
ATOM     13  C   UNL     1       2.565   5.244  18.949  0.00  0.00    +0.000 A 
ENDBRANCH   1   4
BRANCH   1  14
ATOM     14  N   UNL     1       4.771   2.934  17.516  0.00  0.00    +0.000 N 
ATOM     15  H   UNL     1       5.218   2.032  17.359  0.00  0.00    +0.000 HD
BRANCH  14  20
ATOM     16  C   UNL     1       7.753   7.840  17.653  0.00  0.00    +0.000 C 
ATOM     17  C   UNL     1       6.993   6.548  17.609  0.00  0.00    +0.000 A 
ATOM     18  C   UNL     1       6.712   5.829  18.772  0.00  0.00    +0.000 A 
ATOM     19  C   UNL     1       5.976   4.640  18.711  0.00  0.00    +0.000 A 
ATOM     20  C   UNL     1       5.506   4.151  17.484  0.00  0.00    +0.000 A 
ATOM     21  C   UNL     1       5.817   4.847  16.315  0.00  0.00    +0.000 A 
ATOM     22 CL   UNL     1       5.372   4.271  14.751  0.00  0.00    +0.000 Cl
ATOM     23  C   UNL     1       6.544   6.044  16.380  0.00  0.00    +0.000 A 
ENDBRANCH  14  20
ENDBRANCH   1  14
TORSDOF 3
ENDMDL
MODEL 9
REMARK VINA RESULT:      -6.8      2.629      6.192
REMARK  Name = 
REMARK  4 active torsions:
REMARK  status: ('A' for Active; 'I' for Inactive)
REMARK    1  A    between atoms: C_1  and  C_2
REMARK    2  A    between atoms: C_5  and  N_6
REMARK    3  A    between atoms: N_6  and  S_7
REMARK    4  A    between atoms: S_7  and  C_10
REMARK                            x       y       z     vdW  Elec       q    Type
REMARK                         _______ _______ _______ _____ _____    ______ ____
ROOT
ATOM      1  S   UNL     1       3.685   2.924  17.618  0.00  0.00    +0.000 S 
ATOM      2  O   UNL     1       2.955   3.449  16.482  0.00  0.00    +0.000 OA
ATOM      3  O   UNL     1       3.940   1.497  17.709  0.00  0.00    +0.000 OA
ENDROOT
BRANCH   1   4
ATOM      4  C   UNL     1       2.811   3.403  19.083  0.00  0.00    +0.000 A 
ATOM      5  C   UNL     1       2.297   2.404  19.929  0.00  0.00    +0.000 A 
ATOM      6  C   UNL     1       1.558   2.759  21.049  0.00  0.00    +0.000 A 
ATOM      7  C   UNL     1       1.323   4.105  21.315  0.00  0.00    +0.000 A 
ATOM      8  C   UNL     1       1.833   5.101  20.462  0.00  0.00    +0.000 A 
ATOM      9  C   UNL     1       1.583   6.454  20.730  0.00  0.00    +0.000 A 
ATOM     10  C   UNL     1       2.077   7.434  19.881  0.00  0.00    +0.000 A 
ATOM     11  C   UNL     1       2.823   7.025  18.796  0.00  0.00    +0.000 A 
ATOM     12  N   UNL     1       3.101   5.732  18.517  0.00  0.00    +0.000 NA
ATOM     13  C   UNL     1       2.600   4.765  19.321  0.00  0.00    +0.000 A 
ENDBRANCH   1   4
BRANCH   1  14
ATOM     14  N   UNL     1       5.158   3.720  17.689  0.00  0.00    +0.000 N 
ATOM     15  H   UNL     1       5.593   3.785  18.608  0.00  0.00    +0.000 HD
BRANCH  14  20
ATOM     16  C   UNL     1       7.747   5.166  12.772  0.00  0.00    +0.000 C 
ATOM     17  C   UNL     1       7.061   4.810  14.057  0.00  0.00    +0.000 A 
ATOM     18  C   UNL     1       5.933   3.988  14.077  0.00  0.00    +0.000 A 
ATOM     19  C   UNL     1       5.326   3.644  15.291  0.00  0.00    +0.000 A 
ATOM     20  C   UNL     1       5.840   4.115  16.506  0.00  0.00    +0.000 A 
ATOM     21  C   UNL     1       6.946   4.968  16.488  0.00  0.00    +0.000 A 
ATOM     22 CL   UNL     1       7.586   5.679  17.923  0.00  0.00    +0.000 Cl
ATOM     23  C   UNL     1       7.559   5.301  15.272  0.00  0.00    +0.000 A 
ENDBRANCH  14  20
ENDBRANCH   1  14
TORSDOF 3
ENDMDL
