MODEL 1
REMARK VINA RESULT:      -8.8      0.000      0.000
REMARK  Name = 
REMARK  11 active torsions:
REMARK  status: ('A' for Active; 'I' for Inactive)
REMARK    1  A    between atoms: C_1  and  O_2
REMARK    2  A    between atoms: O_2  and  C_3
REMARK    3  A    between atoms: C_8  and  N_9
REMARK    4  A    between atoms: N_12  and  C_13
REMARK    5  A    between atoms: C_17  and  C_18
REMARK    6  A    between atoms: C_18  and  N_19
REMARK    7  A    between atoms: N_19  and  C_20
REMARK    8  A    between atoms: C_26  and  O_27
REMARK    9  A    between atoms: O_27  and  C_28
REMARK   10  A    between atoms: C_29  and  O_30
REMARK   11  A    between atoms: O_30  and  C_31
REMARK                            x       y       z     vdW  Elec       q    Type
REMARK                         _______ _______ _______ _____ _____    ______ ____
ROOT
ATOM      1  C   UNL     1       1.630   7.743  20.205  0.00  0.00    +0.000 A 
ATOM      2  C   UNL     1       2.134   8.295  19.027  0.00  0.00    +0.000 A 
ATOM      3  C   UNL     1       2.513   7.471  17.969  0.00  0.00    +0.000 A 
ATOM      4  C   UNL     1       2.399   6.078  18.074  0.00  0.00    +0.000 A 
ATOM      5  C   UNL     1       1.930   5.455  19.261  0.00  0.00    +0.000 A 
ATOM      6  C   UNL     1       1.542   6.322  20.309  0.00  0.00    +0.000 A 
ENDROOT
BRANCH   1  10
ATOM      7  N   UNL     1       0.277  10.407  22.349  0.00  0.00    +0.000 N 
ATOM      8  C   UNL     1       0.310   9.643  21.186  0.00  0.00    +0.000 C 
ATOM      9  O   UNL     1      -0.372   9.905  20.201  0.00  0.00    +0.000 OA
ATOM     10  N   UNL     1       1.198   8.578  21.274  0.00  0.00    +0.000 N 
ATOM     11  H   UNL     1       1.176  10.562  22.801  0.00  0.00    +0.000 HD
ATOM     12  H   UNL     1       1.356   8.227  22.212  0.00  0.00    +0.000 HD
BRANCH   7  18
ATOM     13  C   UNL     1      -0.412  12.765  22.228  0.00  0.00    +0.000 A 
ATOM     14  C   UNL     1      -1.359  13.768  22.499  0.00  0.00    +0.000 A 
ATOM     15  C   UNL     1      -2.580  13.452  23.093  0.00  0.00    +0.000 A 
ATOM     16  C   UNL     1      -2.859  12.135  23.440  0.00  0.00    +0.000 A 
ATOM     17  C   UNL     1      -1.915  11.133  23.193  0.00  0.00    +0.000 A 
ATOM     18  C   UNL     1      -0.685  11.429  22.585  0.00  0.00    +0.000 A 
BRANCH  13  20
ATOM     19  C   UNL     1       0.657  13.392  20.217  0.00  0.00    +0.000 C 
ATOM     20  O   UNL     1       0.783  13.020  21.592  0.00  0.00    +0.000 OA
ENDBRANCH  13  20
ENDBRANCH   7  18
ENDBRANCH   1  10
BRANCH   5  21
ATOM     21  C   UNL     1       1.623   3.932  19.253  0.00  0.00    +0.000 C 
BRANCH  21  22
ATOM     22  N   UNL     1       2.003   3.067  18.034  0.00  0.00    +0.000 N 
ATOM     23  H   UNL     1       1.569   2.172  18.274  0.00  0.00    +0.000 HD
BRANCH  22  24
ATOM     24  C   UNL     1       3.437   2.721  18.098  0.00  0.00    +0.000 A 
ATOM     25  N   UNL     1       3.732   2.004  19.194  0.00  0.00    +0.000 NA
ATOM     26  C   UNL     1       4.657   2.542  19.979  0.00  0.00    +0.000 A 
ATOM     27  N   UNL     1       5.294   3.687  19.745  0.00  0.00    +0.000 NA
ATOM     28  C   UNL     1       5.270   4.109  18.495  0.00  0.00    +0.000 A 
ATOM     29  C   UNL     1       6.188   5.099  18.195  0.00  0.00    +0.000 A 
ATOM     30  C   UNL     1       6.698   5.345  16.915  0.00  0.00    +0.000 A 
ATOM     31  C   UNL     1       6.227   4.546  15.874  0.00  0.00    +0.000 A 
ATOM     32  C   UNL     1       5.073   3.719  16.148  0.00  0.00    +0.000 A 
ATOM     33  C   UNL     1       4.479   3.551  17.494  0.00  0.00    +0.000 A 
BRANCH  30  34
ATOM     34  O   UNL     1       7.675   6.281  16.690  0.00  0.00    +0.000 OA
ATOM     35  C   UNL     1       7.629   7.488  17.452  0.00  0.00    +0.000 C 
ENDBRANCH  30  34
BRANCH  31  36
ATOM     36  O   UNL     1       6.807   4.414  14.627  0.00  0.00    +0.000 OA
ATOM     37  C   UNL     1       6.058   3.940  13.490  0.00  0.00    +0.000 C 
ENDBRANCH  31  36
ENDBRANCH  22  24
ENDBRANCH  21  22
ENDBRANCH   5  21
TORSDOF 8
ENDMDL
MODEL 2
REMARK VINA RESULT:      -8.2      6.859     11.459
REMARK  Name = 
REMARK  11 active torsions:
REMARK  status: ('A' for Active; 'I' for Inactive)
REMARK    1  A    between atoms: C_1  and  O_2
REMARK    2  A    between atoms: O_2  and  C_3
REMARK    3  A    between atoms: C_8  and  N_9
REMARK    4  A    between atoms: N_12  and  C_13
REMARK    5  A    between atoms: C_17  and  C_18
REMARK    6  A    between atoms: C_18  and  N_19
REMARK    7  A    between atoms: N_19  and  C_20
REMARK    8  A    between atoms: C_26  and  O_27
REMARK    9  A    between atoms: O_27  and  C_28
REMARK   10  A    between atoms: C_29  and  O_30
REMARK   11  A    between atoms: O_30  and  C_31
REMARK                            x       y       z     vdW  Elec       q    Type
REMARK                         _______ _______ _______ _____ _____    ______ ____
ROOT
ATOM      1  C   UNL     1       9.092  10.403  18.453  0.00  0.00    +0.000 A 
ATOM      2  C   UNL     1       9.210  10.406  19.844  0.00  0.00    +0.000 A 
ATOM      3  C   UNL     1      10.226  11.133  20.462  0.00  0.00    +0.000 A 
ATOM      4  C   UNL     1      11.145  11.866  19.698  0.00  0.00    +0.000 A 
ATOM      5  C   UNL     1      11.100  11.871  18.278  0.00  0.00    +0.000 A 
ATOM      6  C   UNL     1      10.047  11.134  17.685  0.00  0.00    +0.000 A 
ENDROOT
BRANCH   1  10
ATOM      7  N   UNL     1       6.838   7.927  16.932  0.00  0.00    +0.000 N 
ATOM      8  C   UNL     1       7.807   8.330  17.846  0.00  0.00    +0.000 C 
ATOM      9  O   UNL     1       8.395   7.543  18.580  0.00  0.00    +0.000 OA
ATOM     10  N   UNL     1       8.030   9.701  17.815  0.00  0.00    +0.000 N 
ATOM     11  H   UNL     1       6.861   8.394  16.028  0.00  0.00    +0.000 HD
ATOM     12  H   UNL     1       7.238  10.258  17.516  0.00  0.00    +0.000 HD
BRANCH   7  18
ATOM     13  C   UNL     1       5.027   6.352  17.473  0.00  0.00    +0.000 A 
ATOM     14  C   UNL     1       4.516   5.043  17.466  0.00  0.00    +0.000 A 
ATOM     15  C   UNL     1       5.232   4.002  16.877  0.00  0.00    +0.000 A 
ATOM     16  C   UNL     1       6.474   4.254  16.307  0.00  0.00    +0.000 A 
ATOM     17  C   UNL     1       7.002   5.550  16.326  0.00  0.00    +0.000 A 
ATOM     18  C   UNL     1       6.290   6.613  16.903  0.00  0.00    +0.000 A 
BRANCH  13  20
ATOM     19  C   UNL     1       2.909   7.299  17.916  0.00  0.00    +0.000 C 
ATOM     20  O   UNL     1       4.331   7.422  17.991  0.00  0.00    +0.000 OA
ENDBRANCH  13  20
ENDBRANCH   7  18
ENDBRANCH   1  10
BRANCH   5  21
ATOM     21  C   UNL     1      12.000  12.861  17.490  0.00  0.00    +0.000 C 
BRANCH  21  22
ATOM     22  N   UNL     1      11.387  13.796  16.428  0.00  0.00    +0.000 N 
ATOM     23  H   UNL     1      12.224  14.186  15.989  0.00  0.00    +0.000 HD
BRANCH  22  24
ATOM     24  C   UNL     1      10.820  14.990  17.085  0.00  0.00    +0.000 A 
ATOM     25  N   UNL     1      11.533  16.096  16.816  0.00  0.00    +0.000 NA
ATOM     26  C   UNL     1      12.002  16.729  17.884  0.00  0.00    +0.000 A 
ATOM     27  N   UNL     1      11.803  16.360  19.147  0.00  0.00    +0.000 NA
ATOM     28  C   UNL     1      10.783  15.548  19.350  0.00  0.00    +0.000 A 
ATOM     29  C   UNL     1      10.382  15.431  20.669  0.00  0.00    +0.000 A 
ATOM     30  C   UNL     1       9.093  15.069  21.076  0.00  0.00    +0.000 A 
ATOM     31  C   UNL     1       8.162  14.787  20.078  0.00  0.00    +0.000 A 
ATOM     32  C   UNL     1       8.666  14.634  18.730  0.00  0.00    +0.000 A 
ATOM     33  C   UNL     1      10.063  14.923  18.335  0.00  0.00    +0.000 A 
BRANCH  30  34
ATOM     34  O   UNL     1       8.724  15.057  22.397  0.00  0.00    +0.000 OA
ATOM     35  C   UNL     1       8.641  13.791  23.053  0.00  0.00    +0.000 C 
ENDBRANCH  30  34
BRANCH  31  36
ATOM     36  O   UNL     1       6.792  14.714  20.243  0.00  0.00    +0.000 OA
ATOM     37  C   UNL     1       5.881  15.162  19.219  0.00  0.00    +0.000 C 
ENDBRANCH  31  36
ENDBRANCH  22  24
ENDBRANCH  21  22
ENDBRANCH   5  21
TORSDOF 8
ENDMDL
MODEL 3
REMARK VINA RESULT:      -8.1      2.395      2.846
REMARK  Name = 
REMARK  11 active torsions:
REMARK  status: ('A' for Active; 'I' for Inactive)
REMARK    1  A    between atoms: C_1  and  O_2
REMARK    2  A    between atoms: O_2  and  C_3
REMARK    3  A    between atoms: C_8  and  N_9
REMARK    4  A    between atoms: N_12  and  C_13
REMARK    5  A    between atoms: C_17  and  C_18
REMARK    6  A    between atoms: C_18  and  N_19
REMARK    7  A    between atoms: N_19  and  C_20
REMARK    8  A    between atoms: C_26  and  O_27
REMARK    9  A    between atoms: O_27  and  C_28
REMARK   10  A    between atoms: C_29  and  O_30
REMARK   11  A    between atoms: O_30  and  C_31
REMARK                            x       y       z     vdW  Elec       q    Type
REMARK                         _______ _______ _______ _____ _____    ______ ____
ROOT
ATOM      1  C   UNL     1       2.066   7.882  18.696  0.00  0.00    +0.000 A 
ATOM      2  C   UNL     1       2.103   7.614  20.064  0.00  0.00    +0.000 A 
ATOM      3  C   UNL     1       2.027   6.301  20.527  0.00  0.00    +0.000 A 
ATOM      4  C   UNL     1       1.908   5.234  19.626  0.00  0.00    +0.000 A 
ATOM      5  C   UNL     1       1.827   5.446  18.224  0.00  0.00    +0.000 A 
ATOM      6  C   UNL     1       1.921   6.789  17.790  0.00  0.00    +0.000 A 
ENDROOT
BRANCH   1  10
ATOM      7  N   UNL     1       1.702  11.455  17.906  0.00  0.00    +0.000 N 
ATOM      8  C   UNL     1       1.581  10.348  18.740  0.00  0.00    +0.000 C 
ATOM      9  O   UNL     1       0.990  10.387  19.813  0.00  0.00    +0.000 OA
ATOM     10  N   UNL     1       2.189   9.216  18.212  0.00  0.00    +0.000 N 
ATOM     11  H   UNL     1       1.602  11.272  16.910  0.00  0.00    +0.000 HD
ATOM     12  H   UNL     1       2.966   9.398  17.587  0.00  0.00    +0.000 HD
BRANCH   7  18
ATOM     13  C   UNL     1       2.329  13.755  18.513  0.00  0.00    +0.000 A 
ATOM     14  C   UNL     1       1.957  15.043  18.936  0.00  0.00    +0.000 A 
ATOM     15  C   UNL     1       0.614  15.370  19.123  0.00  0.00    +0.000 A 
ATOM     16  C   UNL     1      -0.367  14.410  18.908  0.00  0.00    +0.000 A 
ATOM     17  C   UNL     1      -0.006  13.119  18.507  0.00  0.00    +0.000 A 
ATOM     18  C   UNL     1       1.339  12.774  18.301  0.00  0.00    +0.000 A 
BRANCH  13  20
ATOM     19  C   UNL     1       4.540  14.506  18.151  0.00  0.00    +0.000 C 
ATOM     20  O   UNL     1       3.637  13.402  18.260  0.00  0.00    +0.000 OA
ENDBRANCH  13  20
ENDBRANCH   7  18
ENDBRANCH   1  10
BRANCH   5  21
ATOM     21  C   UNL     1       1.909   4.229  17.262  0.00  0.00    +0.000 C 
BRANCH  21  22
ATOM     22  N   UNL     1       2.195   2.818  17.814  0.00  0.00    +0.000 N 
ATOM     23  H   UNL     1       1.910   2.917  18.791  0.00  0.00    +0.000 HD
BRANCH  22  24
ATOM     24  C   UNL     1       3.653   2.625  17.955  0.00  0.00    +0.000 A 
ATOM     25  N   UNL     1       3.965   1.972  19.086  0.00  0.00    +0.000 NA
ATOM     26  C   UNL     1       4.791   2.624  19.895  0.00  0.00    +0.000 A 
ATOM     27  N   UNL     1       5.317   3.823  19.656  0.00  0.00    +0.000 NA
ATOM     28  C   UNL     1       5.311   4.206  18.393  0.00  0.00    +0.000 A 
ATOM     29  C   UNL     1       6.136   5.279  18.104  0.00  0.00    +0.000 A 
ATOM     30  C   UNL     1       6.681   5.543  16.843  0.00  0.00    +0.000 A 
ATOM     31  C   UNL     1       6.347   4.671  15.807  0.00  0.00    +0.000 A 
ATOM     32  C   UNL     1       5.272   3.736  16.052  0.00  0.00    +0.000 A 
ATOM     33  C   UNL     1       4.633   3.543  17.374  0.00  0.00    +0.000 A 
BRANCH  30  34
ATOM     34  O   UNL     1       7.566   6.569  16.634  0.00  0.00    +0.000 OA
ATOM     35  C   UNL     1       7.515   7.684  17.524  0.00  0.00    +0.000 C 
ENDBRANCH  30  34
BRANCH  31  36
ATOM     36  O   UNL     1       6.999   4.567  14.593  0.00  0.00    +0.000 OA
ATOM     37  C   UNL     1       6.391   3.912  13.461  0.00  0.00    +0.000 C 
ENDBRANCH  31  36
ENDBRANCH  22  24
ENDBRANCH  21  22
ENDBRANCH   5  21
TORSDOF 8
ENDMDL
MODEL 4
REMARK VINA RESULT:      -8.0      2.350      2.794
REMARK  Name = 
REMARK  11 active torsions:
REMARK  status: ('A' for Active; 'I' for Inactive)
REMARK    1  A    between atoms: C_1  and  O_2
REMARK    2  A    between atoms: O_2  and  C_3
REMARK    3  A    between atoms: C_8  and  N_9
REMARK    4  A    between atoms: N_12  and  C_13
REMARK    5  A    between atoms: C_17  and  C_18
REMARK    6  A    between atoms: C_18  and  N_19
REMARK    7  A    between atoms: N_19  and  C_20
REMARK    8  A    between atoms: C_26  and  O_27
REMARK    9  A    between atoms: O_27  and  C_28
REMARK   10  A    between atoms: C_29  and  O_30
REMARK   11  A    between atoms: O_30  and  C_31
REMARK                            x       y       z     vdW  Elec       q    Type
REMARK                         _______ _______ _______ _____ _____    ______ ____
ROOT
ATOM      1  C   UNL     1       1.911   6.934  19.083  0.00  0.00    +0.000 A 
ATOM      2  C   UNL     1       1.944   6.610  20.440  0.00  0.00    +0.000 A 
ATOM      3  C   UNL     1       1.806   5.285  20.851  0.00  0.00    +0.000 A 
ATOM      4  C   UNL     1       1.626   4.262  19.909  0.00  0.00    +0.000 A 
ATOM      5  C   UNL     1       1.545   4.533  18.517  0.00  0.00    +0.000 A 
ATOM      6  C   UNL     1       1.704   5.887  18.136  0.00  0.00    +0.000 A 
ENDROOT
BRANCH   1  10
ATOM      7  N   UNL     1       1.644  10.520  18.313  0.00  0.00    +0.000 N 
ATOM      8  C   UNL     1       1.400   9.395  19.094  0.00  0.00    +0.000 C 
ATOM      9  O   UNL     1       0.641   9.408  20.058  0.00  0.00    +0.000 OA
ATOM     10  N   UNL     1       2.097   8.278  18.652  0.00  0.00    +0.000 N 
ATOM     11  H   UNL     1       1.709  10.356  17.310  0.00  0.00    +0.000 HD
ATOM     12  H   UNL     1       2.964   8.478  18.165  0.00  0.00    +0.000 HD
BRANCH   7  18
ATOM     13  C   UNL     1      -0.150  12.188  18.542  0.00  0.00    +0.000 A 
ATOM     14  C   UNL     1      -0.559  13.493  18.865  0.00  0.00    +0.000 A 
ATOM     15  C   UNL     1       0.359  14.430  19.338  0.00  0.00    +0.000 A 
ATOM     16  C   UNL     1       1.697  14.079  19.472  0.00  0.00    +0.000 A 
ATOM     17  C   UNL     1       2.118  12.789  19.133  0.00  0.00    +0.000 A 
ATOM     18  C   UNL     1       1.208  11.827  18.669  0.00  0.00    +0.000 A 
BRANCH  13  20
ATOM     19  C   UNL     1      -2.220  11.707  17.510  0.00  0.00    +0.000 C 
ATOM     20  O   UNL     1      -1.030  11.211  18.128  0.00  0.00    +0.000 OA
ENDBRANCH  13  20
ENDBRANCH   7  18
ENDBRANCH   1  10
BRANCH   5  21
ATOM     21  C   UNL     1       1.560   3.353  17.508  0.00  0.00    +0.000 C 
BRANCH  21  22
ATOM     22  N   UNL     1       2.233   2.017  17.880  0.00  0.00    +0.000 N 
ATOM     23  H   UNL     1       1.965   1.918  18.862  0.00  0.00    +0.000 HD
BRANCH  22  24
ATOM     24  C   UNL     1       3.693   2.212  17.996  0.00  0.00    +0.000 A 
ATOM     25  N   UNL     1       4.213   1.507  19.014  0.00  0.00    +0.000 NA
ATOM     26  C   UNL     1       4.861   2.231  19.918  0.00  0.00    +0.000 A 
ATOM     27  N   UNL     1       5.033   3.549  19.870  0.00  0.00    +0.000 NA
ATOM     28  C   UNL     1       4.876   4.102  18.682  0.00  0.00    +0.000 A 
ATOM     29  C   UNL     1       5.367   5.390  18.567  0.00  0.00    +0.000 A 
ATOM     30  C   UNL     1       5.772   5.980  17.364  0.00  0.00    +0.000 A 
ATOM     31  C   UNL     1       5.648   5.216  16.204  0.00  0.00    +0.000 A 
ATOM     32  C   UNL     1       4.876   3.997  16.297  0.00  0.00    +0.000 A 
ATOM     33  C   UNL     1       4.364   3.440  17.569  0.00  0.00    +0.000 A 
BRANCH  30  34
ATOM     34  O   UNL     1       6.337   7.228  17.321  0.00  0.00    +0.000 OA
ATOM     35  C   UNL     1       7.718   7.346  17.669  0.00  0.00    +0.000 C 
ENDBRANCH  30  34
BRANCH  31  36
ATOM     36  O   UNL     1       6.257   5.479  14.992  0.00  0.00    +0.000 OA
ATOM     37  C   UNL     1       6.601   4.421  14.073  0.00  0.00    +0.000 C 
ENDBRANCH  31  36
ENDBRANCH  22  24
ENDBRANCH  21  22
ENDBRANCH   5  21
TORSDOF 8
ENDMDL
MODEL 5
REMARK VINA RESULT:      -8.0      4.204     10.788
REMARK  Name = 
REMARK  11 active torsions:
REMARK  status: ('A' for Active; 'I' for Inactive)
REMARK    1  A    between atoms: C_1  and  O_2
REMARK    2  A    between atoms: O_2  and  C_3
REMARK    3  A    between atoms: C_8  and  N_9
REMARK    4  A    between atoms: N_12  and  C_13
REMARK    5  A    between atoms: C_17  and  C_18
REMARK    6  A    between atoms: C_18  and  N_19
REMARK    7  A    between atoms: N_19  and  C_20
REMARK    8  A    between atoms: C_26  and  O_27
REMARK    9  A    between atoms: O_27  and  C_28
REMARK   10  A    between atoms: C_29  and  O_30
REMARK   11  A    between atoms: O_30  and  C_31
REMARK                            x       y       z     vdW  Elec       q    Type
REMARK                         _______ _______ _______ _____ _____    ______ ____
ROOT
ATOM      1  C   UNL     1       0.995   9.000  20.951  0.00  0.00    +0.000 A 
ATOM      2  C   UNL     1       0.319   9.036  22.171  0.00  0.00    +0.000 A 
ATOM      3  C   UNL     1      -0.460  10.141  22.513  0.00  0.00    +0.000 A 
ATOM      4  C   UNL     1      -0.570  11.232  21.639  0.00  0.00    +0.000 A 
ATOM      5  C   UNL     1       0.124  11.271  20.401  0.00  0.00    +0.000 A 
ATOM      6  C   UNL     1       0.894  10.127  20.081  0.00  0.00    +0.000 A 
ENDROOT
BRANCH   1  10
ATOM      7  N   UNL     1       2.776   6.298  19.205  0.00  0.00    +0.000 N 
ATOM      8  C   UNL     1       2.299   7.600  19.322  0.00  0.00    +0.000 C 
ATOM      9  O   UNL     1       2.354   8.411  18.404  0.00  0.00    +0.000 OA
ATOM     10  N   UNL     1       1.756   7.857  20.574  0.00  0.00    +0.000 N 
ATOM     11  H   UNL     1       2.205   5.577  19.642  0.00  0.00    +0.000 HD
ATOM     12  H   UNL     1       2.139   7.302  21.331  0.00  0.00    +0.000 HD
BRANCH   7  18
ATOM     13  C   UNL     1       3.516   4.491  17.709  0.00  0.00    +0.000 A 
ATOM     14  C   UNL     1       4.311   4.054  16.636  0.00  0.00    +0.000 A 
ATOM     15  C   UNL     1       5.115   4.951  15.933  0.00  0.00    +0.000 A 
ATOM     16  C   UNL     1       5.146   6.289  16.308  0.00  0.00    +0.000 A 
ATOM     17  C   UNL     1       4.374   6.731  17.388  0.00  0.00    +0.000 A 
ATOM     18  C   UNL     1       3.549   5.846  18.099  0.00  0.00    +0.000 A 
BRANCH  13  20
ATOM     19  C   UNL     1       2.548   2.340  17.843  0.00  0.00    +0.000 C 
ATOM     20  O   UNL     1       2.664   3.654  18.395  0.00  0.00    +0.000 OA
ENDBRANCH  13  20
ENDBRANCH   7  18
ENDBRANCH   1  10
BRANCH   5  21
ATOM     21  C   UNL     1      -0.197  12.398  19.382  0.00  0.00    +0.000 C 
BRANCH  21  22
ATOM     22  N   UNL     1      -0.723  12.050  17.975  0.00  0.00    +0.000 N 
ATOM     23  H   UNL     1      -1.148  12.935  17.689  0.00  0.00    +0.000 HD
BRANCH  22  24
ATOM     24  C   UNL     1      -1.912  11.181  18.091  0.00  0.00    +0.000 A 
ATOM     25  N   UNL     1      -1.729   9.998  17.481  0.00  0.00    +0.000 NA
ATOM     26  C   UNL     1      -2.618   9.717  16.536  0.00  0.00    +0.000 A 
ATOM     27  N   UNL     1      -3.641  10.492  16.185  0.00  0.00    +0.000 NA
ATOM     28  C   UNL     1      -4.000  11.399  17.073  0.00  0.00    +0.000 A 
ATOM     29  C   UNL     1      -5.241  11.970  16.857  0.00  0.00    +0.000 A 
ATOM     30  C   UNL     1      -6.037  12.540  17.856  0.00  0.00    +0.000 A 
ATOM     31  C   UNL     1      -5.526  12.548  19.153  0.00  0.00    +0.000 A 
ATOM     32  C   UNL     1      -4.128  12.214  19.314  0.00  0.00    +0.000 A 
ATOM     33  C   UNL     1      -3.270  11.710  18.218  0.00  0.00    +0.000 A 
BRANCH  30  34
ATOM     34  O   UNL     1      -7.300  13.010  17.601  0.00  0.00    +0.000 OA
ATOM     35  C   UNL     1      -7.424  14.338  17.090  0.00  0.00    +0.000 C 
ENDBRANCH  30  34
BRANCH  31  36
ATOM     36  O   UNL     1      -6.250  12.773  20.309  0.00  0.00    +0.000 OA
ATOM     37  C   UNL     1      -5.675  12.564  21.615  0.00  0.00    +0.000 C 
ENDBRANCH  31  36
ENDBRANCH  22  24
ENDBRANCH  21  22
ENDBRANCH   5  21
TORSDOF 8
ENDMDL
MODEL 6
REMARK VINA RESULT:      -7.9      6.879     12.010
REMARK  Name = 
REMARK  11 active torsions:
REMARK  status: ('A' for Active; 'I' for Inactive)
REMARK    1  A    between atoms: C_1  and  O_2
REMARK    2  A    between atoms: O_2  and  C_3
REMARK    3  A    between atoms: C_8  and  N_9
REMARK    4  A    between atoms: N_12  and  C_13
REMARK    5  A    between atoms: C_17  and  C_18
REMARK    6  A    between atoms: C_18  and  N_19
REMARK    7  A    between atoms: N_19  and  C_20
REMARK    8  A    between atoms: C_26  and  O_27
REMARK    9  A    between atoms: O_27  and  C_28
REMARK   10  A    between atoms: C_29  and  O_30
REMARK   11  A    between atoms: O_30  and  C_31
REMARK                            x       y       z     vdW  Elec       q    Type
REMARK                         _______ _______ _______ _____ _____    ______ ____
ROOT
ATOM      1  C   UNL     1       9.059  10.233  18.400  0.00  0.00    +0.000 A 
ATOM      2  C   UNL     1       9.158  10.249  19.792  0.00  0.00    +0.000 A 
ATOM      3  C   UNL     1      10.150  11.000  20.419  0.00  0.00    +0.000 A 
ATOM      4  C   UNL     1      11.065  11.746  19.663  0.00  0.00    +0.000 A 
ATOM      5  C   UNL     1      11.040  11.741  18.243  0.00  0.00    +0.000 A 
ATOM      6  C   UNL     1      10.011  10.978  17.640  0.00  0.00    +0.000 A 
ENDROOT
BRANCH   1  10
ATOM      7  N   UNL     1       6.847   7.695  16.922  0.00  0.00    +0.000 N 
ATOM      8  C   UNL     1       7.774   8.143  17.859  0.00  0.00    +0.000 C 
ATOM      9  O   UNL     1       8.308   7.397  18.673  0.00  0.00    +0.000 OA
ATOM     10  N   UNL     1       8.022   9.505  17.752  0.00  0.00    +0.000 N 
ATOM     11  H   UNL     1       6.926   8.101  15.993  0.00  0.00    +0.000 HD
ATOM     12  H   UNL     1       7.256  10.053  17.376  0.00  0.00    +0.000 HD
BRANCH   7  18
ATOM     13  C   UNL     1       6.671   5.420  16.002  0.00  0.00    +0.000 A 
ATOM     14  C   UNL     1       6.077   4.147  16.020  0.00  0.00    +0.000 A 
ATOM     15  C   UNL     1       5.122   3.820  16.983  0.00  0.00    +0.000 A 
ATOM     16  C   UNL     1       4.737   4.769  17.923  0.00  0.00    +0.000 A 
ATOM     17  C   UNL     1       5.308   6.046  17.901  0.00  0.00    +0.000 A 
ATOM     18  C   UNL     1       6.280   6.389  16.949  0.00  0.00    +0.000 A 
BRANCH  13  20
ATOM     19  C   UNL     1       7.531   5.171  13.815  0.00  0.00    +0.000 C 
ATOM     20  O   UNL     1       7.660   5.769  15.108  0.00  0.00    +0.000 OA
ENDBRANCH  13  20
ENDBRANCH   7  18
ENDBRANCH   1  10
BRANCH   5  21
ATOM     21  C   UNL     1      11.931  12.743  17.460  0.00  0.00    +0.000 C 
BRANCH  21  22
ATOM     22  N   UNL     1      12.157  14.170  17.998  0.00  0.00    +0.000 N 
ATOM     23  H   UNL     1      12.136  14.014  19.009  0.00  0.00    +0.000 HD
BRANCH  22  24
ATOM     24  C   UNL     1      10.935  14.974  17.802  0.00  0.00    +0.000 A 
ATOM     25  N   UNL     1      11.049  15.815  16.761  0.00  0.00    +0.000 NA
ATOM     26  C   UNL     1      10.870  17.096  17.059  0.00  0.00    +0.000 A 
ATOM     27  N   UNL     1      10.580  17.573  18.266  0.00  0.00    +0.000 NA
ATOM     28  C   UNL     1      10.081  16.700  19.120  0.00  0.00    +0.000 A 
ATOM     29  C   UNL     1       9.484  17.252  20.239  0.00  0.00    +0.000 A 
ATOM     30  C   UNL     1       8.488  16.626  20.997  0.00  0.00    +0.000 A 
ATOM     31  C   UNL     1       8.091  15.349  20.602  0.00  0.00    +0.000 A 
ATOM     32  C   UNL     1       8.913  14.677  19.619  0.00  0.00    +0.000 A 
ATOM     33  C   UNL     1      10.034  15.325  18.900  0.00  0.00    +0.000 A 
BRANCH  30  34
ATOM     34  O   UNL     1       7.866  17.256  22.044  0.00  0.00    +0.000 OA
ATOM     35  C   UNL     1       6.837  18.198  21.737  0.00  0.00    +0.000 C 
ENDBRANCH  30  34
BRANCH  31  36
ATOM     36  O   UNL     1       6.943  14.695  21.006  0.00  0.00    +0.000 OA
ATOM     37  C   UNL     1       6.928  13.839  22.167  0.00  0.00    +0.000 C 
ENDBRANCH  31  36
ENDBRANCH  22  24
ENDBRANCH  21  22
ENDBRANCH   5  21
TORSDOF 8
ENDMDL
MODEL 7
REMARK VINA RESULT:      -7.9      1.791     10.087
REMARK  Name = 
REMARK  11 active torsions:
REMARK  status: ('A' for Active; 'I' for Inactive)
REMARK    1  A    between atoms: C_1  and  O_2
REMARK    2  A    between atoms: O_2  and  C_3
REMARK    3  A    between atoms: C_8  and  N_9
REMARK    4  A    between atoms: N_12  and  C_13
REMARK    5  A    between atoms: C_17  and  C_18
REMARK    6  A    between atoms: C_18  and  N_19
REMARK    7  A    between atoms: N_19  and  C_20
REMARK    8  A    between atoms: C_26  and  O_27
REMARK    9  A    between atoms: O_27  and  C_28
REMARK   10  A    between atoms: C_29  and  O_30
REMARK   11  A    between atoms: O_30  and  C_31
REMARK                            x       y       z     vdW  Elec       q    Type
REMARK                         _______ _______ _______ _____ _____    ______ ____
ROOT
ATOM      1  C   UNL     1       3.222   3.516  18.992  0.00  0.00    +0.000 A 
ATOM      2  C   UNL     1       2.253   2.534  19.200  0.00  0.00    +0.000 A 
ATOM      3  C   UNL     1       1.140   2.800  19.996  0.00  0.00    +0.000 A 
ATOM      4  C   UNL     1       0.982   4.054  20.602  0.00  0.00    +0.000 A 
ATOM      5  C   UNL     1       1.952   5.081  20.459  0.00  0.00    +0.000 A 
ATOM      6  C   UNL     1       3.061   4.780  19.634  0.00  0.00    +0.000 A 
ENDROOT
BRANCH   1  10
ATOM      7  N   UNL     1       5.648   3.281  16.238  0.00  0.00    +0.000 N 
ATOM      8  C   UNL     1       4.629   3.910  16.946  0.00  0.00    +0.000 C 
ATOM      9  O   UNL     1       4.056   4.913  16.535  0.00  0.00    +0.000 OA
ATOM     10  N   UNL     1       4.339   3.268  18.144  0.00  0.00    +0.000 N 
ATOM     11  H   UNL     1       5.633   2.264  16.250  0.00  0.00    +0.000 HD
ATOM     12  H   UNL     1       5.112   2.759  18.556  0.00  0.00    +0.000 HD
BRANCH   7  18
ATOM     13  C   UNL     1       7.238   4.856  15.216  0.00  0.00    +0.000 A 
ATOM     14  C   UNL     1       7.809   5.428  14.066  0.00  0.00    +0.000 A 
ATOM     15  C   UNL     1       7.440   4.991  12.794  0.00  0.00    +0.000 A 
ATOM     16  C   UNL     1       6.484   3.992  12.659  0.00  0.00    +0.000 A 
ATOM     17  C   UNL     1       5.894   3.429  13.796  0.00  0.00    +0.000 A 
ATOM     18  C   UNL     1       6.261   3.847  15.084  0.00  0.00    +0.000 A 
BRANCH  13  20
ATOM     19  C   UNL     1       7.204   6.528  16.884  0.00  0.00    +0.000 C 
ATOM     20  O   UNL     1       7.612   5.215  16.492  0.00  0.00    +0.000 OA
ENDBRANCH  13  20
ENDBRANCH   7  18
ENDBRANCH   1  10
BRANCH   5  21
ATOM     21  C   UNL     1       1.630   6.512  20.971  0.00  0.00    +0.000 C 
BRANCH  21  22
ATOM     22  N   UNL     1       2.275   7.742  20.302  0.00  0.00    +0.000 N 
ATOM     23  H   UNL     1       2.633   8.253  21.113  0.00  0.00    +0.000 HD
BRANCH  22  24
ATOM     24  C   UNL     1       1.221   8.658  19.824  0.00  0.00    +0.000 A 
ATOM     25  N   UNL     1       1.187   8.728  18.483  0.00  0.00    +0.000 NA
ATOM     26  C   UNL     1       1.343   9.948  17.985  0.00  0.00    +0.000 A 
ATOM     27  N   UNL     1       1.506  11.057  18.701  0.00  0.00    +0.000 NA
ATOM     28  C   UNL     1       1.118  10.985  19.960  0.00  0.00    +0.000 A 
ATOM     29  C   UNL     1       0.981  12.204  20.601  0.00  0.00    +0.000 A 
ATOM     30  C   UNL     1       0.145  12.433  21.699  0.00  0.00    +0.000 A 
ATOM     31  C   UNL     1      -0.579  11.347  22.189  0.00  0.00    +0.000 A 
ATOM     32  C   UNL     1      -0.214  10.036  21.700  0.00  0.00    +0.000 A 
ATOM     33  C   UNL     1       0.754   9.805  20.604  0.00  0.00    +0.000 A 
BRANCH  30  34
ATOM     34  O   UNL     1      -0.021  13.683  22.238  0.00  0.00    +0.000 OA
ATOM     35  C   UNL     1       0.842  14.725  21.780  0.00  0.00    +0.000 C 
ENDBRANCH  30  34
BRANCH  31  36
ATOM     36  O   UNL     1      -1.665  11.415  23.041  0.00  0.00    +0.000 OA
ATOM     37  C   UNL     1      -2.841  12.180  22.710  0.00  0.00    +0.000 C 
ENDBRANCH  31  36
ENDBRANCH  22  24
ENDBRANCH  21  22
ENDBRANCH   5  21
TORSDOF 8
ENDMDL
MODEL 8
REMARK VINA RESULT:      -7.7      1.669      2.481
REMARK  Name = 
REMARK  11 active torsions:
REMARK  status: ('A' for Active; 'I' for Inactive)
REMARK    1  A    between atoms: C_1  and  O_2
REMARK    2  A    between atoms: O_2  and  C_3
REMARK    3  A    between atoms: C_8  and  N_9
REMARK    4  A    between atoms: N_12  and  C_13
REMARK    5  A    between atoms: C_17  and  C_18
REMARK    6  A    between atoms: C_18  and  N_19
REMARK    7  A    between atoms: N_19  and  C_20
REMARK    8  A    between atoms: C_26  and  O_27
REMARK    9  A    between atoms: O_27  and  C_28
REMARK   10  A    between atoms: C_29  and  O_30
REMARK   11  A    between atoms: O_30  and  C_31
REMARK                            x       y       z     vdW  Elec       q    Type
REMARK                         _______ _______ _______ _____ _____    ______ ____
ROOT
ATOM      1  C   UNL     1       0.627   9.732  19.550  0.00  0.00    +0.000 A 
ATOM      2  C   UNL     1       1.214   9.935  18.301  0.00  0.00    +0.000 A 
ATOM      3  C   UNL     1       2.123   9.011  17.791  0.00  0.00    +0.000 A 
ATOM      4  C   UNL     1       2.466   7.868  18.526  0.00  0.00    +0.000 A 
ATOM      5  C   UNL     1       1.933   7.624  19.820  0.00  0.00    +0.000 A 
ATOM      6  C   UNL     1       1.002   8.577  20.300  0.00  0.00    +0.000 A 
ENDROOT
BRANCH   1  10
ATOM      7  N   UNL     1      -1.343  12.139  21.511  0.00  0.00    +0.000 N 
ATOM      8  C   UNL     1      -0.150  11.562  21.088  0.00  0.00    +0.000 C 
ATOM      9  O   UNL     1       0.935  11.838  21.588  0.00  0.00    +0.000 OA
ATOM     10  N   UNL     1      -0.337  10.647  20.059  0.00  0.00    +0.000 N 
ATOM     11  H   UNL     1      -2.144  11.513  21.561  0.00  0.00    +0.000 HD
ATOM     12  H   UNL     1      -1.147  10.819  19.474  0.00  0.00    +0.000 HD
BRANCH   7  18
ATOM     13  C   UNL     1      -2.365  13.275  23.439  0.00  0.00    +0.000 A 
ATOM     14  C   UNL     1      -2.432  14.386  24.298  0.00  0.00    +0.000 A 
ATOM     15  C   UNL     1      -1.535  15.445  24.161  0.00  0.00    +0.000 A 
ATOM     16  C   UNL     1      -0.578  15.414  23.154  0.00  0.00    +0.000 A 
ATOM     17  C   UNL     1      -0.517  14.323  22.281  0.00  0.00    +0.000 A 
ATOM     18  C   UNL     1      -1.401  13.241  22.411  0.00  0.00    +0.000 A 
BRANCH  13  20
ATOM     19  C   UNL     1      -4.193  12.309  24.583  0.00  0.00    +0.000 C 
ATOM     20  O   UNL     1      -3.191  12.179  23.572  0.00  0.00    +0.000 OA
ENDBRANCH  13  20
ENDBRANCH   7  18
ENDBRANCH   1  10
BRANCH   5  21
ATOM     21  C   UNL     1       2.176   6.249  20.499  0.00  0.00    +0.000 C 
BRANCH  21  22
ATOM     22  N   UNL     1       1.443   4.990  19.995  0.00  0.00    +0.000 N 
ATOM     23  H   UNL     1       1.294   4.476  20.866  0.00  0.00    +0.000 HD
BRANCH  22  24
ATOM     24  C   UNL     1       2.398   4.106  19.295  0.00  0.00    +0.000 A 
ATOM     25  N   UNL     1       2.458   2.888  19.858  0.00  0.00    +0.000 NA
ATOM     26  C   UNL     1       3.667   2.523  20.266  0.00  0.00    +0.000 A 
ATOM     27  N   UNL     1       4.774   3.250  20.140  0.00  0.00    +0.000 NA
ATOM     28  C   UNL     1       4.728   4.209  19.235  0.00  0.00    +0.000 A 
ATOM     29  C   UNL     1       5.955   4.737  18.878  0.00  0.00    +0.000 A 
ATOM     30  C   UNL     1       6.226   5.358  17.654  0.00  0.00    +0.000 A 
ATOM     31  C   UNL     1       5.174   5.467  16.745  0.00  0.00    +0.000 A 
ATOM     32  C   UNL     1       3.845   5.174  17.237  0.00  0.00    +0.000 A 
ATOM     33  C   UNL     1       3.568   4.614  18.579  0.00  0.00    +0.000 A 
BRANCH  30  34
ATOM     34  O   UNL     1       7.485   5.782  17.316  0.00  0.00    +0.000 OA
ATOM     35  C   UNL     1       7.864   7.107  17.692  0.00  0.00    +0.000 C 
ENDBRANCH  30  34
BRANCH  31  36
ATOM     36  O   UNL     1       5.291   5.755  15.399  0.00  0.00    +0.000 OA
ATOM     37  C   UNL     1       5.755   4.771  14.452  0.00  0.00    +0.000 C 
ENDBRANCH  31  36
ENDBRANCH  22  24
ENDBRANCH  21  22
ENDBRANCH   5  21
TORSDOF 8
ENDMDL
MODEL 9
REMARK VINA RESULT:      -7.7      7.038     11.855
REMARK  Name = 
REMARK  11 active torsions:
REMARK  status: ('A' for Active; 'I' for Inactive)
REMARK    1  A    between atoms: C_1  and  O_2
REMARK    2  A    between atoms: O_2  and  C_3
REMARK    3  A    between atoms: C_8  and  N_9
REMARK    4  A    between atoms: N_12  and  C_13
REMARK    5  A    between atoms: C_17  and  C_18
REMARK    6  A    between atoms: C_18  and  N_19
REMARK    7  A    between atoms: N_19  and  C_20
REMARK    8  A    between atoms: C_26  and  O_27
REMARK    9  A    between atoms: O_27  and  C_28
REMARK   10  A    between atoms: C_29  and  O_30
REMARK   11  A    between atoms: O_30  and  C_31
REMARK                            x       y       z     vdW  Elec       q    Type
REMARK                         _______ _______ _______ _____ _____    ______ ____
ROOT
ATOM      1  C   UNL     1       9.109  10.437  18.542  0.00  0.00    +0.000 A 
ATOM      2  C   UNL     1       9.175  10.444  19.936  0.00  0.00    +0.000 A 
ATOM      3  C   UNL     1      10.174  11.161  20.590  0.00  0.00    +0.000 A 
ATOM      4  C   UNL     1      11.129  11.881  19.859  0.00  0.00    +0.000 A 
ATOM      5  C   UNL     1      11.138  11.883  18.439  0.00  0.00    +0.000 A 
ATOM      6  C   UNL     1      10.101  11.155  17.808  0.00  0.00    +0.000 A 
ENDROOT
BRANCH   1  10
ATOM      7  N   UNL     1       6.899   7.986  16.920  0.00  0.00    +0.000 N 
ATOM      8  C   UNL     1       7.847   8.372  17.862  0.00  0.00    +0.000 C 
ATOM      9  O   UNL     1       8.423   7.572  18.591  0.00  0.00    +0.000 OA
ATOM     10  N   UNL     1       8.064   9.744  17.866  0.00  0.00    +0.000 N 
ATOM     11  H   UNL     1       6.939   8.472  16.027  0.00  0.00    +0.000 HD
ATOM     12  H   UNL     1       7.276  10.305  17.563  0.00  0.00    +0.000 HD
BRANCH   7  18
ATOM     13  C   UNL     1       5.011   6.432  17.191  0.00  0.00    +0.000 A 
ATOM     14  C   UNL     1       4.502   5.123  17.149  0.00  0.00    +0.000 A 
ATOM     15  C   UNL     1       5.308   4.058  16.748  0.00  0.00    +0.000 A 
ATOM     16  C   UNL     1       6.635   4.288  16.404  0.00  0.00    +0.000 A 
ATOM     17  C   UNL     1       7.157   5.584  16.462  0.00  0.00    +0.000 A 
ATOM     18  C   UNL     1       6.359   6.671  16.850  0.00  0.00    +0.000 A 
BRANCH  13  20
ATOM     19  C   UNL     1       3.006   7.202  18.174  0.00  0.00    +0.000 C 
ATOM     20  O   UNL     1       4.238   7.523  17.524  0.00  0.00    +0.000 OA
ENDBRANCH  13  20
ENDBRANCH   7  18
ENDBRANCH   1  10
BRANCH   5  21
ATOM     21  C   UNL     1      12.078  12.860  17.682  0.00  0.00    +0.000 C 
BRANCH  21  22
ATOM     22  N   UNL     1      12.227  14.320  18.154  0.00  0.00    +0.000 N 
ATOM     23  H   UNL     1      12.237  14.208  19.170  0.00  0.00    +0.000 HD
BRANCH  22  24
ATOM     24  C   UNL     1      10.954  15.040  17.953  0.00  0.00    +0.000 A 
ATOM     25  N   UNL     1      10.981  15.808  16.852  0.00  0.00    +0.000 NA
ATOM     26  C   UNL     1      10.739  17.096  17.066  0.00  0.00    +0.000 A 
ATOM     27  N   UNL     1      10.467  17.642  18.248  0.00  0.00    +0.000 NA
ATOM     28  C   UNL     1      10.051  16.807  19.181  0.00  0.00    +0.000 A 
ATOM     29  C   UNL     1       9.465  17.404  20.282  0.00  0.00    +0.000 A 
ATOM     30  C   UNL     1       8.536  16.780  21.122  0.00  0.00    +0.000 A 
ATOM     31  C   UNL     1       8.199  15.459  20.834  0.00  0.00    +0.000 A 
ATOM     32  C   UNL     1       9.022  14.764  19.867  0.00  0.00    +0.000 A 
ATOM     33  C   UNL     1      10.075  15.419  19.059  0.00  0.00    +0.000 A 
BRANCH  30  34
ATOM     34  O   UNL     1       7.918  17.450  22.147  0.00  0.00    +0.000 OA
ATOM     35  C   UNL     1       8.372  17.195  23.477  0.00  0.00    +0.000 C 
ENDBRANCH  30  34
BRANCH  31  36
ATOM     36  O   UNL     1       7.107  14.773  21.330  0.00  0.00    +0.000 OA
ATOM     37  C   UNL     1       7.259  13.640  22.208  0.00  0.00    +0.000 C 
ENDBRANCH  31  36
ENDBRANCH  22  24
ENDBRANCH  21  22
ENDBRANCH   5  21
TORSDOF 8
ENDMDL
