MODEL 1
REMARK VINA RESULT:      -7.2      0.000      0.000
REMARK  Name = 
REMARK  6 active torsions:
REMARK  status: ('A' for Active; 'I' for Inactive)
REMARK    1  A    between atoms: C_1  and  C_2
REMARK    2  A    between atoms: C_2  and  C_3
REMARK    3  A    between atoms: C_2  and  N_11
REMARK    4  A    between atoms: C_3  and  C_4
REMARK    5  A    between atoms: N_11  and  C_12
REMARK    6  A    between atoms: N_16  and  C_17
REMARK                            x       y       z     vdW  Elec       q    Type
REMARK                         _______ _______ _______ _____ _____    ______ ____
ROOT
ATOM      1  C   UNL     1       4.180   6.991  17.107  0.00  0.00    +0.000 C 
ATOM      2  C   UNL     1       3.928   5.615  17.729  0.00  0.00    +0.000 C 
ENDROOT
BRANCH   2   3
ATOM      3  N   UNL     1       4.422   4.576  16.823  0.00  0.00    +0.000 N 
ATOM      4  H   UNL     1       3.664   3.995  16.467  0.00  0.00    +0.000 HD
BRANCH   3   5
ATOM      5  C   UNL     1       5.511   4.685  16.009  0.00  0.00    +0.000 A 
ATOM      6  C   UNL     1       5.519   4.619  14.632  0.00  0.00    +0.000 A 
ATOM      7  C   UNL     1       6.865   4.730  14.251  0.00  0.00    +0.000 A 
ATOM      8  N   UNL     1       7.675   4.858  15.300  0.00  0.00    +0.000 NA
ATOM      9  N   UNL     1       6.842   4.776  16.364  0.00  0.00    +0.000 N 
ATOM     10  C   UNL     1       7.452   4.704  17.669  0.00  0.00    +0.000 C 
ENDBRANCH   3   5
ENDBRANCH   2   3
BRANCH   2  11
ATOM     11  C   UNL     1       2.406   5.428  17.955  0.00  0.00    +0.000 C 
BRANCH  11  12
ATOM     12  C   UNL     1       2.049   4.533  19.124  0.00  0.00    +0.000 A 
ATOM     13  C   UNL     1       1.235   3.404  18.946  0.00  0.00    +0.000 A 
ATOM     14  C   UNL     1       0.876   2.613  20.039  0.00  0.00    +0.000 A 
ATOM     15  C   UNL     1       1.349   2.935  21.305  0.00  0.00    +0.000 A 
ATOM     16  F   UNL     1       1.000   2.178  22.352  0.00  0.00    +0.000 F 
ATOM     17  C   UNL     1       2.181   4.030  21.498  0.00  0.00    +0.000 A 
ATOM     18  C   UNL     1       2.530   4.830  20.410  0.00  0.00    +0.000 A 
ENDBRANCH  11  12
ENDBRANCH   2  11
TORSDOF 4
ENDMDL
MODEL 2
REMARK VINA RESULT:      -7.2      1.139      1.661
REMARK  Name = 
REMARK  6 active torsions:
REMARK  status: ('A' for Active; 'I' for Inactive)
REMARK    1  A    between atoms: C_1  and  C_2
REMARK    2  A    between atoms: C_2  and  C_3
REMARK    3  A    between atoms: C_2  and  N_11
REMARK    4  A    between atoms: C_3  and  C_4
REMARK    5  A    between atoms: N_11  and  C_12
REMARK    6  A    between atoms: N_16  and  C_17
REMARK                            x       y       z     vdW  Elec       q    Type
REMARK                         _______ _______ _______ _____ _____    ______ ____
ROOT
ATOM      1  C   UNL     1       2.623   7.779  17.839  0.00  0.00    +0.000 C 
ATOM      2  C   UNL     1       3.706   6.705  17.980  0.00  0.00    +0.000 C 
ENDROOT
BRANCH   2   3
ATOM      3  N   UNL     1       4.803   7.001  17.056  0.00  0.00    +0.000 N 
ATOM      4  H   UNL     1       5.129   7.962  17.154  0.00  0.00    +0.000 HD
BRANCH   3   5
ATOM      5  C   UNL     1       5.733   6.107  16.614  0.00  0.00    +0.000 A 
ATOM      6  C   UNL     1       5.711   5.421  15.418  0.00  0.00    +0.000 A 
ATOM      7  C   UNL     1       6.840   4.588  15.434  0.00  0.00    +0.000 A 
ATOM      8  N   UNL     1       7.546   4.719  16.556  0.00  0.00    +0.000 NA
ATOM      9  N   UNL     1       6.831   5.608  17.285  0.00  0.00    +0.000 N 
ATOM     10  C   UNL     1       7.253   5.826  18.647  0.00  0.00    +0.000 C 
ENDBRANCH   3   5
ENDBRANCH   2   3
BRANCH   2  11
ATOM     11  C   UNL     1       3.099   5.319  17.643  0.00  0.00    +0.000 C 
BRANCH  11  12
ATOM     12  C   UNL     1       2.475   4.603  18.822  0.00  0.00    +0.000 A 
ATOM     13  C   UNL     1       2.920   4.845  20.132  0.00  0.00    +0.000 A 
ATOM     14  C   UNL     1       2.367   4.145  21.206  0.00  0.00    +0.000 A 
ATOM     15  C   UNL     1       1.356   3.220  20.976  0.00  0.00    +0.000 A 
ATOM     16  F   UNL     1       0.831   2.547  22.007  0.00  0.00    +0.000 F 
ATOM     17  C   UNL     1       0.880   2.988  19.692  0.00  0.00    +0.000 A 
ATOM     18  C   UNL     1       1.439   3.678  18.616  0.00  0.00    +0.000 A 
ENDBRANCH  11  12
ENDBRANCH   2  11
TORSDOF 4
ENDMDL
MODEL 3
REMARK VINA RESULT:      -7.1      1.142      1.259
REMARK  Name = 
REMARK  6 active torsions:
REMARK  status: ('A' for Active; 'I' for Inactive)
REMARK    1  A    between atoms: C_1  and  C_2
REMARK    2  A    between atoms: C_2  and  C_3
REMARK    3  A    between atoms: C_2  and  N_11
REMARK    4  A    between atoms: C_3  and  C_4
REMARK    5  A    between atoms: N_11  and  C_12
REMARK    6  A    between atoms: N_16  and  C_17
REMARK                            x       y       z     vdW  Elec       q    Type
REMARK                         _______ _______ _______ _____ _____    ______ ____
ROOT
ATOM      1  C   UNL     1       2.740   8.064  18.107  0.00  0.00    +0.000 C 
ATOM      2  C   UNL     1       3.470   6.726  17.948  0.00  0.00    +0.000 C 
ENDROOT
BRANCH   2   3
ATOM      3  N   UNL     1       4.409   6.819  16.828  0.00  0.00    +0.000 N 
ATOM      4  H   UNL     1       4.604   7.789  16.580  0.00  0.00    +0.000 HD
BRANCH   3   5
ATOM      5  C   UNL     1       5.404   5.930  16.550  0.00  0.00    +0.000 A 
ATOM      6  C   UNL     1       5.263   4.702  15.940  0.00  0.00    +0.000 A 
ATOM      7  C   UNL     1       6.547   4.135  15.919  0.00  0.00    +0.000 A 
ATOM      8  N   UNL     1       7.458   4.933  16.473  0.00  0.00    +0.000 NA
ATOM      9  N   UNL     1       6.738   5.998  16.899  0.00  0.00    +0.000 N 
ATOM     10  C   UNL     1       7.428   6.971  17.711  0.00  0.00    +0.000 C 
ENDBRANCH   3   5
ENDBRANCH   2   3
BRANCH   2  11
ATOM     11  C   UNL     1       2.433   5.609  17.667  0.00  0.00    +0.000 C 
BRANCH  11  12
ATOM     12  C   UNL     1       2.101   4.744  18.865  0.00  0.00    +0.000 A 
ATOM     13  C   UNL     1       1.318   3.587  18.725  0.00  0.00    +0.000 A 
ATOM     14  C   UNL     1       0.982   2.822  19.844  0.00  0.00    +0.000 A 
ATOM     15  C   UNL     1       1.445   3.200  21.098  0.00  0.00    +0.000 A 
ATOM     16  F   UNL     1       1.117   2.468  22.170  0.00  0.00    +0.000 F 
ATOM     17  C   UNL     1       2.246   4.323  21.254  0.00  0.00    +0.000 A 
ATOM     18  C   UNL     1       2.573   5.096  20.139  0.00  0.00    +0.000 A 
ENDBRANCH  11  12
ENDBRANCH   2  11
TORSDOF 4
ENDMDL
MODEL 4
REMARK VINA RESULT:      -6.8      2.083      2.899
REMARK  Name = 
REMARK  6 active torsions:
REMARK  status: ('A' for Active; 'I' for Inactive)
REMARK    1  A    between atoms: C_1  and  C_2
REMARK    2  A    between atoms: C_2  and  C_3
REMARK    3  A    between atoms: C_2  and  N_11
REMARK    4  A    between atoms: C_3  and  C_4
REMARK    5  A    between atoms: N_11  and  C_12
REMARK    6  A    between atoms: N_16  and  C_17
REMARK                            x       y       z     vdW  Elec       q    Type
REMARK                         _______ _______ _______ _____ _____    ______ ____
ROOT
ATOM      1  C   UNL     1       3.608   1.689  18.632  0.00  0.00    +0.000 C 
ATOM      2  C   UNL     1       3.686   2.696  17.480  0.00  0.00    +0.000 C 
ENDROOT
BRANCH   2   3
ATOM      3  N   UNL     1       4.803   3.613  17.715  0.00  0.00    +0.000 N 
ATOM      4  H   UNL     1       5.208   3.484  18.642  0.00  0.00    +0.000 HD
BRANCH   3   5
ATOM      5  C   UNL     1       5.655   4.087  16.762  0.00  0.00    +0.000 A 
ATOM      6  C   UNL     1       5.483   4.016  15.396  0.00  0.00    +0.000 A 
ATOM      7  C   UNL     1       6.637   4.586  14.835  0.00  0.00    +0.000 A 
ATOM      8  N   UNL     1       7.497   4.998  15.764  0.00  0.00    +0.000 NA
ATOM      9  N   UNL     1       6.909   4.640  16.930  0.00  0.00    +0.000 N 
ATOM     10  C   UNL     1       7.691   4.796  18.133  0.00  0.00    +0.000 C 
ENDBRANCH   3   5
ENDBRANCH   2   3
BRANCH   2  11
ATOM     11  C   UNL     1       2.360   3.496  17.411  0.00  0.00    +0.000 C 
BRANCH  11  12
ATOM     12  C   UNL     1       2.300   4.693  18.336  0.00  0.00    +0.000 A 
ATOM     13  C   UNL     1       1.944   4.546  19.685  0.00  0.00    +0.000 A 
ATOM     14  C   UNL     1       1.848   5.663  20.517  0.00  0.00    +0.000 A 
ATOM     15  C   UNL     1       2.129   6.925  20.007  0.00  0.00    +0.000 A 
ATOM     16  F   UNL     1       2.032   7.995  20.805  0.00  0.00    +0.000 F 
ATOM     17  C   UNL     1       2.513   7.089  18.683  0.00  0.00    +0.000 A 
ATOM     18  C   UNL     1       2.598   5.976  17.847  0.00  0.00    +0.000 A 
ENDBRANCH  11  12
ENDBRANCH   2  11
TORSDOF 4
ENDMDL
MODEL 5
REMARK VINA RESULT:      -6.7      2.664      3.609
REMARK  Name = 
REMARK  6 active torsions:
REMARK  status: ('A' for Active; 'I' for Inactive)
REMARK    1  A    between atoms: C_1  and  C_2
REMARK    2  A    between atoms: C_2  and  C_3
REMARK    3  A    between atoms: C_2  and  N_11
REMARK    4  A    between atoms: C_3  and  C_4
REMARK    5  A    between atoms: N_11  and  C_12
REMARK    6  A    between atoms: N_16  and  C_17
REMARK                            x       y       z     vdW  Elec       q    Type
REMARK                         _______ _______ _______ _____ _____    ______ ____
ROOT
ATOM      1  C   UNL     1       2.678   2.704  17.465  0.00  0.00    +0.000 C 
ATOM      2  C   UNL     1       3.631   3.899  17.359  0.00  0.00    +0.000 C 
ENDROOT
BRANCH   2   3
ATOM      3  N   UNL     1       4.952   3.427  16.936  0.00  0.00    +0.000 N 
ATOM      4  H   UNL     1       4.983   2.410  16.863  0.00  0.00    +0.000 HD
BRANCH   3   5
ATOM      5  C   UNL     1       5.813   4.100  16.123  0.00  0.00    +0.000 A 
ATOM      6  C   UNL     1       5.867   4.034  14.747  0.00  0.00    +0.000 A 
ATOM      7  C   UNL     1       6.940   4.855  14.366  0.00  0.00    +0.000 A 
ATOM      8  N   UNL     1       7.541   5.415  15.413  0.00  0.00    +0.000 NA
ATOM      9  N   UNL     1       6.877   4.905  16.477  0.00  0.00    +0.000 N 
ATOM     10  C   UNL     1       7.418   5.191  17.784  0.00  0.00    +0.000 C 
ENDBRANCH   3   5
ENDBRANCH   2   3
BRANCH   2  11
ATOM     11  C   UNL     1       3.742   4.588  18.743  0.00  0.00    +0.000 C 
BRANCH  11  12
ATOM     12  C   UNL     1       3.143   5.978  18.802  0.00  0.00    +0.000 A 
ATOM     13  C   UNL     1       2.411   6.401  19.922  0.00  0.00    +0.000 A 
ATOM     14  C   UNL     1       1.825   7.668  19.946  0.00  0.00    +0.000 A 
ATOM     15  C   UNL     1       1.989   8.521  18.862  0.00  0.00    +0.000 A 
ATOM     16  F   UNL     1       1.423   9.733  18.884  0.00  0.00    +0.000 F 
ATOM     17  C   UNL     1       2.735   8.133  17.756  0.00  0.00    +0.000 A 
ATOM     18  C   UNL     1       3.311   6.863  17.725  0.00  0.00    +0.000 A 
ENDBRANCH  11  12
ENDBRANCH   2  11
TORSDOF 4
ENDMDL
MODEL 6
REMARK VINA RESULT:      -6.7      1.330      2.065
REMARK  Name = 
REMARK  6 active torsions:
REMARK  status: ('A' for Active; 'I' for Inactive)
REMARK    1  A    between atoms: C_1  and  C_2
REMARK    2  A    between atoms: C_2  and  C_3
REMARK    3  A    between atoms: C_2  and  N_11
REMARK    4  A    between atoms: C_3  and  C_4
REMARK    5  A    between atoms: N_11  and  C_12
REMARK    6  A    between atoms: N_16  and  C_17
REMARK                            x       y       z     vdW  Elec       q    Type
REMARK                         _______ _______ _______ _____ _____    ______ ____
ROOT
ATOM      1  C   UNL     1       2.560   7.777  17.603  0.00  0.00    +0.000 C 
ATOM      2  C   UNL     1       3.530   6.687  18.070  0.00  0.00    +0.000 C 
ENDROOT
BRANCH   2   3
ATOM      3  N   UNL     1       4.831   6.893  17.430  0.00  0.00    +0.000 N 
ATOM      4  H   UNL     1       5.090   7.879  17.411  0.00  0.00    +0.000 HD
BRANCH   3   5
ATOM      5  C   UNL     1       5.872   6.013  17.447  0.00  0.00    +0.000 A 
ATOM      6  C   UNL     1       6.744   5.789  18.491  0.00  0.00    +0.000 A 
ATOM      7  C   UNL     1       7.668   4.842  18.023  0.00  0.00    +0.000 A 
ATOM      8  N   UNL     1       7.418   4.474  16.768  0.00  0.00    +0.000 NA
ATOM      9  N   UNL     1       6.355   5.234  16.414  0.00  0.00    +0.000 N 
ATOM     10  C   UNL     1       5.952   5.191  15.030  0.00  0.00    +0.000 C 
ENDBRANCH   3   5
ENDBRANCH   2   3
BRANCH   2  11
ATOM     11  C   UNL     1       2.967   5.298  17.673  0.00  0.00    +0.000 C 
BRANCH  11  12
ATOM     12  C   UNL     1       2.601   4.411  18.844  0.00  0.00    +0.000 A 
ATOM     13  C   UNL     1       1.342   4.505  19.456  0.00  0.00    +0.000 A 
ATOM     14  C   UNL     1       1.033   3.713  20.564  0.00  0.00    +0.000 A 
ATOM     15  C   UNL     1       1.973   2.811  21.046  0.00  0.00    +0.000 A 
ATOM     16  F   UNL     1       1.677   2.055  22.111  0.00  0.00    +0.000 F 
ATOM     17  C   UNL     1       3.214   2.679  20.436  0.00  0.00    +0.000 A 
ATOM     18  C   UNL     1       3.529   3.478  19.337  0.00  0.00    +0.000 A 
ENDBRANCH  11  12
ENDBRANCH   2  11
TORSDOF 4
ENDMDL
MODEL 7
REMARK VINA RESULT:      -6.6      3.440      6.109
REMARK  Name = 
REMARK  6 active torsions:
REMARK  status: ('A' for Active; 'I' for Inactive)
REMARK    1  A    between atoms: C_1  and  C_2
REMARK    2  A    between atoms: C_2  and  C_3
REMARK    3  A    between atoms: C_2  and  N_11
REMARK    4  A    between atoms: C_3  and  C_4
REMARK    5  A    between atoms: N_11  and  C_12
REMARK    6  A    between atoms: N_16  and  C_17
REMARK                            x       y       z     vdW  Elec       q    Type
REMARK                         _______ _______ _______ _____ _____    ______ ____
ROOT
ATOM      1  C   UNL     1       3.437   2.009  17.769  0.00  0.00    +0.000 C 
ATOM      2  C   UNL     1       3.818   3.472  18.014  0.00  0.00    +0.000 C 
ENDROOT
BRANCH   2   3
ATOM      3  N   UNL     1       2.614   4.303  17.942  0.00  0.00    +0.000 N 
ATOM      4  H   UNL     1       1.786   3.749  17.725  0.00  0.00    +0.000 HD
BRANCH   3   5
ATOM      5  C   UNL     1       2.388   5.439  18.661  0.00  0.00    +0.000 A 
ATOM      6  C   UNL     1       2.584   6.735  18.234  0.00  0.00    +0.000 A 
ATOM      7  C   UNL     1       2.267   7.552  19.331  0.00  0.00    +0.000 A 
ATOM      8  N   UNL     1       1.891   6.842  20.394  0.00  0.00    +0.000 NA
ATOM      9  N   UNL     1       2.021   5.557  19.986  0.00  0.00    +0.000 N 
ATOM     10  C   UNL     1       1.853   4.533  20.989  0.00  0.00    +0.000 C 
ENDBRANCH   3   5
ENDBRANCH   2   3
BRANCH   2  11
ATOM     11  C   UNL     1       4.830   3.925  16.932  0.00  0.00    +0.000 C 
BRANCH  11  12
ATOM     12  C   UNL     1       5.879   4.902  17.421  0.00  0.00    +0.000 A 
ATOM     13  C   UNL     1       6.400   4.809  18.721  0.00  0.00    +0.000 A 
ATOM     14  C   UNL     1       7.334   5.743  19.176  0.00  0.00    +0.000 A 
ATOM     15  C   UNL     1       7.762   6.755  18.326  0.00  0.00    +0.000 A 
ATOM     16  F   UNL     1       8.654   7.652  18.766  0.00  0.00    +0.000 F 
ATOM     17  C   UNL     1       7.282   6.847  17.027  0.00  0.00    +0.000 A 
ATOM     18  C   UNL     1       6.341   5.922  16.574  0.00  0.00    +0.000 A 
ENDBRANCH  11  12
ENDBRANCH   2  11
TORSDOF 4
ENDMDL
MODEL 8
REMARK VINA RESULT:      -6.5      3.496      6.196
REMARK  Name = 
REMARK  6 active torsions:
REMARK  status: ('A' for Active; 'I' for Inactive)
REMARK    1  A    between atoms: C_1  and  C_2
REMARK    2  A    between atoms: C_2  and  C_3
REMARK    3  A    between atoms: C_2  and  N_11
REMARK    4  A    between atoms: C_3  and  C_4
REMARK    5  A    between atoms: N_11  and  C_12
REMARK    6  A    between atoms: N_16  and  C_17
REMARK                            x       y       z     vdW  Elec       q    Type
REMARK                         _______ _______ _______ _____ _____    ______ ____
ROOT
ATOM      1  C   UNL     1       3.172   5.407  18.727  0.00  0.00    +0.000 C 
ATOM      2  C   UNL     1       2.926   4.359  17.637  0.00  0.00    +0.000 C 
ENDROOT
BRANCH   2   3
ATOM      3  N   UNL     1       2.452   3.120  18.258  0.00  0.00    +0.000 N 
ATOM      4  H   UNL     1       2.754   2.298  17.736  0.00  0.00    +0.000 HD
BRANCH   3   5
ATOM      5  C   UNL     1       2.248   2.927  19.592  0.00  0.00    +0.000 A 
ATOM      6  C   UNL     1       1.101   3.218  20.300  0.00  0.00    +0.000 A 
ATOM      7  C   UNL     1       1.385   2.897  21.637  0.00  0.00    +0.000 A 
ATOM      8  N   UNL     1       2.623   2.432  21.791  0.00  0.00    +0.000 NA
ATOM      9  N   UNL     1       3.152   2.506  20.547  0.00  0.00    +0.000 N 
ATOM     10  C   UNL     1       4.563   2.233  20.419  0.00  0.00    +0.000 C 
ENDBRANCH   3   5
ENDBRANCH   2   3
BRANCH   2  11
ATOM     11  C   UNL     1       4.251   4.089  16.880  0.00  0.00    +0.000 C 
BRANCH  11  12
ATOM     12  C   UNL     1       5.399   4.991  17.281  0.00  0.00    +0.000 A 
ATOM     13  C   UNL     1       6.353   4.572  18.220  0.00  0.00    +0.000 A 
ATOM     14  C   UNL     1       7.381   5.430  18.615  0.00  0.00    +0.000 A 
ATOM     15  C   UNL     1       7.470   6.698  18.055  0.00  0.00    +0.000 A 
ATOM     16  F   UNL     1       8.454   7.521  18.438  0.00  0.00    +0.000 F 
ATOM     17  C   UNL     1       6.555   7.122  17.101  0.00  0.00    +0.000 A 
ATOM     18  C   UNL     1       5.520   6.271  16.714  0.00  0.00    +0.000 A 
ENDBRANCH  11  12
ENDBRANCH   2  11
TORSDOF 4
ENDMDL
MODEL 9
REMARK VINA RESULT:      -6.5      3.491      6.162
REMARK  Name = 
REMARK  6 active torsions:
REMARK  status: ('A' for Active; 'I' for Inactive)
REMARK    1  A    between atoms: C_1  and  C_2
REMARK    2  A    between atoms: C_2  and  C_3
REMARK    3  A    between atoms: C_2  and  N_11
REMARK    4  A    between atoms: C_3  and  C_4
REMARK    5  A    between atoms: N_11  and  C_12
REMARK    6  A    between atoms: N_16  and  C_17
REMARK                            x       y       z     vdW  Elec       q    Type
REMARK                         _______ _______ _______ _____ _____    ______ ____
ROOT
ATOM      1  C   UNL     1       3.178   5.642  18.768  0.00  0.00    +0.000 C 
ATOM      2  C   UNL     1       2.967   4.595  17.671  0.00  0.00    +0.000 C 
ENDROOT
BRANCH   2   3
ATOM      3  N   UNL     1       2.551   3.331  18.284  0.00  0.00    +0.000 N 
ATOM      4  H   UNL     1       2.889   2.527  17.756  0.00  0.00    +0.000 HD
BRANCH   3   5
ATOM      5  C   UNL     1       2.359   3.119  19.617  0.00  0.00    +0.000 A 
ATOM      6  C   UNL     1       1.268   3.511  20.363  0.00  0.00    +0.000 A 
ATOM      7  C   UNL     1       1.546   3.120  21.682  0.00  0.00    +0.000 A 
ATOM      8  N   UNL     1       2.729   2.518  21.789  0.00  0.00    +0.000 NA
ATOM      9  N   UNL     1       3.233   2.572  20.534  0.00  0.00    +0.000 N 
ATOM     10  C   UNL     1       4.603   2.151  20.361  0.00  0.00    +0.000 C 
ENDBRANCH   3   5
ENDBRANCH   2   3
BRANCH   2  11
ATOM     11  C   UNL     1       4.295   4.388  16.900  0.00  0.00    +0.000 C 
BRANCH  11  12
ATOM     12  C   UNL     1       5.445   5.243  17.389  0.00  0.00    +0.000 A 
ATOM     13  C   UNL     1       5.633   6.547  16.903  0.00  0.00    +0.000 A 
ATOM     14  C   UNL     1       6.723   7.309  17.328  0.00  0.00    +0.000 A 
ATOM     15  C   UNL     1       7.612   6.778  18.254  0.00  0.00    +0.000 A 
ATOM     16  F   UNL     1       8.659   7.509  18.657  0.00  0.00    +0.000 F 
ATOM     17  C   UNL     1       7.427   5.503  18.771  0.00  0.00    +0.000 A 
ATOM     18  C   UNL     1       6.346   4.735  18.339  0.00  0.00    +0.000 A 
ENDBRANCH  11  12
ENDBRANCH   2  11
TORSDOF 4
ENDMDL
