MODEL 1
REMARK VINA RESULT:      -6.6      0.000      0.000
REMARK  Name = 
REMARK  7 active torsions:
REMARK  status: ('A' for Active; 'I' for Inactive)
REMARK    1  A    between atoms: C_2  and  C_3
REMARK    2  A    between atoms: C_4  and  C_5
REMARK    3  A    between atoms: C_13  and  S_14
REMARK    4  A    between atoms: S_14  and  C_15
REMARK    5  A    between atoms: C_15  and  C_16
REMARK    6  A    between atoms: C_23  and  N_24
REMARK    7  A    between atoms: C_27  and  C_28
REMARK                            x       y       z     vdW  Elec       q    Type
REMARK                         _______ _______ _______ _____ _____    ______ ____
ROOT
ATOM      1  C   UNL     1      -0.247  11.843  19.790  0.00  0.00    +0.000 A 
ATOM      2  C   UNL     1      -0.401  10.585  19.219  0.00  0.00    +0.000 A 
ATOM      3  N   UNL     1      -1.516  10.271  18.516  0.00  0.00    +0.000 NA
ATOM      4  C   UNL     1      -2.464  11.209  18.373  0.00  0.00    +0.000 A 
ATOM      5  N   UNL     1      -2.384  12.448  18.876  0.00  0.00    +0.000 NA
ATOM      6  C   UNL     1      -1.283  12.762  19.595  0.00  0.00    +0.000 A 
ENDROOT
BRANCH   2   7
ATOM      7  C   UNL     1       0.635   9.513  19.226  0.00  0.00    +0.000 A 
ATOM      8  C   UNL     1       1.380   9.156  18.084  0.00  0.00    +0.000 A 
ATOM      9  C   UNL     1       2.265   8.071  18.092  0.00  0.00    +0.000 A 
ATOM     10  C   UNL     1       2.469   7.350  19.262  0.00  0.00    +0.000 A 
ATOM     11 CL   UNL     1       3.552   6.015  19.270  0.00  0.00    +0.000 Cl
ATOM     12  C   UNL     1       1.801   7.714  20.425  0.00  0.00    +0.000 A 
ATOM     13  C   UNL     1       0.893   8.781  20.404  0.00  0.00    +0.000 A 
ENDBRANCH   2   7
BRANCH   6  14
ATOM     14  N   UNL     1      -1.130  14.082  20.035  0.00  0.00    +0.000 N 
ATOM     15  C   UNL     1      -0.530  15.020  19.090  0.00  0.00    +0.000 C 
ATOM     16  C   UNL     1       0.148  16.118  19.916  0.00  0.00    +0.000 C 
ATOM     17  C   UNL     1      -0.834  16.800  20.885  0.00  0.00    +0.000 C 
ATOM     18  C   UNL     1      -1.617  15.763  21.709  0.00  0.00    +0.000 C 
ATOM     19  C   UNL     1      -2.225  14.668  20.824  0.00  0.00    +0.000 C 
BRANCH  17  20
ATOM     20  C   UNL     1      -1.772  17.741  20.152  0.00  0.00    +0.000 C 
ATOM     21  N   UNL     1      -2.849  18.171  20.872  0.00  0.00    +0.000 N 
ATOM     22  O   UNL     1      -1.619  18.118  18.996  0.00  0.00    +0.000 OA
ATOM     23  H   UNL     1      -3.116  17.760  21.757  0.00  0.00    +0.000 HD
ATOM     24  H   UNL     1      -3.530  18.748  20.391  0.00  0.00    +0.000 HD
ENDBRANCH  17  20
ENDBRANCH   6  14
BRANCH   1  26
ATOM     25  N   UNL     1       1.917  12.543  21.034  0.00  0.00    +0.000 NA
ATOM     26  C   UNL     1       0.960  12.242  20.448  0.00  0.00    +0.000 C 
ENDBRANCH   1  26
BRANCH   4  27
ATOM     27  S   UNL     1      -3.912  10.705  17.474  0.00  0.00    +0.000 S 
BRANCH  27  28
ATOM     28  C   UNL     1      -5.117  11.977  17.972  0.00  0.00    +0.000 C 
BRANCH  28  29
ATOM     29  C   UNL     1      -6.027  11.461  19.070  0.00  0.00    +0.000 A 
ATOM     30  C   UNL     1      -6.573  10.170  19.002  0.00  0.00    +0.000 A 
ATOM     31  C   UNL     1      -7.442   9.707  19.997  0.00  0.00    +0.000 A 
ATOM     32  C   UNL     1      -7.778  10.530  21.069  0.00  0.00    +0.000 A 
ATOM     33  C   UNL     1      -7.245  11.814  21.151  0.00  0.00    +0.000 A 
ATOM     34  C   UNL     1      -6.376  12.280  20.158  0.00  0.00    +0.000 A 
ENDBRANCH  28  29
ENDBRANCH  27  28
ENDBRANCH   4  27
TORSDOF 7
ENDMDL
MODEL 2
REMARK VINA RESULT:      -6.6      3.898      7.209
REMARK  Name = 
REMARK  7 active torsions:
REMARK  status: ('A' for Active; 'I' for Inactive)
REMARK    1  A    between atoms: C_2  and  C_3
REMARK    2  A    between atoms: C_4  and  C_5
REMARK    3  A    between atoms: C_13  and  S_14
REMARK    4  A    between atoms: S_14  and  C_15
REMARK    5  A    between atoms: C_15  and  C_16
REMARK    6  A    between atoms: C_23  and  N_24
REMARK    7  A    between atoms: C_27  and  C_28
REMARK                            x       y       z     vdW  Elec       q    Type
REMARK                         _______ _______ _______ _____ _____    ______ ____
ROOT
ATOM      1  C   UNL     1      -0.952  13.317  21.350  0.00  0.00    +0.000 A 
ATOM      2  C   UNL     1      -1.656  12.334  22.036  0.00  0.00    +0.000 A 
ATOM      3  N   UNL     1      -1.065  11.163  22.377  0.00  0.00    +0.000 NA
ATOM      4  C   UNL     1       0.222  10.979  22.046  0.00  0.00    +0.000 A 
ATOM      5  N   UNL     1       0.973  11.881  21.401  0.00  0.00    +0.000 NA
ATOM      6  C   UNL     1       0.385  13.045  21.042  0.00  0.00    +0.000 A 
ENDROOT
BRANCH   2   7
ATOM      7  C   UNL     1      -3.049  12.482  22.545  0.00  0.00    +0.000 A 
ATOM      8  C   UNL     1      -4.157  12.704  21.702  0.00  0.00    +0.000 A 
ATOM      9  C   UNL     1      -5.436  12.950  22.217  0.00  0.00    +0.000 A 
ATOM     10  C   UNL     1      -5.648  12.925  23.590  0.00  0.00    +0.000 A 
ATOM     11 CL   UNL     1      -7.217  13.233  24.221  0.00  0.00    +0.000 Cl
ATOM     12  C   UNL     1      -4.593  12.645  24.449  0.00  0.00    +0.000 A 
ATOM     13  C   UNL     1      -3.308  12.430  23.931  0.00  0.00    +0.000 A 
ENDBRANCH   2   7
BRANCH   6  14
ATOM     14  N   UNL     1       1.180  14.043  20.467  0.00  0.00    +0.000 N 
ATOM     15  C   UNL     1       2.506  14.239  21.049  0.00  0.00    +0.000 C 
ATOM     16  C   UNL     1       2.899  15.696  20.792  0.00  0.00    +0.000 C 
ATOM     17  C   UNL     1       2.852  16.050  19.296  0.00  0.00    +0.000 C 
ATOM     18  C   UNL     1       1.517  15.620  18.661  0.00  0.00    +0.000 C 
ATOM     19  C   UNL     1       1.163  14.168  19.001  0.00  0.00    +0.000 C 
BRANCH  17  20
ATOM     20  C   UNL     1       4.032  15.457  18.547  0.00  0.00    +0.000 C 
ATOM     21  N   UNL     1       3.829  15.236  17.216  0.00  0.00    +0.000 N 
ATOM     22  O   UNL     1       5.111  15.178  19.057  0.00  0.00    +0.000 OA
ATOM     23  H   UNL     1       2.915  15.282  16.785  0.00  0.00    +0.000 HD
ATOM     24  H   UNL     1       4.574  14.781  16.702  0.00  0.00    +0.000 HD
ENDBRANCH  17  20
ENDBRANCH   6  14
BRANCH   1  26
ATOM     25  N   UNL     1      -2.012  15.620  20.811  0.00  0.00    +0.000 NA
ATOM     26  C   UNL     1      -1.512  14.604  21.068  0.00  0.00    +0.000 C 
ENDBRANCH   1  26
BRANCH   4  27
ATOM     27  S   UNL     1       0.910   9.402  22.490  0.00  0.00    +0.000 S 
BRANCH  27  28
ATOM     28  C   UNL     1       0.239   8.326  21.183  0.00  0.00    +0.000 C 
BRANCH  28  29
ATOM     29  C   UNL     1       1.204   8.224  20.017  0.00  0.00    +0.000 A 
ATOM     30  C   UNL     1       1.217   9.202  19.010  0.00  0.00    +0.000 A 
ATOM     31  C   UNL     1       2.082   9.090  17.915  0.00  0.00    +0.000 A 
ATOM     32  C   UNL     1       2.939   7.998  17.811  0.00  0.00    +0.000 A 
ATOM     33  C   UNL     1       2.936   7.018  18.801  0.00  0.00    +0.000 A 
ATOM     34  C   UNL     1       2.073   7.127  19.897  0.00  0.00    +0.000 A 
ENDBRANCH  28  29
ENDBRANCH  27  28
ENDBRANCH   4  27
TORSDOF 7
ENDMDL
MODEL 3
REMARK VINA RESULT:      -6.6      0.531      1.003
REMARK  Name = 
REMARK  7 active torsions:
REMARK  status: ('A' for Active; 'I' for Inactive)
REMARK    1  A    between atoms: C_2  and  C_3
REMARK    2  A    between atoms: C_4  and  C_5
REMARK    3  A    between atoms: C_13  and  S_14
REMARK    4  A    between atoms: S_14  and  C_15
REMARK    5  A    between atoms: C_15  and  C_16
REMARK    6  A    between atoms: C_23  and  N_24
REMARK    7  A    between atoms: C_27  and  C_28
REMARK                            x       y       z     vdW  Elec       q    Type
REMARK                         _______ _______ _______ _____ _____    ______ ____
ROOT
ATOM      1  C   UNL     1       0.007  11.671  19.571  0.00  0.00    +0.000 A 
ATOM      2  C   UNL     1      -0.127  10.400  19.026  0.00  0.00    +0.000 A 
ATOM      3  N   UNL     1      -1.199  10.080  18.260  0.00  0.00    +0.000 NA
ATOM      4  C   UNL     1      -2.123  11.026  18.030  0.00  0.00    +0.000 A 
ATOM      5  N   UNL     1      -2.058  12.277  18.504  0.00  0.00    +0.000 NA
ATOM      6  C   UNL     1      -1.001  12.598  19.284  0.00  0.00    +0.000 A 
ENDROOT
BRANCH   2   7
ATOM      7  C   UNL     1       0.891   9.316  19.129  0.00  0.00    +0.000 A 
ATOM      8  C   UNL     1       1.748   8.961  18.068  0.00  0.00    +0.000 A 
ATOM      9  C   UNL     1       2.616   7.866  18.157  0.00  0.00    +0.000 A 
ATOM     10  C   UNL     1       2.687   7.131  19.334  0.00  0.00    +0.000 A 
ATOM     11 CL   UNL     1       3.748   5.783  19.440  0.00  0.00    +0.000 Cl
ATOM     12  C   UNL     1       1.904   7.491  20.424  0.00  0.00    +0.000 A 
ATOM     13  C   UNL     1       1.015   8.569  20.320  0.00  0.00    +0.000 A 
ENDBRANCH   2   7
BRANCH   6  14
ATOM     14  N   UNL     1      -0.858  13.927  19.697  0.00  0.00    +0.000 N 
ATOM     15  C   UNL     1      -0.338  14.867  18.707  0.00  0.00    +0.000 C 
ATOM     16  C   UNL     1       0.357  15.994  19.477  0.00  0.00    +0.000 C 
ATOM     17  C   UNL     1      -0.585  16.664  20.491  0.00  0.00    +0.000 C 
ATOM     18  C   UNL     1      -1.293  15.620  21.373  0.00  0.00    +0.000 C 
ATOM     19  C   UNL     1      -1.921  14.497  20.539  0.00  0.00    +0.000 C 
BRANCH  17  20
ATOM     20  C   UNL     1      -1.589  17.571  19.801  0.00  0.00    +0.000 C 
ATOM     21  N   UNL     1      -2.536  18.121  20.615  0.00  0.00    +0.000 N 
ATOM     22  O   UNL     1      -1.592  17.821  18.601  0.00  0.00    +0.000 OA
ATOM     23  H   UNL     1      -2.686  17.815  21.567  0.00  0.00    +0.000 HD
ATOM     24  H   UNL     1      -3.260  18.678  20.176  0.00  0.00    +0.000 HD
ENDBRANCH  17  20
ENDBRANCH   6  14
BRANCH   1  26
ATOM     25  N   UNL     1       2.151  12.351  20.861  0.00  0.00    +0.000 NA
ATOM     26  C   UNL     1       1.175  12.074  20.295  0.00  0.00    +0.000 C 
ENDBRANCH   1  26
BRANCH   4  27
ATOM     27  S   UNL     1      -3.516  10.514  17.053  0.00  0.00    +0.000 S 
BRANCH  27  28
ATOM     28  C   UNL     1      -4.665  11.907  17.292  0.00  0.00    +0.000 C 
BRANCH  28  29
ATOM     29  C   UNL     1      -5.542  11.683  18.510  0.00  0.00    +0.000 A 
ATOM     30  C   UNL     1      -5.407  12.491  19.649  0.00  0.00    +0.000 A 
ATOM     31  C   UNL     1      -6.191  12.262  20.785  0.00  0.00    +0.000 A 
ATOM     32  C   UNL     1      -7.115  11.220  20.799  0.00  0.00    +0.000 A 
ATOM     33  C   UNL     1      -7.259  10.408  19.676  0.00  0.00    +0.000 A 
ATOM     34  C   UNL     1      -6.477  10.634  18.539  0.00  0.00    +0.000 A 
ENDBRANCH  28  29
ENDBRANCH  27  28
ENDBRANCH   4  27
TORSDOF 7
ENDMDL
MODEL 4
REMARK VINA RESULT:      -6.5      2.231      2.717
REMARK  Name = 
REMARK  7 active torsions:
REMARK  status: ('A' for Active; 'I' for Inactive)
REMARK    1  A    between atoms: C_2  and  C_3
REMARK    2  A    between atoms: C_4  and  C_5
REMARK    3  A    between atoms: C_13  and  S_14
REMARK    4  A    between atoms: S_14  and  C_15
REMARK    5  A    between atoms: C_15  and  C_16
REMARK    6  A    between atoms: C_23  and  N_24
REMARK    7  A    between atoms: C_27  and  C_28
REMARK                            x       y       z     vdW  Elec       q    Type
REMARK                         _______ _______ _______ _____ _____    ______ ____
ROOT
ATOM      1  C   UNL     1      -0.582  10.612  20.698  0.00  0.00    +0.000 A 
ATOM      2  C   UNL     1      -0.244   9.980  19.507  0.00  0.00    +0.000 A 
ATOM      3  N   UNL     1      -0.882  10.285  18.351  0.00  0.00    +0.000 NA
ATOM      4  C   UNL     1      -1.842  11.223  18.381  0.00  0.00    +0.000 A 
ATOM      5  N   UNL     1      -2.214  11.889  19.482  0.00  0.00    +0.000 NA
ATOM      6  C   UNL     1      -1.594  11.576  20.643  0.00  0.00    +0.000 A 
ENDROOT
BRANCH   2   7
ATOM      7  C   UNL     1       0.875   9.009  19.345  0.00  0.00    +0.000 A 
ATOM      8  C   UNL     1       1.716   8.986  18.214  0.00  0.00    +0.000 A 
ATOM      9  C   UNL     1       2.687   7.991  18.039  0.00  0.00    +0.000 A 
ATOM     10  C   UNL     1       2.877   7.027  19.020  0.00  0.00    +0.000 A 
ATOM     11 CL   UNL     1       4.064   5.803  18.801  0.00  0.00    +0.000 Cl
ATOM     12  C   UNL     1       2.110   7.056  20.179  0.00  0.00    +0.000 A 
ATOM     13  C   UNL     1       1.119   8.035  20.336  0.00  0.00    +0.000 A 
ENDBRANCH   2   7
BRANCH   6  14
ATOM     14  N   UNL     1      -1.889  12.336  21.781  0.00  0.00    +0.000 N 
ATOM     15  C   UNL     1      -1.289  13.666  21.852  0.00  0.00    +0.000 C 
ATOM     16  C   UNL     1      -1.152  14.018  23.336  0.00  0.00    +0.000 C 
ATOM     17  C   UNL     1      -2.499  13.936  24.075  0.00  0.00    +0.000 C 
ATOM     18  C   UNL     1      -3.212  12.603  23.791  0.00  0.00    +0.000 C 
ATOM     19  C   UNL     1      -3.268  12.291  22.291  0.00  0.00    +0.000 C 
BRANCH  17  20
ATOM     20  C   UNL     1      -3.389  15.119  23.736  0.00  0.00    +0.000 C 
ATOM     21  N   UNL     1      -4.678  15.024  24.176  0.00  0.00    +0.000 N 
ATOM     22  O   UNL     1      -3.025  16.110  23.115  0.00  0.00    +0.000 OA
ATOM     23  H   UNL     1      -5.074  14.166  24.535  0.00  0.00    +0.000 HD
ATOM     24  H   UNL     1      -5.315  15.767  23.910  0.00  0.00    +0.000 HD
ENDBRANCH  17  20
ENDBRANCH   6  14
BRANCH   1  26
ATOM     25  N   UNL     1       0.676  10.192  22.926  0.00  0.00    +0.000 NA
ATOM     26  C   UNL     1       0.141  10.391  21.914  0.00  0.00    +0.000 C 
ENDBRANCH   1  26
BRANCH   4  27
ATOM     27  S   UNL     1      -2.658  11.533  16.834  0.00  0.00    +0.000 S 
BRANCH  27  28
ATOM     28  C   UNL     1      -4.121  10.457  16.966  0.00  0.00    +0.000 C 
BRANCH  28  29
ATOM     29  C   UNL     1      -5.306  11.218  17.529  0.00  0.00    +0.000 A 
ATOM     30  C   UNL     1      -5.645  12.486  17.032  0.00  0.00    +0.000 A 
ATOM     31  C   UNL     1      -6.716  13.205  17.575  0.00  0.00    +0.000 A 
ATOM     32  C   UNL     1      -7.457  12.667  18.625  0.00  0.00    +0.000 A 
ATOM     33  C   UNL     1      -7.132  11.411  19.130  0.00  0.00    +0.000 A 
ATOM     34  C   UNL     1      -6.062  10.690  18.589  0.00  0.00    +0.000 A 
ENDBRANCH  28  29
ENDBRANCH  27  28
ENDBRANCH   4  27
TORSDOF 7
ENDMDL
MODEL 5
REMARK VINA RESULT:      -6.5      3.903      7.562
REMARK  Name = 
REMARK  7 active torsions:
REMARK  status: ('A' for Active; 'I' for Inactive)
REMARK    1  A    between atoms: C_2  and  C_3
REMARK    2  A    between atoms: C_4  and  C_5
REMARK    3  A    between atoms: C_13  and  S_14
REMARK    4  A    between atoms: S_14  and  C_15
REMARK    5  A    between atoms: C_15  and  C_16
REMARK    6  A    between atoms: C_23  and  N_24
REMARK    7  A    between atoms: C_27  and  C_28
REMARK                            x       y       z     vdW  Elec       q    Type
REMARK                         _______ _______ _______ _____ _____    ______ ____
ROOT
ATOM      1  C   UNL     1      -0.356  13.347  20.880  0.00  0.00    +0.000 A 
ATOM      2  C   UNL     1      -1.186  12.336  21.350  0.00  0.00    +0.000 A 
ATOM      3  N   UNL     1      -0.812  11.036  21.275  0.00  0.00    +0.000 NA
ATOM      4  C   UNL     1       0.387  10.747  20.746  0.00  0.00    +0.000 A 
ATOM      5  N   UNL     1       1.251  11.662  20.288  0.00  0.00    +0.000 NA
ATOM      6  C   UNL     1       0.876  12.961  20.342  0.00  0.00    +0.000 A 
ENDROOT
BRANCH   2   7
ATOM      7  C   UNL     1      -2.483  12.555  22.051  0.00  0.00    +0.000 A 
ATOM      8  C   UNL     1      -2.620  12.499  23.453  0.00  0.00    +0.000 A 
ATOM      9  C   UNL     1      -3.870  12.597  24.075  0.00  0.00    +0.000 A 
ATOM     10  C   UNL     1      -5.011  12.811  23.312  0.00  0.00    +0.000 A 
ATOM     11 CL   UNL     1      -6.546  12.926  24.076  0.00  0.00    +0.000 Cl
ATOM     12  C   UNL     1      -4.907  12.938  21.931  0.00  0.00    +0.000 A 
ATOM     13  C   UNL     1      -3.657  12.807  21.310  0.00  0.00    +0.000 A 
ENDBRANCH   2   7
BRANCH   6  14
ATOM     14  N   UNL     1       1.807  13.938  19.971  0.00  0.00    +0.000 N 
ATOM     15  C   UNL     1       2.921  14.161  20.889  0.00  0.00    +0.000 C 
ATOM     16  C   UNL     1       3.382  15.608  20.694  0.00  0.00    +0.000 C 
ATOM     17  C   UNL     1       3.752  15.903  19.230  0.00  0.00    +0.000 C 
ATOM     18  C   UNL     1       2.642  15.444  18.269  0.00  0.00    +0.000 C 
ATOM     19  C   UNL     1       2.196  14.005  18.554  0.00  0.00    +0.000 C 
BRANCH  17  20
ATOM     20  C   UNL     1       5.089  15.285  18.861  0.00  0.00    +0.000 C 
ATOM     21  N   UNL     1       5.220  14.914  17.554  0.00  0.00    +0.000 N 
ATOM     22  O   UNL     1       6.015  15.110  19.643  0.00  0.00    +0.000 OA
ATOM     23  H   UNL     1       4.438  14.874  16.914  0.00  0.00    +0.000 HD
ATOM     24  H   UNL     1       6.075  14.438  17.289  0.00  0.00    +0.000 HD
ENDBRANCH  17  20
ENDBRANCH   6  14
BRANCH   1  26
ATOM     25  N   UNL     1      -0.990  15.845  21.162  0.00  0.00    +0.000 NA
ATOM     26  C   UNL     1      -0.673  14.734  21.039  0.00  0.00    +0.000 C 
ENDBRANCH   1  26
BRANCH   4  27
ATOM     27  S   UNL     1       0.784   9.019  20.645  0.00  0.00    +0.000 S 
BRANCH  27  28
ATOM     28  C   UNL     1       1.442   8.889  18.952  0.00  0.00    +0.000 C 
BRANCH  28  29
ATOM     29  C   UNL     1       2.371   7.698  18.820  0.00  0.00    +0.000 A 
ATOM     30  C   UNL     1       3.222   7.571  17.712  0.00  0.00    +0.000 A 
ATOM     31  C   UNL     1       4.054   6.455  17.572  0.00  0.00    +0.000 A 
ATOM     32  C   UNL     1       4.040   5.448  18.535  0.00  0.00    +0.000 A 
ATOM     33  C   UNL     1       3.199   5.558  19.640  0.00  0.00    +0.000 A 
ATOM     34  C   UNL     1       2.367   6.674  19.782  0.00  0.00    +0.000 A 
ENDBRANCH  28  29
ENDBRANCH  27  28
ENDBRANCH   4  27
TORSDOF 7
ENDMDL
MODEL 6
REMARK VINA RESULT:      -6.5      3.663      6.780
REMARK  Name = 
REMARK  7 active torsions:
REMARK  status: ('A' for Active; 'I' for Inactive)
REMARK    1  A    between atoms: C_2  and  C_3
REMARK    2  A    between atoms: C_4  and  C_5
REMARK    3  A    between atoms: C_13  and  S_14
REMARK    4  A    between atoms: S_14  and  C_15
REMARK    5  A    between atoms: C_15  and  C_16
REMARK    6  A    between atoms: C_23  and  N_24
REMARK    7  A    between atoms: C_27  and  C_28
REMARK                            x       y       z     vdW  Elec       q    Type
REMARK                         _______ _______ _______ _____ _____    ______ ____
ROOT
ATOM      1  C   UNL     1       0.495  13.641  20.771  0.00  0.00    +0.000 A 
ATOM      2  C   UNL     1       1.478  13.259  19.866  0.00  0.00    +0.000 A 
ATOM      3  N   UNL     1       1.347  12.126  19.133  0.00  0.00    +0.000 NA
ATOM      4  C   UNL     1       0.239  11.387  19.294  0.00  0.00    +0.000 A 
ATOM      5  N   UNL     1      -0.760  11.695  20.132  0.00  0.00    +0.000 NA
ATOM      6  C   UNL     1      -0.628  12.815  20.879  0.00  0.00    +0.000 A 
ENDROOT
BRANCH   2   7
ATOM      7  C   UNL     1       2.689  14.061  19.533  0.00  0.00    +0.000 A 
ATOM      8  C   UNL     1       2.959  14.546  18.238  0.00  0.00    +0.000 A 
ATOM      9  C   UNL     1       4.159  15.200  17.932  0.00  0.00    +0.000 A 
ATOM     10  C   UNL     1       5.096  15.434  18.930  0.00  0.00    +0.000 A 
ATOM     11 CL   UNL     1       6.572  16.231  18.552  0.00  0.00    +0.000 Cl
ATOM     12  C   UNL     1       4.836  15.028  20.233  0.00  0.00    +0.000 A 
ATOM     13  C   UNL     1       3.648  14.346  20.529  0.00  0.00    +0.000 A 
ENDBRANCH   2   7
BRANCH   6  14
ATOM     14  N   UNL     1      -1.707  13.213  21.677  0.00  0.00    +0.000 N 
ATOM     15  C   UNL     1      -3.014  13.272  21.027  0.00  0.00    +0.000 C 
ATOM     16  C   UNL     1      -3.846  14.310  21.784  0.00  0.00    +0.000 C 
ATOM     17  C   UNL     1      -3.945  13.988  23.285  0.00  0.00    +0.000 C 
ATOM     18  C   UNL     1      -2.558  13.707  23.889  0.00  0.00    +0.000 C 
ATOM     19  C   UNL     1      -1.763  12.698  23.054  0.00  0.00    +0.000 C 
BRANCH  17  20
ATOM     20  C   UNL     1      -4.900  12.836  23.543  0.00  0.00    +0.000 C 
ATOM     21  N   UNL     1      -4.856  12.311  24.802  0.00  0.00    +0.000 N 
ATOM     22  O   UNL     1      -5.674  12.373  22.713  0.00  0.00    +0.000 OA
ATOM     23  H   UNL     1      -4.125  12.533  25.464  0.00  0.00    +0.000 HD
ATOM     24  H   UNL     1      -5.434  11.498  24.987  0.00  0.00    +0.000 HD
ENDBRANCH  17  20
ENDBRANCH   6  14
BRANCH   1  26
ATOM     25  N   UNL     1       0.623  15.861  22.105  0.00  0.00    +0.000 NA
ATOM     26  C   UNL     1       0.550  14.883  21.482  0.00  0.00    +0.000 C 
ENDBRANCH   1  26
BRANCH   4  27
ATOM     27  S   UNL     1       0.165   9.897  18.330  0.00  0.00    +0.000 S 
BRANCH  27  28
ATOM     28  C   UNL     1       1.915   9.655  17.889  0.00  0.00    +0.000 C 
BRANCH  28  29
ATOM     29  C   UNL     1       2.409   8.298  18.354  0.00  0.00    +0.000 A 
ATOM     30  C   UNL     1       3.322   7.564  17.582  0.00  0.00    +0.000 A 
ATOM     31  C   UNL     1       3.751   6.297  17.992  0.00  0.00    +0.000 A 
ATOM     32  C   UNL     1       3.268   5.747  19.177  0.00  0.00    +0.000 A 
ATOM     33  C   UNL     1       2.360   6.462  19.954  0.00  0.00    +0.000 A 
ATOM     34  C   UNL     1       1.930   7.729  19.546  0.00  0.00    +0.000 A 
ENDBRANCH  28  29
ENDBRANCH  27  28
ENDBRANCH   4  27
TORSDOF 7
ENDMDL
MODEL 7
REMARK VINA RESULT:      -6.5      3.693      7.183
REMARK  Name = 
REMARK  7 active torsions:
REMARK  status: ('A' for Active; 'I' for Inactive)
REMARK    1  A    between atoms: C_2  and  C_3
REMARK    2  A    between atoms: C_4  and  C_5
REMARK    3  A    between atoms: C_13  and  S_14
REMARK    4  A    between atoms: S_14  and  C_15
REMARK    5  A    between atoms: C_15  and  C_16
REMARK    6  A    between atoms: C_23  and  N_24
REMARK    7  A    between atoms: C_27  and  C_28
REMARK                            x       y       z     vdW  Elec       q    Type
REMARK                         _______ _______ _______ _____ _____    ______ ____
ROOT
ATOM      1  C   UNL     1       0.198  12.781  18.720  0.00  0.00    +0.000 A 
ATOM      2  C   UNL     1      -0.590  11.693  18.363  0.00  0.00    +0.000 A 
ATOM      3  N   UNL     1      -0.037  10.476  18.139  0.00  0.00    +0.000 NA
ATOM      4  C   UNL     1       1.291  10.344  18.281  0.00  0.00    +0.000 A 
ATOM      5  N   UNL     1       2.116  11.338  18.638  0.00  0.00    +0.000 NA
ATOM      6  C   UNL     1       1.573  12.559  18.845  0.00  0.00    +0.000 A 
ENDROOT
BRANCH   2   7
ATOM      7  C   UNL     1      -2.079  11.707  18.286  0.00  0.00    +0.000 A 
ATOM      8  C   UNL     1      -2.902  12.082  19.367  0.00  0.00    +0.000 A 
ATOM      9  C   UNL     1      -4.297  11.977  19.300  0.00  0.00    +0.000 A 
ATOM     10  C   UNL     1      -4.906  11.546  18.128  0.00  0.00    +0.000 A 
ATOM     11 CL   UNL     1      -6.617  11.412  18.050  0.00  0.00    +0.000 Cl
ATOM     12  C   UNL     1      -4.129  11.229  17.020  0.00  0.00    +0.000 A 
ATOM     13  C   UNL     1      -2.732  11.306  17.101  0.00  0.00    +0.000 A 
ENDBRANCH   2   7
BRANCH   6  14
ATOM     14  N   UNL     1       2.399  13.582  19.325  0.00  0.00    +0.000 N 
ATOM     15  C   UNL     1       2.799  13.496  20.727  0.00  0.00    +0.000 C 
ATOM     16  C   UNL     1       3.070  14.925  21.206  0.00  0.00    +0.000 C 
ATOM     17  C   UNL     1       4.120  15.635  20.334  0.00  0.00    +0.000 C 
ATOM     18  C   UNL     1       3.782  15.509  18.838  0.00  0.00    +0.000 C 
ATOM     19  C   UNL     1       3.473  14.061  18.440  0.00  0.00    +0.000 C 
BRANCH  17  20
ATOM     20  C   UNL     1       5.520  15.127  20.626  0.00  0.00    +0.000 C 
ATOM     21  N   UNL     1       5.761  14.792  21.927  0.00  0.00    +0.000 N 
ATOM     22  O   UNL     1       6.407  15.007  19.788  0.00  0.00    +0.000 OA
ATOM     23  H   UNL     1       5.131  15.033  22.681  0.00  0.00    +0.000 HD
ATOM     24  H   UNL     1       6.705  14.512  22.167  0.00  0.00    +0.000 HD
ENDBRANCH  17  20
ENDBRANCH   6  14
BRANCH   1  26
ATOM     25  N   UNL     1      -0.863  15.074  19.304  0.00  0.00    +0.000 NA
ATOM     26  C   UNL     1      -0.364  14.052  19.066  0.00  0.00    +0.000 C 
ENDBRANCH   1  26
BRANCH   4  27
ATOM     27  S   UNL     1       1.943   8.730  17.928  0.00  0.00    +0.000 S 
BRANCH  27  28
ATOM     28  C   UNL     1       2.027   7.994  19.592  0.00  0.00    +0.000 C 
BRANCH  28  29
ATOM     29  C   UNL     1       2.034   6.479  19.516  0.00  0.00    +0.000 A 
ATOM     30  C   UNL     1       2.331   5.823  18.311  0.00  0.00    +0.000 A 
ATOM     31  C   UNL     1       2.302   4.426  18.231  0.00  0.00    +0.000 A 
ATOM     32  C   UNL     1       1.971   3.669  19.352  0.00  0.00    +0.000 A 
ATOM     33  C   UNL     1       1.672   4.305  20.555  0.00  0.00    +0.000 A 
ATOM     34  C   UNL     1       1.701   5.702  20.638  0.00  0.00    +0.000 A 
ENDBRANCH  28  29
ENDBRANCH  27  28
ENDBRANCH   4  27
TORSDOF 7
ENDMDL
MODEL 8
REMARK VINA RESULT:      -6.5      3.930      7.590
REMARK  Name = 
REMARK  7 active torsions:
REMARK  status: ('A' for Active; 'I' for Inactive)
REMARK    1  A    between atoms: C_2  and  C_3
REMARK    2  A    between atoms: C_4  and  C_5
REMARK    3  A    between atoms: C_13  and  S_14
REMARK    4  A    between atoms: S_14  and  C_15
REMARK    5  A    between atoms: C_15  and  C_16
REMARK    6  A    between atoms: C_23  and  N_24
REMARK    7  A    between atoms: C_27  and  C_28
REMARK                            x       y       z     vdW  Elec       q    Type
REMARK                         _______ _______ _______ _____ _____    ______ ____
ROOT
ATOM      1  C   UNL     1      -0.145  13.194  20.549  0.00  0.00    +0.000 A 
ATOM      2  C   UNL     1      -0.974  12.181  21.015  0.00  0.00    +0.000 A 
ATOM      3  N   UNL     1      -0.590  10.883  20.954  0.00  0.00    +0.000 NA
ATOM      4  C   UNL     1       0.617  10.599  20.441  0.00  0.00    +0.000 A 
ATOM      5  N   UNL     1       1.480  11.517  19.987  0.00  0.00    +0.000 NA
ATOM      6  C   UNL     1       1.096  12.814  20.029  0.00  0.00    +0.000 A 
ENDROOT
BRANCH   2   7
ATOM      7  C   UNL     1      -2.281  12.396  21.700  0.00  0.00    +0.000 A 
ATOM      8  C   UNL     1      -3.456  12.768  21.016  0.00  0.00    +0.000 A 
ATOM      9  C   UNL     1      -4.641  13.071  21.699  0.00  0.00    +0.000 A 
ATOM     10  C   UNL     1      -4.693  12.955  23.082  0.00  0.00    +0.000 A 
ATOM     11 CL   UNL     1      -6.146  13.333  23.920  0.00  0.00    +0.000 Cl
ATOM     12  C   UNL     1      -3.573  12.528  23.785  0.00  0.00    +0.000 A 
ATOM     13  C   UNL     1      -2.381  12.256  23.100  0.00  0.00    +0.000 A 
ENDBRANCH   2   7
BRANCH   6  14
ATOM     14  N   UNL     1       2.024  13.795  19.663  0.00  0.00    +0.000 N 
ATOM     15  C   UNL     1       3.060  14.112  20.643  0.00  0.00    +0.000 C 
ATOM     16  C   UNL     1       3.494  15.558  20.386  0.00  0.00    +0.000 C 
ATOM     17  C   UNL     1       3.965  15.771  18.937  0.00  0.00    +0.000 C 
ATOM     18  C   UNL     1       2.943  15.215  17.930  0.00  0.00    +0.000 C 
ATOM     19  C   UNL     1       2.517  13.784  18.277  0.00  0.00    +0.000 C 
BRANCH  17  20
ATOM     20  C   UNL     1       5.342  15.174  18.708  0.00  0.00    +0.000 C 
ATOM     21  N   UNL     1       6.221  15.320  19.742  0.00  0.00    +0.000 N 
ATOM     22  O   UNL     1       5.689  14.594  17.686  0.00  0.00    +0.000 OA
ATOM     23  H   UNL     1       6.048  15.934  20.527  0.00  0.00    +0.000 HD
ATOM     24  H   UNL     1       7.169  14.991  19.596  0.00  0.00    +0.000 HD
ENDBRANCH  17  20
ENDBRANCH   6  14
BRANCH   1  26
ATOM     25  N   UNL     1      -0.779  15.699  20.767  0.00  0.00    +0.000 NA
ATOM     26  C   UNL     1      -0.474  14.581  20.696  0.00  0.00    +0.000 C 
ENDBRANCH   1  26
BRANCH   4  27
ATOM     27  S   UNL     1       1.027   8.873  20.356  0.00  0.00    +0.000 S 
BRANCH  27  28
ATOM     28  C   UNL     1       1.718   8.740  18.676  0.00  0.00    +0.000 C 
BRANCH  28  29
ATOM     29  C   UNL     1       2.604   7.515  18.549  0.00  0.00    +0.000 A 
ATOM     30  C   UNL     1       3.558   7.424  17.524  0.00  0.00    +0.000 A 
ATOM     31  C   UNL     1       4.351   6.280  17.385  0.00  0.00    +0.000 A 
ATOM     32  C   UNL     1       4.196   5.211  18.265  0.00  0.00    +0.000 A 
ATOM     33  C   UNL     1       3.252   5.285  19.286  0.00  0.00    +0.000 A 
ATOM     34  C   UNL     1       2.458   6.429  19.428  0.00  0.00    +0.000 A 
ENDBRANCH  28  29
ENDBRANCH  27  28
ENDBRANCH   4  27
TORSDOF 7
ENDMDL
MODEL 9
REMARK VINA RESULT:      -6.4      3.969      7.501
REMARK  Name = 
REMARK  7 active torsions:
REMARK  status: ('A' for Active; 'I' for Inactive)
REMARK    1  A    between atoms: C_2  and  C_3
REMARK    2  A    between atoms: C_4  and  C_5
REMARK    3  A    between atoms: C_13  and  S_14
REMARK    4  A    between atoms: S_14  and  C_15
REMARK    5  A    between atoms: C_15  and  C_16
REMARK    6  A    between atoms: C_23  and  N_24
REMARK    7  A    between atoms: C_27  and  C_28
REMARK                            x       y       z     vdW  Elec       q    Type
REMARK                         _______ _______ _______ _____ _____    ______ ____
ROOT
ATOM      1  C   UNL     1      -0.292  13.083  20.779  0.00  0.00    +0.000 A 
ATOM      2  C   UNL     1      -1.112  12.109  21.335  0.00  0.00    +0.000 A 
ATOM      3  N   UNL     1      -0.689  10.826  21.451  0.00  0.00    +0.000 NA
ATOM      4  C   UNL     1       0.547  10.521  21.027  0.00  0.00    +0.000 A 
ATOM      5  N   UNL     1       1.403  11.404  20.497  0.00  0.00    +0.000 NA
ATOM      6  C   UNL     1       0.982  12.682  20.361  0.00  0.00    +0.000 A 
ENDROOT
BRANCH   2   7
ATOM      7  C   UNL     1      -2.453  12.363  21.933  0.00  0.00    +0.000 A 
ATOM      8  C   UNL     1      -3.578  12.736  21.171  0.00  0.00    +0.000 A 
ATOM      9  C   UNL     1      -4.796  13.076  21.773  0.00  0.00    +0.000 A 
ATOM     10  C   UNL     1      -4.933  12.998  23.154  0.00  0.00    +0.000 A 
ATOM     11 CL   UNL     1      -6.426  13.422  23.893  0.00  0.00    +0.000 Cl
ATOM     12  C   UNL     1      -3.864  12.572  23.933  0.00  0.00    +0.000 A 
ATOM     13  C   UNL     1      -2.639  12.262  23.328  0.00  0.00    +0.000 A 
ENDBRANCH   2   7
BRANCH   6  14
ATOM     14  N   UNL     1       1.897  13.641  19.913  0.00  0.00    +0.000 N 
ATOM     15  C   UNL     1       2.965  14.008  20.839  0.00  0.00    +0.000 C 
ATOM     16  C   UNL     1       3.391  15.437  20.492  0.00  0.00    +0.000 C 
ATOM     17  C   UNL     1       3.813  15.572  19.019  0.00  0.00    +0.000 C 
ATOM     18  C   UNL     1       2.758  14.965  18.077  0.00  0.00    +0.000 C 
ATOM     19  C   UNL     1       2.343  13.555  18.513  0.00  0.00    +0.000 C 
BRANCH  17  20
ATOM     20  C   UNL     1       5.182  14.961  18.777  0.00  0.00    +0.000 C 
ATOM     21  N   UNL     1       6.063  15.071  19.814  0.00  0.00    +0.000 N 
ATOM     22  O   UNL     1       5.521  14.400  17.742  0.00  0.00    +0.000 OA
ATOM     23  H   UNL     1       5.898  15.668  20.613  0.00  0.00    +0.000 HD
ATOM     24  H   UNL     1       7.005  14.731  19.660  0.00  0.00    +0.000 HD
ENDBRANCH  17  20
ENDBRANCH   6  14
BRANCH   1  26
ATOM     25  N   UNL     1      -1.021  15.569  20.678  0.00  0.00    +0.000 NA
ATOM     26  C   UNL     1      -0.665  14.465  20.738  0.00  0.00    +0.000 C 
ENDBRANCH   1  26
BRANCH   4  27
ATOM     27  S   UNL     1       1.008   8.812  21.176  0.00  0.00    +0.000 S 
BRANCH  27  28
ATOM     28  C   UNL     1       1.742   8.485  19.541  0.00  0.00    +0.000 C 
BRANCH  28  29
ATOM     29  C   UNL     1       2.138   7.027  19.406  0.00  0.00    +0.000 A 
ATOM     30  C   UNL     1       1.919   6.124  20.458  0.00  0.00    +0.000 A 
ATOM     31  C   UNL     1       2.316   4.787  20.348  0.00  0.00    +0.000 A 
ATOM     32  C   UNL     1       2.941   4.337  19.187  0.00  0.00    +0.000 A 
ATOM     33  C   UNL     1       3.167   5.221  18.135  0.00  0.00    +0.000 A 
ATOM     34  C   UNL     1       2.770   6.559  18.242  0.00  0.00    +0.000 A 
ENDBRANCH  28  29
ENDBRANCH  27  28
ENDBRANCH   4  27
TORSDOF 7
ENDMDL
