MODEL 1
REMARK VINA RESULT:      -7.9      0.000      0.000
REMARK  Name = 
REMARK  9 active torsions:
REMARK  status: ('A' for Active; 'I' for Inactive)
REMARK    1  A    between atoms: C_1  and  C_2
REMARK    2  A    between atoms: C_3  and  C_4
REMARK    3  A    between atoms: C_4  and  C_5
REMARK    4  A    between atoms: C_5  and  C_6
REMARK    5  A    between atoms: N_8  and  C_9
REMARK    6  A    between atoms: C_9  and  C_10
REMARK    7  A    between atoms: C_10  and  N_11
REMARK    8  A    between atoms: C_21  and  C_22
REMARK    9  A    between atoms: C_24  and  O_25
REMARK                            x       y       z     vdW  Elec       q    Type
REMARK                         _______ _______ _______ _____ _____    ______ ____
ROOT
ATOM      1  C   UNL     1       4.819   5.148  15.659  0.00  0.00    +0.000 C 
ATOM      2  C   UNL     1       4.922   4.878  17.141  0.00  0.00    +0.000 A 
ATOM      3  C   UNL     1       5.996   5.219  17.888  0.00  0.00    +0.000 A 
ATOM      4  C   UNL     1       6.037   4.961  19.353  0.00  0.00    +0.000 A 
ATOM      5  O   UNL     1       7.006   5.272  20.038  0.00  0.00    +0.000 OA
ATOM      6  O   UNL     1       4.925   4.366  19.924  0.00  0.00    +0.000 OA
ATOM      7  C   UNL     1       3.797   3.995  19.170  0.00  0.00    +0.000 A 
ATOM      8  C   UNL     1       2.724   3.392  19.848  0.00  0.00    +0.000 A 
ATOM      9  C   UNL     1       1.595   3.004  19.122  0.00  0.00    +0.000 A 
ATOM     10  C   UNL     1       1.542   3.215  17.750  0.00  0.00    +0.000 A 
ATOM     11  C   UNL     1       2.619   3.821  17.092  0.00  0.00    +0.000 A 
ATOM     12  C   UNL     1       3.764   4.225  17.793  0.00  0.00    +0.000 A 
ENDROOT
BRANCH   8  13
ATOM     13  C   UNL     1       2.789   3.172  21.305  0.00  0.00    +0.000 C 
ATOM     14  O   UNL     1       1.780   3.284  21.998  0.00  0.00    +0.000 OA
ENDBRANCH   8  13
BRANCH   9  15
ATOM     15  O   UNL     1       0.502   2.410  19.690  0.00  0.00    +0.000 OA
ATOM     16  H   UNL     1       0.813   1.664  20.253  0.00  0.00    +0.000 HD
ENDBRANCH   9  15
BRANCH   3  17
ATOM     17  C   UNL     1       7.252   5.867  17.344  0.00  0.00    +0.000 C 
BRANCH  17  18
ATOM     18  C   UNL     1       7.097   7.381  17.208  0.00  0.00    +0.000 C 
BRANCH  18  19
ATOM     19  C   UNL     1       8.089   8.069  18.115  0.00  0.00    +0.000 C 
ATOM     20  O   UNL     1       8.698   7.456  18.986  0.00  0.00    +0.000 OA
ATOM     21  N   UNL     1       8.209   9.423  17.907  0.00  0.00    +0.000 N 
ATOM     22  H   UNL     1       7.525   9.889  17.321  0.00  0.00    +0.000 HD
BRANCH  21  23
ATOM     23  C   UNL     1       9.025  10.253  18.778  0.00  0.00    +0.000 C 
BRANCH  23  24
ATOM     24  C   UNL     1       9.760  11.395  18.038  0.00  0.00    +0.000 C 
BRANCH  24  25
ATOM     25  N   UNL     1      11.159  11.596  18.459  0.00  0.00    +0.000 NA
ATOM     26  C   UNL     1      11.242  11.895  19.911  0.00  0.00    +0.000 C 
ATOM     27  C   UNL     1      10.919  13.351  20.297  0.00  0.00    +0.000 C 
ATOM     28  O   UNL     1      11.709  14.282  19.551  0.00  0.00    +0.000 OA
ATOM     29  C   UNL     1      11.496  14.097  18.148  0.00  0.00    +0.000 C 
ATOM     30  C   UNL     1      11.867  12.668  17.723  0.00  0.00    +0.000 C 
ENDBRANCH  24  25
ENDBRANCH  23  24
ENDBRANCH  21  23
ENDBRANCH  18  19
ENDBRANCH  17  18
ENDBRANCH   3  17
TORSDOF 8
ENDMDL
MODEL 2
REMARK VINA RESULT:      -7.8      0.594      1.097
REMARK  Name = 
REMARK  9 active torsions:
REMARK  status: ('A' for Active; 'I' for Inactive)
REMARK    1  A    between atoms: C_1  and  C_2
REMARK    2  A    between atoms: C_3  and  C_4
REMARK    3  A    between atoms: C_4  and  C_5
REMARK    4  A    between atoms: C_5  and  C_6
REMARK    5  A    between atoms: N_8  and  C_9
REMARK    6  A    between atoms: C_9  and  C_10
REMARK    7  A    between atoms: C_10  and  N_11
REMARK    8  A    between atoms: C_21  and  C_22
REMARK    9  A    between atoms: C_24  and  O_25
REMARK                            x       y       z     vdW  Elec       q    Type
REMARK                         _______ _______ _______ _____ _____    ______ ____
ROOT
ATOM      1  C   UNL     1       4.781   5.451  15.770  0.00  0.00    +0.000 C 
ATOM      2  C   UNL     1       4.912   5.119  17.237  0.00  0.00    +0.000 A 
ATOM      3  C   UNL     1       6.021   5.383  17.965  0.00  0.00    +0.000 A 
ATOM      4  C   UNL     1       6.090   5.066  19.417  0.00  0.00    +0.000 A 
ATOM      5  O   UNL     1       7.091   5.307  20.084  0.00  0.00    +0.000 OA
ATOM      6  O   UNL     1       4.969   4.499  19.998  0.00  0.00    +0.000 OA
ATOM      7  C   UNL     1       3.806   4.207  19.264  0.00  0.00    +0.000 A 
ATOM      8  C   UNL     1       2.726   3.626  19.950  0.00  0.00    +0.000 A 
ATOM      9  C   UNL     1       1.561   3.316  19.243  0.00  0.00    +0.000 A 
ATOM     10  C   UNL     1       1.480   3.583  17.882  0.00  0.00    +0.000 A 
ATOM     11  C   UNL     1       2.564   4.166  17.216  0.00  0.00    +0.000 A 
ATOM     12  C   UNL     1       3.745   4.492  17.898  0.00  0.00    +0.000 A 
ENDROOT
BRANCH   8  13
ATOM     13  C   UNL     1       2.821   3.346  21.395  0.00  0.00    +0.000 C 
ATOM     14  O   UNL     1       1.805   3.237  22.077  0.00  0.00    +0.000 OA
ENDBRANCH   8  13
BRANCH   9  15
ATOM     15  O   UNL     1       0.459   2.749  19.820  0.00  0.00    +0.000 OA
ATOM     16  H   UNL     1       0.525   1.771  19.720  0.00  0.00    +0.000 HD
ENDBRANCH   9  15
BRANCH   3  17
ATOM     17  C   UNL     1       7.289   5.996  17.409  0.00  0.00    +0.000 C 
BRANCH  17  18
ATOM     18  C   UNL     1       7.158   7.508  17.229  0.00  0.00    +0.000 C 
BRANCH  18  19
ATOM     19  C   UNL     1       8.145   8.207  18.133  0.00  0.00    +0.000 C 
ATOM     20  O   UNL     1       8.730   7.610  19.032  0.00  0.00    +0.000 OA
ATOM     21  N   UNL     1       8.290   9.553  17.888  0.00  0.00    +0.000 N 
ATOM     22  H   UNL     1       7.623  10.011  17.278  0.00  0.00    +0.000 HD
BRANCH  21  23
ATOM     23  C   UNL     1       9.104  10.395  18.749  0.00  0.00    +0.000 C 
BRANCH  23  24
ATOM     24  C   UNL     1      10.034  11.359  17.975  0.00  0.00    +0.000 C 
BRANCH  24  25
ATOM     25  N   UNL     1       9.729  12.789  18.168  0.00  0.00    +0.000 NA
ATOM     26  C   UNL     1      10.811  13.644  17.619  0.00  0.00    +0.000 C 
ATOM     27  C   UNL     1      12.052  13.788  18.523  0.00  0.00    +0.000 C 
ATOM     28  O   UNL     1      11.696  14.219  19.841  0.00  0.00    +0.000 OA
ATOM     29  C   UNL     1      10.775  13.295  20.430  0.00  0.00    +0.000 C 
ATOM     30  C   UNL     1       9.501  13.176  19.578  0.00  0.00    +0.000 C 
ENDBRANCH  24  25
ENDBRANCH  23  24
ENDBRANCH  21  23
ENDBRANCH  18  19
ENDBRANCH  17  18
ENDBRANCH   3  17
TORSDOF 8
ENDMDL
MODEL 3
REMARK VINA RESULT:      -7.7      1.461      1.716
REMARK  Name = 
REMARK  9 active torsions:
REMARK  status: ('A' for Active; 'I' for Inactive)
REMARK    1  A    between atoms: C_1  and  C_2
REMARK    2  A    between atoms: C_3  and  C_4
REMARK    3  A    between atoms: C_4  and  C_5
REMARK    4  A    between atoms: C_5  and  C_6
REMARK    5  A    between atoms: N_8  and  C_9
REMARK    6  A    between atoms: C_9  and  C_10
REMARK    7  A    between atoms: C_10  and  N_11
REMARK    8  A    between atoms: C_21  and  C_22
REMARK    9  A    between atoms: C_24  and  O_25
REMARK                            x       y       z     vdW  Elec       q    Type
REMARK                         _______ _______ _______ _____ _____    ______ ____
ROOT
ATOM      1  C   UNL     1       5.280   5.775  15.547  0.00  0.00    +0.000 C 
ATOM      2  C   UNL     1       5.468   5.280  16.962  0.00  0.00    +0.000 A 
ATOM      3  C   UNL     1       6.472   5.692  17.769  0.00  0.00    +0.000 A 
ATOM      4  C   UNL     1       6.596   5.197  19.167  0.00  0.00    +0.000 A 
ATOM      5  O   UNL     1       7.501   5.571  19.906  0.00  0.00    +0.000 OA
ATOM      6  O   UNL     1       5.635   4.307  19.613  0.00  0.00    +0.000 OA
ATOM      7  C   UNL     1       4.585   3.856  18.794  0.00  0.00    +0.000 A 
ATOM      8  C   UNL     1       3.667   2.946  19.344  0.00  0.00    +0.000 A 
ATOM      9  C   UNL     1       2.620   2.474  18.549  0.00  0.00    +0.000 A 
ATOM     10  C   UNL     1       2.495   2.904  17.234  0.00  0.00    +0.000 A 
ATOM     11  C   UNL     1       3.417   3.814  16.704  0.00  0.00    +0.000 A 
ATOM     12  C   UNL     1       4.476   4.309  17.477  0.00  0.00    +0.000 A 
ENDROOT
BRANCH   8  13
ATOM     13  C   UNL     1       3.807   2.495  20.742  0.00  0.00    +0.000 C 
ATOM     14  O   UNL     1       2.858   2.568  21.519  0.00  0.00    +0.000 OA
ENDBRANCH   8  13
BRANCH   9  15
ATOM     15  O   UNL     1       1.678   1.588  18.993  0.00  0.00    +0.000 OA
ATOM     16  H   UNL     1       1.217   1.988  19.765  0.00  0.00    +0.000 HD
ENDBRANCH   9  15
BRANCH   3  17
ATOM     17  C   UNL     1       7.563   6.658  17.360  0.00  0.00    +0.000 C 
BRANCH  17  18
ATOM     18  C   UNL     1       7.144   8.111  17.572  0.00  0.00    +0.000 C 
BRANCH  18  19
ATOM     19  C   UNL     1       8.290   8.879  18.186  0.00  0.00    +0.000 C 
ATOM     20  O   UNL     1       8.950   8.418  19.113  0.00  0.00    +0.000 OA
ATOM     21  N   UNL     1       8.491  10.130  17.653  0.00  0.00    +0.000 N 
ATOM     22  H   UNL     1       7.780  10.521  17.045  0.00  0.00    +0.000 HD
BRANCH  21  23
ATOM     23  C   UNL     1       9.470  11.045  18.217  0.00  0.00    +0.000 C 
BRANCH  23  24
ATOM     24  C   UNL     1       8.909  12.459  18.497  0.00  0.00    +0.000 C 
BRANCH  24  25
ATOM     25  N   UNL     1       9.808  13.331  19.276  0.00  0.00    +0.000 NA
ATOM     26  C   UNL     1      10.418  12.591  20.410  0.00  0.00    +0.000 C 
ATOM     27  C   UNL     1       9.511  12.424  21.645  0.00  0.00    +0.000 C 
ATOM     28  O   UNL     1       8.993  13.682  22.092  0.00  0.00    +0.000 OA
ATOM     29  C   UNL     1       8.261  14.316  21.038  0.00  0.00    +0.000 C 
ATOM     30  C   UNL     1       9.159  14.548  19.812  0.00  0.00    +0.000 C 
ENDBRANCH  24  25
ENDBRANCH  23  24
ENDBRANCH  21  23
ENDBRANCH  18  19
ENDBRANCH  17  18
ENDBRANCH   3  17
TORSDOF 8
ENDMDL
MODEL 4
REMARK VINA RESULT:      -7.6      1.617      1.822
REMARK  Name = 
REMARK  9 active torsions:
REMARK  status: ('A' for Active; 'I' for Inactive)
REMARK    1  A    between atoms: C_1  and  C_2
REMARK    2  A    between atoms: C_3  and  C_4
REMARK    3  A    between atoms: C_4  and  C_5
REMARK    4  A    between atoms: C_5  and  C_6
REMARK    5  A    between atoms: N_8  and  C_9
REMARK    6  A    between atoms: C_9  and  C_10
REMARK    7  A    between atoms: C_10  and  N_11
REMARK    8  A    between atoms: C_21  and  C_22
REMARK    9  A    between atoms: C_24  and  O_25
REMARK                            x       y       z     vdW  Elec       q    Type
REMARK                         _______ _______ _______ _____ _____    ______ ____
ROOT
ATOM      1  C   UNL     1       3.936   7.596  17.407  0.00  0.00    +0.000 C 
ATOM      2  C   UNL     1       4.664   6.364  17.890  0.00  0.00    +0.000 A 
ATOM      3  C   UNL     1       6.007   6.218  17.826  0.00  0.00    +0.000 A 
ATOM      4  C   UNL     1       6.681   4.997  18.345  0.00  0.00    +0.000 A 
ATOM      5  O   UNL     1       7.899   4.861  18.295  0.00  0.00    +0.000 OA
ATOM      6  O   UNL     1       5.879   4.020  18.908  0.00  0.00    +0.000 OA
ATOM      7  C   UNL     1       4.480   4.141  18.981  0.00  0.00    +0.000 A 
ATOM      8  C   UNL     1       3.759   3.087  19.567  0.00  0.00    +0.000 A 
ATOM      9  C   UNL     1       2.367   3.178  19.644  0.00  0.00    +0.000 A 
ATOM     10  C   UNL     1       1.713   4.298  19.146  0.00  0.00    +0.000 A 
ATOM     11  C   UNL     1       2.447   5.340  18.570  0.00  0.00    +0.000 A 
ATOM     12  C   UNL     1       3.846   5.281  18.482  0.00  0.00    +0.000 A 
ENDROOT
BRANCH   8  13
ATOM     13  C   UNL     1       4.462   1.902  20.093  0.00  0.00    +0.000 C 
ATOM     14  O   UNL     1       4.730   1.815  21.289  0.00  0.00    +0.000 OA
ENDBRANCH   8  13
BRANCH   9  15
ATOM     15  O   UNL     1       1.578   2.205  20.194  0.00  0.00    +0.000 OA
ATOM     16  H   UNL     1       0.645   2.520  20.182  0.00  0.00    +0.000 HD
ENDBRANCH   9  15
BRANCH   3  17
ATOM     17  C   UNL     1       6.955   7.234  17.224  0.00  0.00    +0.000 C 
BRANCH  17  18
ATOM     18  C   UNL     1       8.130   7.534  18.153  0.00  0.00    +0.000 C 
BRANCH  18  19
ATOM     19  C   UNL     1       8.272   9.029  18.314  0.00  0.00    +0.000 C 
ATOM     20  O   UNL     1       7.641   9.815  17.613  0.00  0.00    +0.000 OA
ATOM     21  N   UNL     1       9.187   9.417  19.265  0.00  0.00    +0.000 N 
ATOM     22  H   UNL     1       9.817   8.721  19.647  0.00  0.00    +0.000 HD
BRANCH  21  23
ATOM     23  C   UNL     1       9.535  10.816  19.453  0.00  0.00    +0.000 C 
BRANCH  23  24
ATOM     24  C   UNL     1      10.699  11.293  18.553  0.00  0.00    +0.000 C 
BRANCH  24  25
ATOM     25  N   UNL     1      11.312  12.567  18.970  0.00  0.00    +0.000 NA
ATOM     26  C   UNL     1      10.275  13.595  19.241  0.00  0.00    +0.000 C 
ATOM     27  C   UNL     1       9.696  14.284  17.990  0.00  0.00    +0.000 C 
ATOM     28  O   UNL     1      10.729  14.826  17.161  0.00  0.00    +0.000 OA
ATOM     29  C   UNL     1      11.636  13.792  16.765  0.00  0.00    +0.000 C 
ATOM     30  C   UNL     1      12.275  13.126  17.994  0.00  0.00    +0.000 C 
ENDBRANCH  24  25
ENDBRANCH  23  24
ENDBRANCH  21  23
ENDBRANCH  18  19
ENDBRANCH  17  18
ENDBRANCH   3  17
TORSDOF 8
ENDMDL
MODEL 5
REMARK VINA RESULT:      -7.6      1.498      1.734
REMARK  Name = 
REMARK  9 active torsions:
REMARK  status: ('A' for Active; 'I' for Inactive)
REMARK    1  A    between atoms: C_1  and  C_2
REMARK    2  A    between atoms: C_3  and  C_4
REMARK    3  A    between atoms: C_4  and  C_5
REMARK    4  A    between atoms: C_5  and  C_6
REMARK    5  A    between atoms: N_8  and  C_9
REMARK    6  A    between atoms: C_9  and  C_10
REMARK    7  A    between atoms: C_10  and  N_11
REMARK    8  A    between atoms: C_21  and  C_22
REMARK    9  A    between atoms: C_24  and  O_25
REMARK                            x       y       z     vdW  Elec       q    Type
REMARK                         _______ _______ _______ _____ _____    ______ ____
ROOT
ATOM      1  C   UNL     1       4.142   7.253  16.936  0.00  0.00    +0.000 C 
ATOM      2  C   UNL     1       4.783   6.060  17.604  0.00  0.00    +0.000 A 
ATOM      3  C   UNL     1       6.113   5.816  17.578  0.00  0.00    +0.000 A 
ATOM      4  C   UNL     1       6.701   4.642  18.279  0.00  0.00    +0.000 A 
ATOM      5  O   UNL     1       7.906   4.418  18.264  0.00  0.00    +0.000 OA
ATOM      6  O   UNL     1       5.832   3.815  18.970  0.00  0.00    +0.000 OA
ATOM      7  C   UNL     1       4.445   4.041  19.009  0.00  0.00    +0.000 A 
ATOM      8  C   UNL     1       3.652   3.136  19.735  0.00  0.00    +0.000 A 
ATOM      9  C   UNL     1       2.270   3.331  19.781  0.00  0.00    +0.000 A 
ATOM     10  C   UNL     1       1.695   4.407  19.117  0.00  0.00    +0.000 A 
ATOM     11  C   UNL     1       2.500   5.300  18.402  0.00  0.00    +0.000 A 
ATOM     12  C   UNL     1       3.891   5.135  18.339  0.00  0.00    +0.000 A 
ENDROOT
BRANCH   8  13
ATOM     13  C   UNL     1       4.272   1.996  20.438  0.00  0.00    +0.000 C 
ATOM     14  O   UNL     1       4.108   1.846  21.646  0.00  0.00    +0.000 OA
ENDBRANCH   8  13
BRANCH   9  15
ATOM     15  O   UNL     1       1.415   2.506  20.460  0.00  0.00    +0.000 OA
ATOM     16  H   UNL     1       1.952   1.888  21.006  0.00  0.00    +0.000 HD
ENDBRANCH   9  15
BRANCH   3  17
ATOM     17  C   UNL     1       7.129   6.665  16.844  0.00  0.00    +0.000 C 
BRANCH  17  18
ATOM     18  C   UNL     1       7.042   8.134  17.253  0.00  0.00    +0.000 C 
BRANCH  18  19
ATOM     19  C   UNL     1       8.148   8.449  18.232  0.00  0.00    +0.000 C 
ATOM     20  O   UNL     1       8.676   7.572  18.909  0.00  0.00    +0.000 OA
ATOM     21  N   UNL     1       8.469   9.783  18.323  0.00  0.00    +0.000 N 
ATOM     22  H   UNL     1       7.850  10.463  17.896  0.00  0.00    +0.000 HD
BRANCH  21  23
ATOM     23  C   UNL     1       9.422  10.266  19.309  0.00  0.00    +0.000 C 
BRANCH  23  24
ATOM     24  C   UNL     1       9.595  11.804  19.302  0.00  0.00    +0.000 C 
BRANCH  24  25
ATOM     25  N   UNL     1       9.445  12.430  17.976  0.00  0.00    +0.000 NA
ATOM     26  C   UNL     1      10.768  12.667  17.345  0.00  0.00    +0.000 C 
ATOM     27  C   UNL     1      11.518  13.916  17.849  0.00  0.00    +0.000 C 
ATOM     28  O   UNL     1      10.705  15.091  17.758  0.00  0.00    +0.000 OA
ATOM     29  C   UNL     1       9.500  14.916  18.510  0.00  0.00    +0.000 C 
ATOM     30  C   UNL     1       8.702  13.710  17.990  0.00  0.00    +0.000 C 
ENDBRANCH  24  25
ENDBRANCH  23  24
ENDBRANCH  21  23
ENDBRANCH  18  19
ENDBRANCH  17  18
ENDBRANCH   3  17
TORSDOF 8
ENDMDL
MODEL 6
REMARK VINA RESULT:      -7.5      1.262      1.411
REMARK  Name = 
REMARK  9 active torsions:
REMARK  status: ('A' for Active; 'I' for Inactive)
REMARK    1  A    between atoms: C_1  and  C_2
REMARK    2  A    between atoms: C_3  and  C_4
REMARK    3  A    between atoms: C_4  and  C_5
REMARK    4  A    between atoms: C_5  and  C_6
REMARK    5  A    between atoms: N_8  and  C_9
REMARK    6  A    between atoms: C_9  and  C_10
REMARK    7  A    between atoms: C_10  and  N_11
REMARK    8  A    between atoms: C_21  and  C_22
REMARK    9  A    between atoms: C_24  and  O_25
REMARK                            x       y       z     vdW  Elec       q    Type
REMARK                         _______ _______ _______ _____ _____    ______ ____
ROOT
ATOM      1  C   UNL     1       4.376   7.070  16.417  0.00  0.00    +0.000 C 
ATOM      2  C   UNL     1       4.983   6.100  17.403  0.00  0.00    +0.000 A 
ATOM      3  C   UNL     1       6.297   6.088  17.724  0.00  0.00    +0.000 A 
ATOM      4  C   UNL     1       6.842   5.132  18.726  0.00  0.00    +0.000 A 
ATOM      5  O   UNL     1       8.032   5.119  19.025  0.00  0.00    +0.000 OA
ATOM      6  O   UNL     1       5.948   4.263  19.326  0.00  0.00    +0.000 OA
ATOM      7  C   UNL     1       4.579   4.248  19.006  0.00  0.00    +0.000 A 
ATOM      8  C   UNL     1       3.759   3.320  19.670  0.00  0.00    +0.000 A 
ATOM      9  C   UNL     1       2.397   3.278  19.364  0.00  0.00    +0.000 A 
ATOM     10  C   UNL     1       1.868   4.145  18.417  0.00  0.00    +0.000 A 
ATOM     11  C   UNL     1       2.698   5.066  17.769  0.00  0.00    +0.000 A 
ATOM     12  C   UNL     1       4.069   5.136  18.056  0.00  0.00    +0.000 A 
ENDROOT
BRANCH   8  13
ATOM     13  C   UNL     1       4.330   2.403  20.675  0.00  0.00    +0.000 C 
ATOM     14  O   UNL     1       5.073   1.487  20.332  0.00  0.00    +0.000 OA
ENDBRANCH   8  13
BRANCH   9  15
ATOM     15  O   UNL     1       1.519   2.411  19.955  0.00  0.00    +0.000 OA
ATOM     16  H   UNL     1       0.906   2.072  19.262  0.00  0.00    +0.000 HD
ENDBRANCH   9  15
BRANCH   3  17
ATOM     17  C   UNL     1       7.340   7.000  17.113  0.00  0.00    +0.000 C 
BRANCH  17  18
ATOM     18  C   UNL     1       7.102   8.463  17.483  0.00  0.00    +0.000 C 
BRANCH  18  19
ATOM     19  C   UNL     1       8.321   9.006  18.189  0.00  0.00    +0.000 C 
ATOM     20  O   UNL     1       8.947   8.333  19.002  0.00  0.00    +0.000 OA
ATOM     21  N   UNL     1       8.629  10.310  17.877  0.00  0.00    +0.000 N 
ATOM     22  H   UNL     1       7.949  10.862  17.367  0.00  0.00    +0.000 HD
BRANCH  21  23
ATOM     23  C   UNL     1       9.694  11.021  18.565  0.00  0.00    +0.000 C 
BRANCH  23  24
ATOM     24  C   UNL     1      10.304  12.176  17.737  0.00  0.00    +0.000 C 
BRANCH  24  25
ATOM     25  N   UNL     1      11.734  12.426  17.997  0.00  0.00    +0.000 NA
ATOM     26  C   UNL     1      11.961  12.800  19.416  0.00  0.00    +0.000 C 
ATOM     27  C   UNL     1      11.642  14.268  19.763  0.00  0.00    +0.000 C 
ATOM     28  O   UNL     1      12.327  15.175  18.894  0.00  0.00    +0.000 OA
ATOM     29  C   UNL     1      11.972  14.914  17.531  0.00  0.00    +0.000 C 
ATOM     30  C   UNL     1      12.333  13.473  17.140  0.00  0.00    +0.000 C 
ENDBRANCH  24  25
ENDBRANCH  23  24
ENDBRANCH  21  23
ENDBRANCH  18  19
ENDBRANCH  17  18
ENDBRANCH   3  17
TORSDOF 8
ENDMDL
MODEL 7
REMARK VINA RESULT:      -7.4      1.564      1.790
REMARK  Name = 
REMARK  9 active torsions:
REMARK  status: ('A' for Active; 'I' for Inactive)
REMARK    1  A    between atoms: C_1  and  C_2
REMARK    2  A    between atoms: C_3  and  C_4
REMARK    3  A    between atoms: C_4  and  C_5
REMARK    4  A    between atoms: C_5  and  C_6
REMARK    5  A    between atoms: N_8  and  C_9
REMARK    6  A    between atoms: C_9  and  C_10
REMARK    7  A    between atoms: C_10  and  N_11
REMARK    8  A    between atoms: C_21  and  C_22
REMARK    9  A    between atoms: C_24  and  O_25
REMARK                            x       y       z     vdW  Elec       q    Type
REMARK                         _______ _______ _______ _____ _____    ______ ____
ROOT
ATOM      1  C   UNL     1       4.681   6.775  16.198  0.00  0.00    +0.000 C 
ATOM      2  C   UNL     1       5.226   5.912  17.311  0.00  0.00    +0.000 A 
ATOM      3  C   UNL     1       6.480   6.034  17.803  0.00  0.00    +0.000 A 
ATOM      4  C   UNL     1       6.960   5.181  18.923  0.00  0.00    +0.000 A 
ATOM      5  O   UNL     1       8.095   5.289  19.377  0.00  0.00    +0.000 OA
ATOM      6  O   UNL     1       6.068   4.264  19.451  0.00  0.00    +0.000 OA
ATOM      7  C   UNL     1       4.761   4.111  18.955  0.00  0.00    +0.000 A 
ATOM      8  C   UNL     1       3.938   3.145  19.560  0.00  0.00    +0.000 A 
ATOM      9  C   UNL     1       2.639   2.966  19.080  0.00  0.00    +0.000 A 
ATOM     10  C   UNL     1       2.174   3.735  18.021  0.00  0.00    +0.000 A 
ATOM     11  C   UNL     1       3.006   4.695  17.434  0.00  0.00    +0.000 A 
ATOM     12  C   UNL     1       4.314   4.902  17.895  0.00  0.00    +0.000 A 
ENDROOT
BRANCH   8  13
ATOM     13  C   UNL     1       4.440   2.333  20.684  0.00  0.00    +0.000 C 
ATOM     14  O   UNL     1       5.290   1.466  20.496  0.00  0.00    +0.000 OA
ENDBRANCH   8  13
BRANCH   9  15
ATOM     15  O   UNL     1       1.763   2.053  19.600  0.00  0.00    +0.000 OA
ATOM     16  H   UNL     1       2.281   1.373  20.089  0.00  0.00    +0.000 HD
ENDBRANCH   9  15
BRANCH   3  17
ATOM     17  C   UNL     1       7.518   7.006  17.281  0.00  0.00    +0.000 C 
BRANCH  17  18
ATOM     18  C   UNL     1       7.151   8.454  17.602  0.00  0.00    +0.000 C 
BRANCH  18  19
ATOM     19  C   UNL     1       8.322   9.129  18.275  0.00  0.00    +0.000 C 
ATOM     20  O   UNL     1       9.008   8.548  19.110  0.00  0.00    +0.000 OA
ATOM     21  N   UNL     1       8.515  10.440  17.905  0.00  0.00    +0.000 N 
ATOM     22  H   UNL     1       7.788  10.909  17.378  0.00  0.00    +0.000 HD
BRANCH  21  23
ATOM     23  C   UNL     1       9.519  11.269  18.553  0.00  0.00    +0.000 C 
BRANCH  23  24
ATOM     24  C   UNL     1       9.895  12.534  17.745  0.00  0.00    +0.000 C 
BRANCH  24  25
ATOM     25  N   UNL     1      10.570  13.583  18.531  0.00  0.00    +0.000 NA
ATOM     26  C   UNL     1       9.867  13.822  19.817  0.00  0.00    +0.000 C 
ATOM     27  C   UNL     1       8.609  14.707  19.719  0.00  0.00    +0.000 C 
ATOM     28  O   UNL     1       8.889  15.949  19.066  0.00  0.00    +0.000 OA
ATOM     29  C   UNL     1       9.413  15.710  17.756  0.00  0.00    +0.000 C 
ATOM     30  C   UNL     1      10.703  14.878  17.827  0.00  0.00    +0.000 C 
ENDBRANCH  24  25
ENDBRANCH  23  24
ENDBRANCH  21  23
ENDBRANCH  18  19
ENDBRANCH  17  18
ENDBRANCH   3  17
TORSDOF 8
ENDMDL
MODEL 8
REMARK VINA RESULT:      -7.3      6.420      9.106
REMARK  Name = 
REMARK  9 active torsions:
REMARK  status: ('A' for Active; 'I' for Inactive)
REMARK    1  A    between atoms: C_1  and  C_2
REMARK    2  A    between atoms: C_3  and  C_4
REMARK    3  A    between atoms: C_4  and  C_5
REMARK    4  A    between atoms: C_5  and  C_6
REMARK    5  A    between atoms: N_8  and  C_9
REMARK    6  A    between atoms: C_9  and  C_10
REMARK    7  A    between atoms: C_10  and  N_11
REMARK    8  A    between atoms: C_21  and  C_22
REMARK    9  A    between atoms: C_24  and  O_25
REMARK                            x       y       z     vdW  Elec       q    Type
REMARK                         _______ _______ _______ _____ _____    ______ ____
ROOT
ATOM      1  C   UNL     1       1.697   5.831  20.908  0.00  0.00    +0.000 C 
ATOM      2  C   UNL     1       2.299   6.515  19.704  0.00  0.00    +0.000 A 
ATOM      3  C   UNL     1       1.860   7.700  19.222  0.00  0.00    +0.000 A 
ATOM      4  C   UNL     1       2.508   8.350  18.050  0.00  0.00    +0.000 A 
ATOM      5  O   UNL     1       2.118   9.427  17.612  0.00  0.00    +0.000 OA
ATOM      6  O   UNL     1       3.586   7.698  17.479  0.00  0.00    +0.000 OA
ATOM      7  C   UNL     1       4.059   6.461  17.954  0.00  0.00    +0.000 A 
ATOM      8  C   UNL     1       5.158   5.882  17.296  0.00  0.00    +0.000 A 
ATOM      9  C   UNL     1       5.642   4.649  17.742  0.00  0.00    +0.000 A 
ATOM     10  C   UNL     1       5.040   4.013  18.820  0.00  0.00    +0.000 A 
ATOM     11  C   UNL     1       3.950   4.607  19.465  0.00  0.00    +0.000 A 
ATOM     12  C   UNL     1       3.443   5.845  19.045  0.00  0.00    +0.000 A 
ENDROOT
BRANCH   8  13
ATOM     13  C   UNL     1       5.790   6.566  16.152  0.00  0.00    +0.000 C 
ATOM     14  O   UNL     1       5.336   6.432  15.018  0.00  0.00    +0.000 OA
ENDBRANCH   8  13
BRANCH   9  15
ATOM     15  O   UNL     1       6.703   4.006  17.168  0.00  0.00    +0.000 OA
ATOM     16  H   UNL     1       7.347   4.685  16.862  0.00  0.00    +0.000 HD
ENDBRANCH   9  15
BRANCH   3  17
ATOM     17  C   UNL     1       0.687   8.476  19.784  0.00  0.00    +0.000 C 
BRANCH  17  18
ATOM     18  C   UNL     1       1.109   9.386  20.936  0.00  0.00    +0.000 C 
BRANCH  18  19
ATOM     19  C   UNL     1       0.857  10.825  20.555  0.00  0.00    +0.000 C 
ATOM     20  O   UNL     1       1.200  11.753  21.282  0.00  0.00    +0.000 OA
ATOM     21  N   UNL     1       0.182  10.993  19.368  0.00  0.00    +0.000 N 
ATOM     22  H   UNL     1      -0.251  10.185  18.936  0.00  0.00    +0.000 HD
BRANCH  21  23
ATOM     23  C   UNL     1      -0.250  12.308  18.922  0.00  0.00    +0.000 C 
BRANCH  23  24
ATOM     24  C   UNL     1      -1.488  12.273  17.996  0.00  0.00    +0.000 C 
BRANCH  24  25
ATOM     25  N   UNL     1      -2.251  11.011  18.042  0.00  0.00    +0.000 NA
ATOM     26  C   UNL     1      -1.984  10.181  16.841  0.00  0.00    +0.000 C 
ATOM     27  C   UNL     1      -2.755  10.600  15.573  0.00  0.00    +0.000 C 
ATOM     28  O   UNL     1      -4.163  10.684  15.817  0.00  0.00    +0.000 OA
ATOM     29  C   UNL     1      -4.425  11.617  16.871  0.00  0.00    +0.000 C 
ATOM     30  C   UNL     1      -3.715  11.192  18.166  0.00  0.00    +0.000 C 
ENDBRANCH  24  25
ENDBRANCH  23  24
ENDBRANCH  21  23
ENDBRANCH  18  19
ENDBRANCH  17  18
ENDBRANCH   3  17
TORSDOF 8
ENDMDL
MODEL 9
REMARK VINA RESULT:      -7.3      2.088      2.443
REMARK  Name = 
REMARK  9 active torsions:
REMARK  status: ('A' for Active; 'I' for Inactive)
REMARK    1  A    between atoms: C_1  and  C_2
REMARK    2  A    between atoms: C_3  and  C_4
REMARK    3  A    between atoms: C_4  and  C_5
REMARK    4  A    between atoms: C_5  and  C_6
REMARK    5  A    between atoms: N_8  and  C_9
REMARK    6  A    between atoms: C_9  and  C_10
REMARK    7  A    between atoms: C_10  and  N_11
REMARK    8  A    between atoms: C_21  and  C_22
REMARK    9  A    between atoms: C_24  and  O_25
REMARK                            x       y       z     vdW  Elec       q    Type
REMARK                         _______ _______ _______ _____ _____    ______ ____
ROOT
ATOM      1  C   UNL     1       3.959   7.762  17.525  0.00  0.00    +0.000 C 
ATOM      2  C   UNL     1       4.536   6.369  17.440  0.00  0.00    +0.000 A 
ATOM      3  C   UNL     1       5.841   6.116  17.188  0.00  0.00    +0.000 A 
ATOM      4  C   UNL     1       6.368   4.725  17.145  0.00  0.00    +0.000 A 
ATOM      5  O   UNL     1       7.551   4.489  16.923  0.00  0.00    +0.000 OA
ATOM      6  O   UNL     1       5.471   3.698  17.385  0.00  0.00    +0.000 OA
ATOM      7  C   UNL     1       4.108   3.932  17.641  0.00  0.00    +0.000 A 
ATOM      8  C   UNL     1       3.282   2.817  17.865  0.00  0.00    +0.000 A 
ATOM      9  C   UNL     1       1.922   3.019  18.113  0.00  0.00    +0.000 A 
ATOM     10  C   UNL     1       1.402   4.307  18.136  0.00  0.00    +0.000 A 
ATOM     11  C   UNL     1       2.240   5.406  17.915  0.00  0.00    +0.000 A 
ATOM     12  C   UNL     1       3.610   5.236  17.668  0.00  0.00    +0.000 A 
ENDROOT
BRANCH   8  13
ATOM     13  C   UNL     1       3.843   1.453  17.838  0.00  0.00    +0.000 C 
ATOM     14  O   UNL     1       3.864   0.768  18.858  0.00  0.00    +0.000 OA
ENDBRANCH   8  13
BRANCH   9  15
ATOM     15  O   UNL     1       1.039   2.001  18.341  0.00  0.00    +0.000 OA
ATOM     16  H   UNL     1       0.170   2.394  18.588  0.00  0.00    +0.000 HD
ENDBRANCH   9  15
BRANCH   3  17
ATOM     17  C   UNL     1       6.885   7.177  16.912  0.00  0.00    +0.000 C 
BRANCH  17  18
ATOM     18  C   UNL     1       7.815   7.382  18.106  0.00  0.00    +0.000 C 
BRANCH  18  19
ATOM     19  C   UNL     1       8.169   8.846  18.220  0.00  0.00    +0.000 C 
ATOM     20  O   UNL     1       7.681   9.686  17.470  0.00  0.00    +0.000 OA
ATOM     21  N   UNL     1       9.099   9.135  19.191  0.00  0.00    +0.000 N 
ATOM     22  H   UNL     1       9.609   8.371  19.621  0.00  0.00    +0.000 HD
BRANCH  21  23
ATOM     23  C   UNL     1       9.641  10.475  19.344  0.00  0.00    +0.000 C 
BRANCH  23  24
ATOM     24  C   UNL     1       9.202  11.176  20.652  0.00  0.00    +0.000 C 
BRANCH  24  25
ATOM     25  N   UNL     1      10.010  12.355  21.015  0.00  0.00    +0.000 NA
ATOM     26  C   UNL     1       9.361  13.134  22.099  0.00  0.00    +0.000 C 
ATOM     27  C   UNL     1       8.216  14.060  21.644  0.00  0.00    +0.000 C 
ATOM     28  O   UNL     1       8.632  14.931  20.587  0.00  0.00    +0.000 OA
ATOM     29  C   UNL     1       9.103  14.164  19.474  0.00  0.00    +0.000 C 
ATOM     30  C   UNL     1      10.286  13.273  19.886  0.00  0.00    +0.000 C 
ENDBRANCH  24  25
ENDBRANCH  23  24
ENDBRANCH  21  23
ENDBRANCH  18  19
ENDBRANCH  17  18
ENDBRANCH   3  17
TORSDOF 8
ENDMDL
