MODEL 1
REMARK VINA RESULT:      -8.4      0.000      0.000
REMARK  Name = 
REMARK  6 active torsions:
REMARK  status: ('A' for Active; 'I' for Inactive)
REMARK    1  A    between atoms: C_1  and  C_2
REMARK    2  A    between atoms: C_2  and  N_3
REMARK    3  A    between atoms: C_4  and  C_5
REMARK    4  A    between atoms: C_9  and  C_10
REMARK    5  A    between atoms: C_16  and  N_17
REMARK    6  A    between atoms: N_22  and  C_23
REMARK                            x       y       z     vdW  Elec       q    Type
REMARK                         _______ _______ _______ _____ _____    ______ ____
ROOT
ATOM      1  C   UNL     1       1.452  10.784  18.994  0.00  0.00    +0.000 A 
ATOM      2  N   UNL     1       1.987  10.092  17.996  0.00  0.00    +0.000 NA
ATOM      3  C   UNL     1       2.069   8.778  18.425  0.00  0.00    +0.000 A 
ATOM      4  C   UNL     1       2.507   7.602  17.768  0.00  0.00    +0.000 A 
ATOM      5  C   UNL     1       2.519   6.388  18.491  0.00  0.00    +0.000 A 
ATOM      6  C   UNL     1       2.228   6.390  19.856  0.00  0.00    +0.000 A 
ATOM      7  C   UNL     1       1.722   7.519  20.492  0.00  0.00    +0.000 A 
ATOM      8  C   UNL     1       1.635   8.686  19.737  0.00  0.00    +0.000 A 
ATOM      9  N   UNL     1       1.139   9.932  20.035  0.00  0.00    +0.000 N 
ATOM     10  C   UNL     1       0.427  10.153  21.267  0.00  0.00    +0.000 C 
ENDROOT
BRANCH   1  12
ATOM     11  N   UNL     1       0.001  12.863  18.949  0.00  0.00    +0.000 N 
ATOM     12  C   UNL     1       1.235  12.216  18.971  0.00  0.00    +0.000 A 
ATOM     13  C   UNL     1       2.179  13.227  19.003  0.00  0.00    +0.000 A 
ATOM     14  C   UNL     1       1.546  14.481  18.870  0.00  0.00    +0.000 A 
ATOM     15  C   UNL     1       2.035  15.798  18.790  0.00  0.00    +0.000 A 
ATOM     16  C   UNL     1       1.133  16.858  18.704  0.00  0.00    +0.000 A 
ATOM     17  C   UNL     1      -0.235  16.614  18.699  0.00  0.00    +0.000 A 
ATOM     18  C   UNL     1      -0.742  15.308  18.769  0.00  0.00    +0.000 A 
ATOM     19  C   UNL     1       0.175  14.242  18.848  0.00  0.00    +0.000 A 
BRANCH  11  21
ATOM     20  C   UNL     1      -1.848  11.842  17.682  0.00  0.00    +0.000 C 
ATOM     21  C   UNL     1      -1.308  12.231  19.050  0.00  0.00    +0.000 C 
ENDBRANCH  11  21
ENDBRANCH   1  12
BRANCH   5  22
ATOM     22  C   UNL     1       2.943   5.116  17.833  0.00  0.00    +0.000 C 
ATOM     23  O   UNL     1       2.076   4.265  17.641  0.00  0.00    +0.000 OA
ATOM     24  N   UNL     1       4.274   4.938  17.418  0.00  0.00    +0.000 N 
ATOM     25  C   UNL     1       4.587   3.856  16.489  0.00  0.00    +0.000 C 
ATOM     26  C   UNL     1       5.322   4.412  15.267  0.00  0.00    +0.000 C 
ATOM     27  C   UNL     1       6.567   5.214  15.665  0.00  0.00    +0.000 C 
ATOM     28  C   UNL     1       6.218   6.300  16.695  0.00  0.00    +0.000 C 
ATOM     29  C   UNL     1       5.460   5.669  17.891  0.00  0.00    +0.000 C 
BRANCH  28  30
ATOM     30  N   UNL     1       7.432   7.014  17.099  0.00  0.00    +0.000 NA
ATOM     31  H   UNL     1       8.260   6.536  16.743  0.00  0.00    +0.000 HD
ATOM     32  H   UNL     1       7.515   7.020  18.114  0.00  0.00    +0.000 HD
ENDBRANCH  28  30
ENDBRANCH   5  22
TORSDOF 4
ENDMDL
MODEL 2
REMARK VINA RESULT:      -7.9      2.078      3.456
REMARK  Name = 
REMARK  6 active torsions:
REMARK  status: ('A' for Active; 'I' for Inactive)
REMARK    1  A    between atoms: C_1  and  C_2
REMARK    2  A    between atoms: C_2  and  N_3
REMARK    3  A    between atoms: C_4  and  C_5
REMARK    4  A    between atoms: C_9  and  C_10
REMARK    5  A    between atoms: C_16  and  N_17
REMARK    6  A    between atoms: N_22  and  C_23
REMARK                            x       y       z     vdW  Elec       q    Type
REMARK                         _______ _______ _______ _____ _____    ______ ____
ROOT
ATOM      1  C   UNL     1       0.159  10.736  20.005  0.00  0.00    +0.000 A 
ATOM      2  N   UNL     1       0.787  10.428  18.877  0.00  0.00    +0.000 NA
ATOM      3  C   UNL     1       1.336   9.171  19.061  0.00  0.00    +0.000 A 
ATOM      4  C   UNL     1       2.066   8.329  18.187  0.00  0.00    +0.000 A 
ATOM      5  C   UNL     1       2.547   7.095  18.681  0.00  0.00    +0.000 A 
ATOM      6  C   UNL     1       2.410   6.789  20.035  0.00  0.00    +0.000 A 
ATOM      7  C   UNL     1       1.630   7.567  20.884  0.00  0.00    +0.000 A 
ATOM      8  C   UNL     1       1.091   8.737  20.353  0.00  0.00    +0.000 A 
ATOM      9  N   UNL     1       0.248   9.680  20.890  0.00  0.00    +0.000 N 
ATOM     10  C   UNL     1      -0.370   9.455  22.170  0.00  0.00    +0.000 C 
ENDROOT
BRANCH   1  12
ATOM     11  N   UNL     1       0.092  13.231  20.459  0.00  0.00    +0.000 N 
ATOM     12  C   UNL     1      -0.516  11.995  20.247  0.00  0.00    +0.000 A 
ATOM     13  C   UNL     1      -1.877  12.245  20.282  0.00  0.00    +0.000 A 
ATOM     14  C   UNL     1      -2.109  13.590  20.641  0.00  0.00    +0.000 A 
ATOM     15  C   UNL     1      -3.283  14.333  20.866  0.00  0.00    +0.000 A 
ATOM     16  C   UNL     1      -3.185  15.690  21.173  0.00  0.00    +0.000 A 
ATOM     17  C   UNL     1      -1.940  16.301  21.254  0.00  0.00    +0.000 A 
ATOM     18  C   UNL     1      -0.758  15.575  21.040  0.00  0.00    +0.000 A 
ATOM     19  C   UNL     1      -0.864  14.204  20.738  0.00  0.00    +0.000 A 
BRANCH  11  21
ATOM     20  C   UNL     1       1.924  13.938  18.971  0.00  0.00    +0.000 C 
ATOM     21  C   UNL     1       1.519  13.517  20.375  0.00  0.00    +0.000 C 
ENDBRANCH  11  21
ENDBRANCH   1  12
BRANCH   5  22
ATOM     22  C   UNL     1       3.295   6.159  17.789  0.00  0.00    +0.000 C 
ATOM     23  O   UNL     1       4.323   6.582  17.264  0.00  0.00    +0.000 OA
ATOM     24  N   UNL     1       2.848   4.839  17.608  0.00  0.00    +0.000 N 
ATOM     25  C   UNL     1       3.756   3.857  17.022  0.00  0.00    +0.000 C 
ATOM     26  C   UNL     1       3.876   2.640  17.943  0.00  0.00    +0.000 C 
ATOM     27  C   UNL     1       2.505   2.037  18.272  0.00  0.00    +0.000 C 
ATOM     28  C   UNL     1       1.549   3.108  18.822  0.00  0.00    +0.000 C 
ATOM     29  C   UNL     1       1.494   4.315  17.851  0.00  0.00    +0.000 C 
BRANCH  28  30
ATOM     30  N   UNL     1       0.232   2.518  19.078  0.00  0.00    +0.000 NA
ATOM     31  H   UNL     1      -0.035   2.655  20.053  0.00  0.00    +0.000 HD
ATOM     32  H   UNL     1       0.262   1.512  18.924  0.00  0.00    +0.000 HD
ENDBRANCH  28  30
ENDBRANCH   5  22
TORSDOF 4
ENDMDL
MODEL 3
REMARK VINA RESULT:      -7.8      1.685      2.722
REMARK  Name = 
REMARK  6 active torsions:
REMARK  status: ('A' for Active; 'I' for Inactive)
REMARK    1  A    between atoms: C_1  and  C_2
REMARK    2  A    between atoms: C_2  and  N_3
REMARK    3  A    between atoms: C_4  and  C_5
REMARK    4  A    between atoms: C_9  and  C_10
REMARK    5  A    between atoms: C_16  and  N_17
REMARK    6  A    between atoms: N_22  and  C_23
REMARK                            x       y       z     vdW  Elec       q    Type
REMARK                         _______ _______ _______ _____ _____    ______ ____
ROOT
ATOM      1  C   UNL     1       1.512  11.050  19.034  0.00  0.00    +0.000 A 
ATOM      2  N   UNL     1       2.191  10.476  18.049  0.00  0.00    +0.000 NA
ATOM      3  C   UNL     1       2.287   9.132  18.367  0.00  0.00    +0.000 A 
ATOM      4  C   UNL     1       2.855   8.040  17.665  0.00  0.00    +0.000 A 
ATOM      5  C   UNL     1       2.844   6.765  18.275  0.00  0.00    +0.000 A 
ATOM      6  C   UNL     1       2.398   6.629  19.590  0.00  0.00    +0.000 A 
ATOM      7  C   UNL     1       1.768   7.672  20.259  0.00  0.00    +0.000 A 
ATOM      8  C   UNL     1       1.711   8.901  19.604  0.00  0.00    +0.000 A 
ATOM      9  N   UNL     1       1.124  10.094  19.951  0.00  0.00    +0.000 N 
ATOM     10  C   UNL     1       0.265  10.171  21.104  0.00  0.00    +0.000 C 
ENDROOT
BRANCH   1  12
ATOM     11  N   UNL     1       0.047  13.097  18.723  0.00  0.00    +0.000 N 
ATOM     12  C   UNL     1       1.228  12.469  19.112  0.00  0.00    +0.000 A 
ATOM     13  C   UNL     1       2.034  13.478  19.610  0.00  0.00    +0.000 A 
ATOM     14  C   UNL     1       1.413  14.730  19.413  0.00  0.00    +0.000 A 
ATOM     15  C   UNL     1       1.816  16.051  19.681  0.00  0.00    +0.000 A 
ATOM     16  C   UNL     1       0.941  17.102  19.406  0.00  0.00    +0.000 A 
ATOM     17  C   UNL     1      -0.317  16.843  18.873  0.00  0.00    +0.000 A 
ATOM     18  C   UNL     1      -0.733  15.533  18.592  0.00  0.00    +0.000 A 
ATOM     19  C   UNL     1       0.159  14.479  18.865  0.00  0.00    +0.000 A 
BRANCH  11  21
ATOM     20  C   UNL     1      -2.181  12.281  19.387  0.00  0.00    +0.000 C 
ATOM     21  C   UNL     1      -1.170  12.441  18.262  0.00  0.00    +0.000 C 
ENDBRANCH  11  21
ENDBRANCH   1  12
BRANCH   5  22
ATOM     22  C   UNL     1       3.402   5.577  17.562  0.00  0.00    +0.000 C 
ATOM     23  O   UNL     1       4.432   5.743  16.912  0.00  0.00    +0.000 OA
ATOM     24  N   UNL     1       2.783   4.320  17.680  0.00  0.00    +0.000 N 
ATOM     25  C   UNL     1       3.518   3.128  17.268  0.00  0.00    +0.000 C 
ATOM     26  C   UNL     1       3.555   2.114  18.414  0.00  0.00    +0.000 C 
ATOM     27  C   UNL     1       2.148   1.781  18.927  0.00  0.00    +0.000 C 
ATOM     28  C   UNL     1       1.375   3.059  19.288  0.00  0.00    +0.000 C 
ATOM     29  C   UNL     1       1.398   4.045  18.091  0.00  0.00    +0.000 C 
BRANCH  28  30
ATOM     30  N   UNL     1       0.018   2.717  19.722  0.00  0.00    +0.000 NA
ATOM     31  H   UNL     1      -0.666   3.309  19.251  0.00  0.00    +0.000 HD
ATOM     32  H   UNL     1      -0.086   2.893  20.720  0.00  0.00    +0.000 HD
ENDBRANCH  28  30
ENDBRANCH   5  22
TORSDOF 4
ENDMDL
MODEL 4
REMARK VINA RESULT:      -7.7      2.629      9.089
REMARK  Name = 
REMARK  6 active torsions:
REMARK  status: ('A' for Active; 'I' for Inactive)
REMARK    1  A    between atoms: C_1  and  C_2
REMARK    2  A    between atoms: C_2  and  N_3
REMARK    3  A    between atoms: C_4  and  C_5
REMARK    4  A    between atoms: C_9  and  C_10
REMARK    5  A    between atoms: C_16  and  N_17
REMARK    6  A    between atoms: N_22  and  C_23
REMARK                            x       y       z     vdW  Elec       q    Type
REMARK                         _______ _______ _______ _____ _____    ______ ____
ROOT
ATOM      1  C   UNL     1       4.001   5.862  17.509  0.00  0.00    +0.000 A 
ATOM      2  N   UNL     1       3.559   7.105  17.659  0.00  0.00    +0.000 NA
ATOM      3  C   UNL     1       2.830   7.125  18.835  0.00  0.00    +0.000 A 
ATOM      4  C   UNL     1       2.174   8.181  19.514  0.00  0.00    +0.000 A 
ATOM      5  C   UNL     1       1.457   7.884  20.696  0.00  0.00    +0.000 A 
ATOM      6  C   UNL     1       1.301   6.556  21.097  0.00  0.00    +0.000 A 
ATOM      7  C   UNL     1       2.002   5.522  20.487  0.00  0.00    +0.000 A 
ATOM      8  C   UNL     1       2.774   5.851  19.374  0.00  0.00    +0.000 A 
ATOM      9  N   UNL     1       3.616   5.097  18.592  0.00  0.00    +0.000 N 
ATOM     10  C   UNL     1       3.951   3.751  18.976  0.00  0.00    +0.000 C 
ENDROOT
BRANCH   1  12
ATOM     11  N   UNL     1       6.056   5.817  16.023  0.00  0.00    +0.000 N 
ATOM     12  C   UNL     1       4.773   5.401  16.372  0.00  0.00    +0.000 A 
ATOM     13  C   UNL     1       4.428   4.446  15.433  0.00  0.00    +0.000 A 
ATOM     14  C   UNL     1       5.429   4.365  14.441  0.00  0.00    +0.000 A 
ATOM     15  C   UNL     1       5.546   3.610  13.259  0.00  0.00    +0.000 A 
ATOM     16  C   UNL     1       6.705   3.721  12.490  0.00  0.00    +0.000 A 
ATOM     17  C   UNL     1       7.732   4.568  12.890  0.00  0.00    +0.000 A 
ATOM     18  C   UNL     1       7.628   5.335  14.060  0.00  0.00    +0.000 A 
ATOM     19  C   UNL     1       6.453   5.223  14.827  0.00  0.00    +0.000 A 
BRANCH  11  21
ATOM     20  C   UNL     1       7.501   6.026  18.008  0.00  0.00    +0.000 C 
ATOM     21  C   UNL     1       6.911   6.717  16.788  0.00  0.00    +0.000 C 
ENDBRANCH  11  21
ENDBRANCH   1  12
BRANCH   5  22
ATOM     22  C   UNL     1       0.776   8.968  21.464  0.00  0.00    +0.000 C 
ATOM     23  O   UNL     1       1.050   9.070  22.658  0.00  0.00    +0.000 OA
ATOM     24  N   UNL     1      -0.105   9.853  20.818  0.00  0.00    +0.000 N 
ATOM     25  C   UNL     1      -0.488  11.090  21.493  0.00  0.00    +0.000 C 
ATOM     26  C   UNL     1      -0.194  12.290  20.590  0.00  0.00    +0.000 C 
ATOM     27  C   UNL     1      -0.862  12.148  19.216  0.00  0.00    +0.000 C 
ATOM     28  C   UNL     1      -0.495  10.807  18.561  0.00  0.00    +0.000 C 
ATOM     29  C   UNL     1      -0.800   9.642  19.538  0.00  0.00    +0.000 C 
BRANCH  28  30
ATOM     30  N   UNL     1      -1.188  10.673  17.277  0.00  0.00    +0.000 NA
ATOM     31  H   UNL     1      -2.120  11.083  17.332  0.00  0.00    +0.000 HD
ATOM     32  H   UNL     1      -1.319   9.689  17.049  0.00  0.00    +0.000 HD
ENDBRANCH  28  30
ENDBRANCH   5  22
TORSDOF 4
ENDMDL
MODEL 5
REMARK VINA RESULT:      -7.7      0.817      1.784
REMARK  Name = 
REMARK  6 active torsions:
REMARK  status: ('A' for Active; 'I' for Inactive)
REMARK    1  A    between atoms: C_1  and  C_2
REMARK    2  A    between atoms: C_2  and  N_3
REMARK    3  A    between atoms: C_4  and  C_5
REMARK    4  A    between atoms: C_9  and  C_10
REMARK    5  A    between atoms: C_16  and  N_17
REMARK    6  A    between atoms: N_22  and  C_23
REMARK                            x       y       z     vdW  Elec       q    Type
REMARK                         _______ _______ _______ _____ _____    ______ ____
ROOT
ATOM      1  C   UNL     1       0.925  10.693  19.278  0.00  0.00    +0.000 A 
ATOM      2  N   UNL     1       1.425  10.073  18.216  0.00  0.00    +0.000 NA
ATOM      3  C   UNL     1       1.717   8.780  18.615  0.00  0.00    +0.000 A 
ATOM      4  C   UNL     1       2.221   7.668  17.896  0.00  0.00    +0.000 A 
ATOM      5  C   UNL     1       2.465   6.465  18.596  0.00  0.00    +0.000 A 
ATOM      6  C   UNL     1       2.331   6.430  19.985  0.00  0.00    +0.000 A 
ATOM      7  C   UNL     1       1.764   7.487  20.690  0.00  0.00    +0.000 A 
ATOM      8  C   UNL     1       1.449   8.634  19.965  0.00  0.00    +0.000 A 
ATOM      9  N   UNL     1       0.839   9.809  20.335  0.00  0.00    +0.000 N 
ATOM     10  C   UNL     1       0.248   9.939  21.641  0.00  0.00    +0.000 C 
ENDROOT
BRANCH   1  12
ATOM     11  N   UNL     1       1.261  13.160  18.795  0.00  0.00    +0.000 N 
ATOM     12  C   UNL     1       0.530  12.087  19.299  0.00  0.00    +0.000 A 
ATOM     13  C   UNL     1      -0.645  12.637  19.780  0.00  0.00    +0.000 A 
ATOM     14  C   UNL     1      -0.587  14.045  19.694  0.00  0.00    +0.000 A 
ATOM     15  C   UNL     1      -1.473  15.066  20.085  0.00  0.00    +0.000 A 
ATOM     16  C   UNL     1      -1.143  16.395  19.819  0.00  0.00    +0.000 A 
ATOM     17  C   UNL     1       0.048  16.705  19.174  0.00  0.00    +0.000 A 
ATOM     18  C   UNL     1       0.947  15.701  18.784  0.00  0.00    +0.000 A 
ATOM     19  C   UNL     1       0.611  14.363  19.062  0.00  0.00    +0.000 A 
BRANCH  11  21
ATOM     20  C   UNL     1       3.603  13.920  18.704  0.00  0.00    +0.000 C 
ATOM     21  C   UNL     1       2.515  13.079  18.055  0.00  0.00    +0.000 C 
ENDBRANCH  11  21
ENDBRANCH   1  12
BRANCH   5  22
ATOM     22  C   UNL     1       2.966   5.256  17.877  0.00  0.00    +0.000 C 
ATOM     23  O   UNL     1       2.151   4.369  17.629  0.00  0.00    +0.000 OA
ATOM     24  N   UNL     1       4.309   5.176  17.470  0.00  0.00    +0.000 N 
ATOM     25  C   UNL     1       4.692   4.164  16.489  0.00  0.00    +0.000 C 
ATOM     26  C   UNL     1       5.406   4.825  15.307  0.00  0.00    +0.000 C 
ATOM     27  C   UNL     1       6.600   5.673  15.764  0.00  0.00    +0.000 C 
ATOM     28  C   UNL     1       6.180   6.681  16.845  0.00  0.00    +0.000 C 
ATOM     29  C   UNL     1       5.447   5.945  17.996  0.00  0.00    +0.000 C 
BRANCH  28  30
ATOM     30  N   UNL     1       7.348   7.440  17.302  0.00  0.00    +0.000 NA
ATOM     31  H   UNL     1       7.827   6.937  18.050  0.00  0.00    +0.000 HD
ATOM     32  H   UNL     1       7.055   8.332  17.695  0.00  0.00    +0.000 HD
ENDBRANCH  28  30
ENDBRANCH   5  22
TORSDOF 4
ENDMDL
MODEL 6
REMARK VINA RESULT:      -7.7      2.429      3.160
REMARK  Name = 
REMARK  6 active torsions:
REMARK  status: ('A' for Active; 'I' for Inactive)
REMARK    1  A    between atoms: C_1  and  C_2
REMARK    2  A    between atoms: C_2  and  N_3
REMARK    3  A    between atoms: C_4  and  C_5
REMARK    4  A    between atoms: C_9  and  C_10
REMARK    5  A    between atoms: C_16  and  N_17
REMARK    6  A    between atoms: N_22  and  C_23
REMARK                            x       y       z     vdW  Elec       q    Type
REMARK                         _______ _______ _______ _____ _____    ______ ____
ROOT
ATOM      1  C   UNL     1       0.353  10.662  20.357  0.00  0.00    +0.000 A 
ATOM      2  N   UNL     1       1.041  10.447  19.242  0.00  0.00    +0.000 NA
ATOM      3  C   UNL     1       1.497   9.142  19.305  0.00  0.00    +0.000 A 
ATOM      4  C   UNL     1       2.235   8.361  18.382  0.00  0.00    +0.000 A 
ATOM      5  C   UNL     1       2.603   7.047  18.751  0.00  0.00    +0.000 A 
ATOM      6  C   UNL     1       2.351   6.593  20.046  0.00  0.00    +0.000 A 
ATOM      7  C   UNL     1       1.561   7.317  20.932  0.00  0.00    +0.000 A 
ATOM      8  C   UNL     1       1.134   8.576  20.515  0.00  0.00    +0.000 A 
ATOM      9  N   UNL     1       0.313   9.505  21.109  0.00  0.00    +0.000 N 
ATOM     10  C   UNL     1      -0.407   9.173  22.311  0.00  0.00    +0.000 C 
ENDROOT
BRANCH   1  12
ATOM     11  N   UNL     1      -1.467  12.424  20.221  0.00  0.00    +0.000 N 
ATOM     12  C   UNL     1      -0.259  11.928  20.708  0.00  0.00    +0.000 A 
ATOM     13  C   UNL     1       0.192  12.877  21.608  0.00  0.00    +0.000 A 
ATOM     14  C   UNL     1      -0.657  14.004  21.582  0.00  0.00    +0.000 A 
ATOM     15  C   UNL     1      -0.623  15.244  22.248  0.00  0.00    +0.000 A 
ATOM     16  C   UNL     1      -1.654  16.159  22.040  0.00  0.00    +0.000 A 
ATOM     17  C   UNL     1      -2.705  15.848  21.185  0.00  0.00    +0.000 A 
ATOM     18  C   UNL     1      -2.751  14.621  20.506  0.00  0.00    +0.000 A 
ATOM     19  C   UNL     1      -1.703  13.705  20.715  0.00  0.00    +0.000 A 
BRANCH  11  21
ATOM     20  C   UNL     1      -2.001  11.858  17.883  0.00  0.00    +0.000 C 
ATOM     21  C   UNL     1      -2.398  11.724  19.346  0.00  0.00    +0.000 C 
ENDBRANCH  11  21
ENDBRANCH   1  12
BRANCH   5  22
ATOM     22  C   UNL     1       3.354   6.173  17.800  0.00  0.00    +0.000 C 
ATOM     23  O   UNL     1       4.376   6.635  17.297  0.00  0.00    +0.000 OA
ATOM     24  N   UNL     1       2.917   4.863  17.541  0.00  0.00    +0.000 N 
ATOM     25  C   UNL     1       3.830   3.927  16.892  0.00  0.00    +0.000 C 
ATOM     26  C   UNL     1       3.964   2.656  17.736  0.00  0.00    +0.000 C 
ATOM     27  C   UNL     1       2.600   2.023  18.034  0.00  0.00    +0.000 C 
ATOM     28  C   UNL     1       1.638   3.050  18.652  0.00  0.00    +0.000 C 
ATOM     29  C   UNL     1       1.569   4.314  17.757  0.00  0.00    +0.000 C 
BRANCH  28  30
ATOM     30  N   UNL     1       0.327   2.434  18.877  0.00  0.00    +0.000 NA
ATOM     31  H   UNL     1       0.435   1.453  19.132  0.00  0.00    +0.000 HD
ATOM     32  H   UNL     1      -0.220   2.451  18.018  0.00  0.00    +0.000 HD
ENDBRANCH  28  30
ENDBRANCH   5  22
TORSDOF 4
ENDMDL
MODEL 7
REMARK VINA RESULT:      -7.6      3.012      4.554
REMARK  Name = 
REMARK  6 active torsions:
REMARK  status: ('A' for Active; 'I' for Inactive)
REMARK    1  A    between atoms: C_1  and  C_2
REMARK    2  A    between atoms: C_2  and  N_3
REMARK    3  A    between atoms: C_4  and  C_5
REMARK    4  A    between atoms: C_9  and  C_10
REMARK    5  A    between atoms: C_16  and  N_17
REMARK    6  A    between atoms: N_22  and  C_23
REMARK                            x       y       z     vdW  Elec       q    Type
REMARK                         _______ _______ _______ _____ _____    ______ ____
ROOT
ATOM      1  C   UNL     1       0.190  10.508  20.784  0.00  0.00    +0.000 A 
ATOM      2  N   UNL     1       0.865   9.449  21.213  0.00  0.00    +0.000 NA
ATOM      3  C   UNL     1       1.429   8.861  20.094  0.00  0.00    +0.000 A 
ATOM      4  C   UNL     1       2.285   7.740  19.954  0.00  0.00    +0.000 A 
ATOM      5  C   UNL     1       2.667   7.340  18.653  0.00  0.00    +0.000 A 
ATOM      6  C   UNL     1       2.102   7.964  17.541  0.00  0.00    +0.000 A 
ATOM      7  C   UNL     1       1.325   9.111  17.664  0.00  0.00    +0.000 A 
ATOM      8  C   UNL     1       1.031   9.541  18.956  0.00  0.00    +0.000 A 
ATOM      9  N   UNL     1       0.353  10.643  19.419  0.00  0.00    +0.000 N 
ATOM     10  C   UNL     1      -0.047  11.684  18.510  0.00  0.00    +0.000 C 
ENDROOT
BRANCH   1  12
ATOM     11  N   UNL     1      -0.255  12.679  22.019  0.00  0.00    +0.000 N 
ATOM     12  C   UNL     1      -0.590  11.381  21.639  0.00  0.00    +0.000 A 
ATOM     13  C   UNL     1      -1.823  11.134  22.217  0.00  0.00    +0.000 A 
ATOM     14  C   UNL     1      -2.186  12.214  23.050  0.00  0.00    +0.000 A 
ATOM     15  C   UNL     1      -3.289  12.445  23.893  0.00  0.00    +0.000 A 
ATOM     16  C   UNL     1      -3.389  13.659  24.571  0.00  0.00    +0.000 A 
ATOM     17  C   UNL     1      -2.408  14.631  24.414  0.00  0.00    +0.000 A 
ATOM     18  C   UNL     1      -1.297  14.416  23.585  0.00  0.00    +0.000 A 
ATOM     19  C   UNL     1      -1.199  13.185  22.910  0.00  0.00    +0.000 A 
BRANCH  11  21
ATOM     20  C   UNL     1       0.469  14.540  20.577  0.00  0.00    +0.000 C 
ATOM     21  C   UNL     1       0.890  13.448  21.549  0.00  0.00    +0.000 C 
ENDBRANCH  11  21
ENDBRANCH   1  12
BRANCH   5  22
ATOM     22  C   UNL     1       3.593   6.185  18.455  0.00  0.00    +0.000 C 
ATOM     23  O   UNL     1       4.775   6.442  18.237  0.00  0.00    +0.000 OA
ATOM     24  N   UNL     1       3.119   4.866  18.565  0.00  0.00    +0.000 N 
ATOM     25  C   UNL     1       4.081   3.778  18.707  0.00  0.00    +0.000 C 
ATOM     26  C   UNL     1       3.752   2.947  19.950  0.00  0.00    +0.000 C 
ATOM     27  C   UNL     1       2.304   2.443  19.932  0.00  0.00    +0.000 C 
ATOM     28  C   UNL     1       1.319   3.602  19.712  0.00  0.00    +0.000 C 
ATOM     29  C   UNL     1       1.726   4.408  18.451  0.00  0.00    +0.000 C 
BRANCH  28  30
ATOM     30  N   UNL     1      -0.052   3.087  19.644  0.00  0.00    +0.000 NA
ATOM     31  H   UNL     1      -0.459   3.038  20.578  0.00  0.00    +0.000 HD
ATOM     32  H   UNL     1      -0.052   2.136  19.279  0.00  0.00    +0.000 HD
ENDBRANCH  28  30
ENDBRANCH   5  22
TORSDOF 4
ENDMDL
MODEL 8
REMARK VINA RESULT:      -7.5      4.436     10.144
REMARK  Name = 
REMARK  6 active torsions:
REMARK  status: ('A' for Active; 'I' for Inactive)
REMARK    1  A    between atoms: C_1  and  C_2
REMARK    2  A    between atoms: C_2  and  N_3
REMARK    3  A    between atoms: C_4  and  C_5
REMARK    4  A    between atoms: C_9  and  C_10
REMARK    5  A    between atoms: C_16  and  N_17
REMARK    6  A    between atoms: N_22  and  C_23
REMARK                            x       y       z     vdW  Elec       q    Type
REMARK                         _______ _______ _______ _____ _____    ______ ____
ROOT
ATOM      1  C   UNL     1       0.088  11.138  19.736  0.00  0.00    +0.000 A 
ATOM      2  N   UNL     1      -1.233  11.146  19.869  0.00  0.00    +0.000 NA
ATOM      3  C   UNL     1      -1.581  12.420  20.281  0.00  0.00    +0.000 A 
ATOM      4  C   UNL     1      -2.843  13.014  20.531  0.00  0.00    +0.000 A 
ATOM      5  C   UNL     1      -2.883  14.348  20.995  0.00  0.00    +0.000 A 
ATOM      6  C   UNL     1      -1.696  15.006  21.319  0.00  0.00    +0.000 A 
ATOM      7  C   UNL     1      -0.453  14.466  21.006  0.00  0.00    +0.000 A 
ATOM      8  C   UNL     1      -0.439  13.181  20.466  0.00  0.00    +0.000 A 
ATOM      9  N   UNL     1       0.590  12.397  20.003  0.00  0.00    +0.000 N 
ATOM     10  C   UNL     1       1.914  12.944  19.868  0.00  0.00    +0.000 C 
ENDROOT
BRANCH   1  12
ATOM     11  N   UNL     1       1.047   8.823  20.126  0.00  0.00    +0.000 N 
ATOM     12  C   UNL     1       0.865   9.974  19.362  0.00  0.00    +0.000 A 
ATOM     13  C   UNL     1       1.547   9.742  18.181  0.00  0.00    +0.000 A 
ATOM     14  C   UNL     1       2.250   8.521  18.263  0.00  0.00    +0.000 A 
ATOM     15  C   UNL     1       3.121   7.856  17.381  0.00  0.00    +0.000 A 
ATOM     16  C   UNL     1       3.636   6.610  17.739  0.00  0.00    +0.000 A 
ATOM     17  C   UNL     1       3.290   6.033  18.955  0.00  0.00    +0.000 A 
ATOM     18  C   UNL     1       2.430   6.685  19.851  0.00  0.00    +0.000 A 
ATOM     19  C   UNL     1       1.920   7.945  19.486  0.00  0.00    +0.000 A 
BRANCH  11  21
ATOM     20  C   UNL     1       1.077   9.263  22.550  0.00  0.00    +0.000 C 
ATOM     21  C   UNL     1       0.409   8.522  21.401  0.00  0.00    +0.000 C 
ENDBRANCH  11  21
ENDBRANCH   1  12
BRANCH   5  22
ATOM     22  C   UNL     1      -4.190  15.027  21.243  0.00  0.00    +0.000 C 
ATOM     23  O   UNL     1      -4.567  15.845  20.406  0.00  0.00    +0.000 OA
ATOM     24  N   UNL     1      -4.962  14.696  22.370  0.00  0.00    +0.000 N 
ATOM     25  C   UNL     1      -6.362  15.108  22.414  0.00  0.00    +0.000 C 
ATOM     26  C   UNL     1      -7.256  13.893  22.676  0.00  0.00    +0.000 C 
ATOM     27  C   UNL     1      -6.834  13.135  23.940  0.00  0.00    +0.000 C 
ATOM     28  C   UNL     1      -5.340  12.776  23.894  0.00  0.00    +0.000 C 
ATOM     29  C   UNL     1      -4.500  14.047  23.607  0.00  0.00    +0.000 C 
BRANCH  28  30
ATOM     30  N   UNL     1      -4.951  12.101  25.136  0.00  0.00    +0.000 NA
ATOM     31  H   UNL     1      -4.733  11.121  24.953  0.00  0.00    +0.000 HD
ATOM     32  H   UNL     1      -5.726  12.106  25.796  0.00  0.00    +0.000 HD
ENDBRANCH  28  30
ENDBRANCH   5  22
TORSDOF 4
ENDMDL
MODEL 9
REMARK VINA RESULT:      -7.5      1.534      2.281
REMARK  Name = 
REMARK  6 active torsions:
REMARK  status: ('A' for Active; 'I' for Inactive)
REMARK    1  A    between atoms: C_1  and  C_2
REMARK    2  A    between atoms: C_2  and  N_3
REMARK    3  A    between atoms: C_4  and  C_5
REMARK    4  A    between atoms: C_9  and  C_10
REMARK    5  A    between atoms: C_16  and  N_17
REMARK    6  A    between atoms: N_22  and  C_23
REMARK                            x       y       z     vdW  Elec       q    Type
REMARK                         _______ _______ _______ _____ _____    ______ ____
ROOT
ATOM      1  C   UNL     1       0.776  10.009  19.770  0.00  0.00    +0.000 A 
ATOM      2  N   UNL     1       1.339   9.557  18.656  0.00  0.00    +0.000 NA
ATOM      3  C   UNL     1       1.762   8.267  18.923  0.00  0.00    +0.000 A 
ATOM      4  C   UNL     1       2.378   7.292  18.100  0.00  0.00    +0.000 A 
ATOM      5  C   UNL     1       2.744   6.054  18.675  0.00  0.00    +0.000 A 
ATOM      6  C   UNL     1       2.612   5.862  20.051  0.00  0.00    +0.000 A 
ATOM      7  C   UNL     1       1.939   6.777  20.854  0.00  0.00    +0.000 A 
ATOM      8  C   UNL     1       1.508   7.955  20.248  0.00  0.00    +0.000 A 
ATOM      9  N   UNL     1       0.781   9.016  20.729  0.00  0.00    +0.000 N 
ATOM     10  C   UNL     1       0.178   8.949  22.035  0.00  0.00    +0.000 C 
ENDROOT
BRANCH   1  12
ATOM     11  N   UNL     1       0.961  12.537  19.870  0.00  0.00    +0.000 N 
ATOM     12  C   UNL     1       0.240  11.346  19.930  0.00  0.00    +0.000 A 
ATOM     13  C   UNL     1      -1.075  11.722  20.136  0.00  0.00    +0.000 A 
ATOM     14  C   UNL     1      -1.150  13.118  20.331  0.00  0.00    +0.000 A 
ATOM     15  C   UNL     1      -2.216  13.988  20.625  0.00  0.00    +0.000 A 
ATOM     16  C   UNL     1      -1.974  15.359  20.718  0.00  0.00    +0.000 A 
ATOM     17  C   UNL     1      -0.692  15.858  20.520  0.00  0.00    +0.000 A 
ATOM     18  C   UNL     1       0.385  15.005  20.235  0.00  0.00    +0.000 A 
ATOM     19  C   UNL     1       0.134  13.622  20.151  0.00  0.00    +0.000 A 
BRANCH  11  21
ATOM     20  C   UNL     1       2.565  12.965  18.049  0.00  0.00    +0.000 C 
ATOM     21  C   UNL     1       2.372  12.677  19.530  0.00  0.00    +0.000 C 
ENDBRANCH  11  21
ENDBRANCH   1  12
BRANCH   5  22
ATOM     22  C   UNL     1       3.367   4.983  17.841  0.00  0.00    +0.000 C 
ATOM     23  O   UNL     1       2.680   4.493  16.948  0.00  0.00    +0.000 OA
ATOM     24  N   UNL     1       4.702   4.600  18.057  0.00  0.00    +0.000 N 
ATOM     25  C   UNL     1       5.388   3.816  17.034  0.00  0.00    +0.000 C 
ATOM     26  C   UNL     1       6.692   4.509  16.629  0.00  0.00    +0.000 C 
ATOM     27  C   UNL     1       7.588   4.792  17.841  0.00  0.00    +0.000 C 
ATOM     28  C   UNL     1       6.818   5.558  18.929  0.00  0.00    +0.000 C 
ATOM     29  C   UNL     1       5.504   4.810  19.272  0.00  0.00    +0.000 C 
BRANCH  28  30
ATOM     30  N   UNL     1       7.680   5.767  20.097  0.00  0.00    +0.000 NA
ATOM     31  H   UNL     1       8.662   5.735  19.823  0.00  0.00    +0.000 HD
ATOM     32  H   UNL     1       7.543   5.018  20.773  0.00  0.00    +0.000 HD
ENDBRANCH  28  30
ENDBRANCH   5  22
TORSDOF 4
ENDMDL
