MODEL 1
REMARK VINA RESULT:      -8.1      0.000      0.000
REMARK  Name = 
REMARK  5 active torsions:
REMARK  status: ('A' for Active; 'I' for Inactive)
REMARK    1  A    between atoms: C_1  and  C_2
REMARK    2  A    between atoms: C_4  and  C_5
REMARK    3  A    between atoms: C_11  and  C_12
REMARK    4  A    between atoms: N_15  and  C_16
REMARK    5  A    between atoms: C_17  and  C_18
REMARK                            x       y       z     vdW  Elec       q    Type
REMARK                         _______ _______ _______ _____ _____    ______ ____
ROOT
ATOM      1  C   UNL     1       6.445   3.998  15.730  0.00  0.00    +0.000 C 
ATOM      2  C   UNL     1       5.272   4.585  16.471  0.00  0.00    +0.000 A 
ATOM      3  C   UNL     1       4.204   3.650  16.943  0.00  0.00    +0.000 A 
ATOM      4  C   UNL     1       3.159   4.202  17.595  0.00  0.00    +0.000 A 
ATOM      5  N   UNL     1       3.124   5.585  17.767  0.00  0.00    +0.000 N 
ATOM      6  N   UNL     1       2.158   6.340  18.338  0.00  0.00    +0.000 NA
ATOM      7  C   UNL     1       2.595   7.596  18.245  0.00  0.00    +0.000 A 
ATOM      8  C   UNL     1       3.844   7.681  17.614  0.00  0.00    +0.000 A 
ATOM      9  C   UNL     1       4.173   6.387  17.298  0.00  0.00    +0.000 A 
ATOM     10  N   UNL     1       5.256   5.874  16.649  0.00  0.00    +0.000 NA
ENDROOT
BRANCH   7  11
ATOM     11  C   UNL     1       1.817   8.732  18.713  0.00  0.00    +0.000 A 
ATOM     12  C   UNL     1       1.556   9.890  17.957  0.00  0.00    +0.000 A 
ATOM     13  N   UNL     1       0.789  10.758  18.616  0.00  0.00    +0.000 NA
ATOM     14  N   UNL     1       0.544  10.144  19.791  0.00  0.00    +0.000 N 
ATOM     15  C   UNL     1      -0.313  10.802  20.754  0.00  0.00    +0.000 C 
ATOM     16  C   UNL     1       1.170   8.930  19.916  0.00  0.00    +0.000 A 
BRANCH  16  17
ATOM     17  C   UNL     1       1.074   8.147  21.161  0.00  0.00    +0.000 C 
ATOM     18  F   UNL     1       1.637   6.921  21.115  0.00  0.00    +0.000 F 
ATOM     19  F   UNL     1       1.687   8.803  22.184  0.00  0.00    +0.000 F 
ATOM     20  F   UNL     1      -0.218   7.979  21.544  0.00  0.00    +0.000 F 
ENDBRANCH  16  17
ENDBRANCH   7  11
BRANCH   4  21
ATOM     21  C   UNL     1       2.000   3.418  18.109  0.00  0.00    +0.000 C 
ATOM     22  F   UNL     1       0.827   3.829  17.559  0.00  0.00    +0.000 F 
ATOM     23  F   UNL     1       2.120   2.108  17.733  0.00  0.00    +0.000 F 
ATOM     24 CL   UNL     1       1.886   3.438  19.880  0.00  0.00    +0.000 Cl
ENDBRANCH   4  21
TORSDOF 3
ENDMDL
MODEL 2
REMARK VINA RESULT:      -8.0      2.579      6.367
REMARK  Name = 
REMARK  5 active torsions:
REMARK  status: ('A' for Active; 'I' for Inactive)
REMARK    1  A    between atoms: C_1  and  C_2
REMARK    2  A    between atoms: C_4  and  C_5
REMARK    3  A    between atoms: C_11  and  C_12
REMARK    4  A    between atoms: N_15  and  C_16
REMARK    5  A    between atoms: C_17  and  C_18
REMARK                            x       y       z     vdW  Elec       q    Type
REMARK                         _______ _______ _______ _____ _____    ______ ____
ROOT
ATOM      1  C   UNL     1       0.092  12.588  18.410  0.00  0.00    +0.000 C 
ATOM      2  C   UNL     1       0.475  11.245  18.978  0.00  0.00    +0.000 A 
ATOM      3  C   UNL     1       0.012  10.914  20.361  0.00  0.00    +0.000 A 
ATOM      4  C   UNL     1       0.377   9.710  20.850  0.00  0.00    +0.000 A 
ATOM      5  N   UNL     1       1.166   8.873  20.064  0.00  0.00    +0.000 N 
ATOM      6  N   UNL     1       1.680   7.660  20.376  0.00  0.00    +0.000 NA
ATOM      7  C   UNL     1       2.364   7.282  19.296  0.00  0.00    +0.000 A 
ATOM      8  C   UNL     1       2.310   8.236  18.270  0.00  0.00    +0.000 A 
ATOM      9  C   UNL     1       1.549   9.260  18.774  0.00  0.00    +0.000 A 
ATOM     10  N   UNL     1       1.192  10.458  18.231  0.00  0.00    +0.000 NA
ENDROOT
BRANCH   7  11
ATOM     11  C   UNL     1       3.111   6.036  19.239  0.00  0.00    +0.000 A 
ATOM     12  C   UNL     1       4.333   5.865  18.562  0.00  0.00    +0.000 A 
ATOM     13  N   UNL     1       4.817   4.630  18.703  0.00  0.00    +0.000 NA
ATOM     14  N   UNL     1       3.909   4.016  19.487  0.00  0.00    +0.000 N 
ATOM     15  C   UNL     1       4.146   2.645  19.882  0.00  0.00    +0.000 C 
ATOM     16  C   UNL     1       2.839   4.811  19.813  0.00  0.00    +0.000 A 
BRANCH  16  17
ATOM     17  C   UNL     1       1.713   4.286  20.606  0.00  0.00    +0.000 C 
ATOM     18  F   UNL     1       0.642   5.102  20.695  0.00  0.00    +0.000 F 
ATOM     19  F   UNL     1       1.253   3.124  20.066  0.00  0.00    +0.000 F 
ATOM     20  F   UNL     1       2.095   3.986  21.874  0.00  0.00    +0.000 F 
ENDBRANCH  16  17
ENDBRANCH   7  11
BRANCH   4  21
ATOM     21  C   UNL     1       0.022   9.233  22.217  0.00  0.00    +0.000 C 
ATOM     22  F   UNL     1      -0.691   8.076  22.181  0.00  0.00    +0.000 F 
ATOM     23  F   UNL     1       1.159   8.920  22.912  0.00  0.00    +0.000 F 
ATOM     24 CL   UNL     1      -0.844  10.456  23.169  0.00  0.00    +0.000 Cl
ENDBRANCH   4  21
TORSDOF 3
ENDMDL
MODEL 3
REMARK VINA RESULT:      -8.0      4.265      5.717
REMARK  Name = 
REMARK  5 active torsions:
REMARK  status: ('A' for Active; 'I' for Inactive)
REMARK    1  A    between atoms: C_1  and  C_2
REMARK    2  A    between atoms: C_4  and  C_5
REMARK    3  A    between atoms: C_11  and  C_12
REMARK    4  A    between atoms: N_15  and  C_16
REMARK    5  A    between atoms: C_17  and  C_18
REMARK                            x       y       z     vdW  Elec       q    Type
REMARK                         _______ _______ _______ _____ _____    ______ ____
ROOT
ATOM      1  C   UNL     1       6.850   4.307  13.010  0.00  0.00    +0.000 C 
ATOM      2  C   UNL     1       6.439   4.458  14.452  0.00  0.00    +0.000 A 
ATOM      3  C   UNL     1       7.042   5.579  15.238  0.00  0.00    +0.000 A 
ATOM      4  C   UNL     1       6.665   5.685  16.530  0.00  0.00    +0.000 A 
ATOM      5  N   UNL     1       5.774   4.750  17.053  0.00  0.00    +0.000 N 
ATOM      6  N   UNL     1       5.310   4.643  18.319  0.00  0.00    +0.000 NA
ATOM      7  C   UNL     1       4.498   3.586  18.306  0.00  0.00    +0.000 A 
ATOM      8  C   UNL     1       4.420   2.989  17.040  0.00  0.00    +0.000 A 
ATOM      9  C   UNL     1       5.251   3.734  16.242  0.00  0.00    +0.000 A 
ATOM     10  N   UNL     1       5.588   3.596  14.928  0.00  0.00    +0.000 NA
ENDROOT
BRANCH   7  11
ATOM     11  C   UNL     1       3.821   3.104  19.499  0.00  0.00    +0.000 A 
ATOM     12  C   UNL     1       4.443   2.387  20.538  0.00  0.00    +0.000 A 
ATOM     13  N   UNL     1       3.596   2.099  21.527  0.00  0.00    +0.000 NA
ATOM     14  N   UNL     1       2.433   2.650  21.126  0.00  0.00    +0.000 N 
ATOM     15  C   UNL     1       1.284   2.561  22.000  0.00  0.00    +0.000 C 
ATOM     16  C   UNL     1       2.504   3.241  19.890  0.00  0.00    +0.000 A 
BRANCH  16  17
ATOM     17  C   UNL     1       1.312   3.834  19.258  0.00  0.00    +0.000 C 
ATOM     18  F   UNL     1       1.548   4.542  18.134  0.00  0.00    +0.000 F 
ATOM     19  F   UNL     1       0.426   2.861  18.909  0.00  0.00    +0.000 F 
ATOM     20  F   UNL     1       0.651   4.654  20.116  0.00  0.00    +0.000 F 
ENDBRANCH  16  17
ENDBRANCH   7  11
BRANCH   4  21
ATOM     21  C   UNL     1       7.188   6.727  17.458  0.00  0.00    +0.000 C 
ATOM     22  F   UNL     1       8.054   7.571  16.836  0.00  0.00    +0.000 F 
ATOM     23  F   UNL     1       6.164   7.530  17.882  0.00  0.00    +0.000 F 
ATOM     24 CL   UNL     1       7.940   6.040  18.911  0.00  0.00    +0.000 Cl
ENDBRANCH   4  21
TORSDOF 3
ENDMDL
MODEL 4
REMARK VINA RESULT:      -7.9      2.061      2.561
REMARK  Name = 
REMARK  5 active torsions:
REMARK  status: ('A' for Active; 'I' for Inactive)
REMARK    1  A    between atoms: C_1  and  C_2
REMARK    2  A    between atoms: C_4  and  C_5
REMARK    3  A    between atoms: C_11  and  C_12
REMARK    4  A    between atoms: N_15  and  C_16
REMARK    5  A    between atoms: C_17  and  C_18
REMARK                            x       y       z     vdW  Elec       q    Type
REMARK                         _______ _______ _______ _____ _____    ______ ____
ROOT
ATOM      1  C   UNL     1       4.903   3.798  16.249  0.00  0.00    +0.000 C 
ATOM      2  C   UNL     1       4.049   4.387  17.342  0.00  0.00    +0.000 A 
ATOM      3  C   UNL     1       3.277   3.445  18.210  0.00  0.00    +0.000 A 
ATOM      4  C   UNL     1       2.512   3.998  19.175  0.00  0.00    +0.000 A 
ATOM      5  N   UNL     1       2.467   5.386  19.289  0.00  0.00    +0.000 N 
ATOM      6  N   UNL     1       1.735   6.140  20.141  0.00  0.00    +0.000 NA
ATOM      7  C   UNL     1       2.040   7.402  19.842  0.00  0.00    +0.000 A 
ATOM      8  C   UNL     1       2.968   7.494  18.796  0.00  0.00    +0.000 A 
ATOM      9  C   UNL     1       3.230   6.195  18.436  0.00  0.00    +0.000 A 
ATOM     10  N   UNL     1       4.030   5.683  17.459  0.00  0.00    +0.000 NA
ENDROOT
BRANCH   7  11
ATOM     11  C   UNL     1       1.425   8.536  20.513  0.00  0.00    +0.000 A 
ATOM     12  C   UNL     1       1.358   8.701  21.909  0.00  0.00    +0.000 A 
ATOM     13  N   UNL     1       0.771   9.848  22.252  0.00  0.00    +0.000 NA
ATOM     14  N   UNL     1       0.477  10.425  21.071  0.00  0.00    +0.000 N 
ATOM     15  C   UNL     1      -0.143  11.733  21.070  0.00  0.00    +0.000 C 
ATOM     16  C   UNL     1       0.821   9.660  19.986  0.00  0.00    +0.000 A 
BRANCH  16  17
ATOM     17  C   UNL     1       0.512  10.099  18.613  0.00  0.00    +0.000 C 
ATOM     18  F   UNL     1      -0.746  10.547  18.420  0.00  0.00    +0.000 F 
ATOM     19  F   UNL     1       1.334  11.120  18.245  0.00  0.00    +0.000 F 
ATOM     20  F   UNL     1       0.725   9.104  17.713  0.00  0.00    +0.000 F 
ENDBRANCH  16  17
ENDBRANCH   7  11
BRANCH   4  21
ATOM     21  C   UNL     1       1.663   3.206  20.109  0.00  0.00    +0.000 C 
ATOM     22  F   UNL     1       0.363   3.602  20.071  0.00  0.00    +0.000 F 
ATOM     23  F   UNL     1       1.639   1.894  19.719  0.00  0.00    +0.000 F 
ATOM     24 CL   UNL     1       2.263   3.236  21.779  0.00  0.00    +0.000 Cl
ENDBRANCH   4  21
TORSDOF 3
ENDMDL
MODEL 5
REMARK VINA RESULT:      -7.8      0.722      1.125
REMARK  Name = 
REMARK  5 active torsions:
REMARK  status: ('A' for Active; 'I' for Inactive)
REMARK    1  A    between atoms: C_1  and  C_2
REMARK    2  A    between atoms: C_4  and  C_5
REMARK    3  A    between atoms: C_11  and  C_12
REMARK    4  A    between atoms: N_15  and  C_16
REMARK    5  A    between atoms: C_17  and  C_18
REMARK                            x       y       z     vdW  Elec       q    Type
REMARK                         _______ _______ _______ _____ _____    ______ ____
ROOT
ATOM      1  C   UNL     1       6.332   4.057  15.592  0.00  0.00    +0.000 C 
ATOM      2  C   UNL     1       5.211   4.647  16.409  0.00  0.00    +0.000 A 
ATOM      3  C   UNL     1       4.238   3.704  17.043  0.00  0.00    +0.000 A 
ATOM      4  C   UNL     1       3.237   4.259  17.762  0.00  0.00    +0.000 A 
ATOM      5  N   UNL     1       3.157   5.647  17.849  0.00  0.00    +0.000 N 
ATOM      6  N   UNL     1       2.219   6.401  18.466  0.00  0.00    +0.000 NA
ATOM      7  C   UNL     1       2.588   7.664  18.252  0.00  0.00    +0.000 A 
ATOM      8  C   UNL     1       3.764   7.755  17.494  0.00  0.00    +0.000 A 
ATOM      9  C   UNL     1       4.118   6.456  17.229  0.00  0.00    +0.000 A 
ATOM     10  N   UNL     1       5.155   5.943  16.507  0.00  0.00    +0.000 NA
ENDROOT
BRANCH   7  11
ATOM     11  C   UNL     1       1.810   8.798  18.724  0.00  0.00    +0.000 A 
ATOM     12  C   UNL     1       1.563   9.966  17.978  0.00  0.00    +0.000 A 
ATOM     13  N   UNL     1       0.791  10.830  18.638  0.00  0.00    +0.000 NA
ATOM     14  N   UNL     1       0.529  10.203  19.802  0.00  0.00    +0.000 N 
ATOM     15  C   UNL     1      -0.337  10.853  20.762  0.00  0.00    +0.000 C 
ATOM     16  C   UNL     1       1.148   8.984  19.921  0.00  0.00    +0.000 A 
BRANCH  16  17
ATOM     17  C   UNL     1       1.033   8.187  21.155  0.00  0.00    +0.000 C 
ATOM     18  F   UNL     1      -0.228   7.910  21.547  0.00  0.00    +0.000 F 
ATOM     19  F   UNL     1       1.649   6.982  21.000  0.00  0.00    +0.000 F 
ATOM     20  F   UNL     1       1.653   8.794  22.199  0.00  0.00    +0.000 F 
ENDBRANCH  16  17
ENDBRANCH   7  11
BRANCH   4  21
ATOM     21  C   UNL     1       2.171   3.467  18.437  0.00  0.00    +0.000 C 
ATOM     22  F   UNL     1       2.031   3.816  19.743  0.00  0.00    +0.000 F 
ATOM     23  F   UNL     1       0.956   3.743  17.871  0.00  0.00    +0.000 F 
ATOM     24 CL   UNL     1       2.420   1.715  18.295  0.00  0.00    +0.000 Cl
ENDBRANCH   4  21
TORSDOF 3
ENDMDL
MODEL 6
REMARK VINA RESULT:      -7.7      2.429      2.911
REMARK  Name = 
REMARK  5 active torsions:
REMARK  status: ('A' for Active; 'I' for Inactive)
REMARK    1  A    between atoms: C_1  and  C_2
REMARK    2  A    between atoms: C_4  and  C_5
REMARK    3  A    between atoms: C_11  and  C_12
REMARK    4  A    between atoms: N_15  and  C_16
REMARK    5  A    between atoms: C_17  and  C_18
REMARK                            x       y       z     vdW  Elec       q    Type
REMARK                         _______ _______ _______ _____ _____    ______ ____
ROOT
ATOM      1  C   UNL     1       3.714   1.550  18.000  0.00  0.00    +0.000 C 
ATOM      2  C   UNL     1       3.676   3.048  17.836  0.00  0.00    +0.000 A 
ATOM      3  C   UNL     1       4.719   3.683  16.972  0.00  0.00    +0.000 A 
ATOM      4  C   UNL     1       4.669   5.027  16.851  0.00  0.00    +0.000 A 
ATOM      5  N   UNL     1       3.685   5.731  17.541  0.00  0.00    +0.000 N 
ATOM      6  N   UNL     1       3.489   7.069  17.599  0.00  0.00    +0.000 NA
ATOM      7  C   UNL     1       2.431   7.233  18.394  0.00  0.00    +0.000 A 
ATOM      8  C   UNL     1       1.925   6.014  18.866  0.00  0.00    +0.000 A 
ATOM      9  C   UNL     1       2.741   5.054  18.324  0.00  0.00    +0.000 A 
ATOM     10  N   UNL     1       2.741   3.698  18.464  0.00  0.00    +0.000 NA
ENDROOT
BRANCH   7  11
ATOM     11  C   UNL     1       1.916   8.545  18.750  0.00  0.00    +0.000 A 
ATOM     12  C   UNL     1       1.924   9.667  17.899  0.00  0.00    +0.000 A 
ATOM     13  N   UNL     1       1.358  10.732  18.467  0.00  0.00    +0.000 NA
ATOM     14  N   UNL     1       0.972  10.284  19.678  0.00  0.00    +0.000 N 
ATOM     15  C   UNL     1       0.269  11.189  20.563  0.00  0.00    +0.000 C 
ATOM     16  C   UNL     1       1.315   8.977  19.915  0.00  0.00    +0.000 A 
BRANCH  16  17
ATOM     17  C   UNL     1       1.036   8.338  21.213  0.00  0.00    +0.000 C 
ATOM     18  F   UNL     1       1.559   7.104  21.372  0.00  0.00    +0.000 F 
ATOM     19  F   UNL     1       1.538   9.090  22.231  0.00  0.00    +0.000 F 
ATOM     20  F   UNL     1      -0.299   8.240  21.443  0.00  0.00    +0.000 F 
ENDBRANCH  16  17
ENDBRANCH   7  11
BRANCH   4  21
ATOM     21  C   UNL     1       5.645   5.818  16.050  0.00  0.00    +0.000 C 
ATOM     22  F   UNL     1       5.027   6.591  15.118  0.00  0.00    +0.000 F 
ATOM     23  F   UNL     1       6.301   6.706  16.859  0.00  0.00    +0.000 F 
ATOM     24 CL   UNL     1       6.885   4.807  15.281  0.00  0.00    +0.000 Cl
ENDBRANCH   4  21
TORSDOF 3
ENDMDL
MODEL 7
REMARK VINA RESULT:      -7.7      1.914      2.351
REMARK  Name = 
REMARK  5 active torsions:
REMARK  status: ('A' for Active; 'I' for Inactive)
REMARK    1  A    between atoms: C_1  and  C_2
REMARK    2  A    between atoms: C_4  and  C_5
REMARK    3  A    between atoms: C_11  and  C_12
REMARK    4  A    between atoms: N_15  and  C_16
REMARK    5  A    between atoms: C_17  and  C_18
REMARK                            x       y       z     vdW  Elec       q    Type
REMARK                         _______ _______ _______ _____ _____    ______ ____
ROOT
ATOM      1  C   UNL     1       5.527   3.726  15.807  0.00  0.00    +0.000 C 
ATOM      2  C   UNL     1       4.598   4.225  16.885  0.00  0.00    +0.000 A 
ATOM      3  C   UNL     1       3.826   3.210  17.666  0.00  0.00    +0.000 A 
ATOM      4  C   UNL     1       2.993   3.683  18.618  0.00  0.00    +0.000 A 
ATOM      5  N   UNL     1       2.886   5.061  18.797  0.00  0.00    +0.000 N 
ATOM      6  N   UNL     1       2.084   5.742  19.649  0.00  0.00    +0.000 NA
ATOM      7  C   UNL     1       2.352   7.029  19.427  0.00  0.00    +0.000 A 
ATOM      8  C   UNL     1       3.323   7.209  18.433  0.00  0.00    +0.000 A 
ATOM      9  C   UNL     1       3.655   5.941  18.024  0.00  0.00    +0.000 A 
ATOM     10  N   UNL     1       4.520   5.511  17.063  0.00  0.00    +0.000 NA
ENDROOT
BRANCH   7  11
ATOM     11  C   UNL     1       1.659   8.102  20.122  0.00  0.00    +0.000 A 
ATOM     12  C   UNL     1       1.443   8.149  21.512  0.00  0.00    +0.000 A 
ATOM     13  N   UNL     1       0.813   9.263  21.885  0.00  0.00    +0.000 NA
ATOM     14  N   UNL     1       0.642   9.938  20.732  0.00  0.00    +0.000 N 
ATOM     15  C   UNL     1       0.014  11.241  20.775  0.00  0.00    +0.000 C 
ATOM     16  C   UNL     1       1.105   9.267  19.629  0.00  0.00    +0.000 A 
BRANCH  16  17
ATOM     17  C   UNL     1       0.939   9.820  18.273  0.00  0.00    +0.000 C 
ATOM     18  F   UNL     1       1.788  10.818  17.950  0.00  0.00    +0.000 F 
ATOM     19  F   UNL     1       1.130   8.849  17.337  0.00  0.00    +0.000 F 
ATOM     20  F   UNL     1      -0.321  10.287  18.077  0.00  0.00    +0.000 F 
ENDBRANCH  16  17
ENDBRANCH   7  11
BRANCH   4  21
ATOM     21  C   UNL     1       2.134   2.813  19.469  0.00  0.00    +0.000 C 
ATOM     22  F   UNL     1       0.813   3.086  19.302  0.00  0.00    +0.000 F 
ATOM     23  F   UNL     1       2.270   1.506  19.085  0.00  0.00    +0.000 F 
ATOM     24 CL   UNL     1       2.563   2.893  21.189  0.00  0.00    +0.000 Cl
ENDBRANCH   4  21
TORSDOF 3
ENDMDL
MODEL 8
REMARK VINA RESULT:      -7.7      2.385      6.102
REMARK  Name = 
REMARK  5 active torsions:
REMARK  status: ('A' for Active; 'I' for Inactive)
REMARK    1  A    between atoms: C_1  and  C_2
REMARK    2  A    between atoms: C_4  and  C_5
REMARK    3  A    between atoms: C_11  and  C_12
REMARK    4  A    between atoms: N_15  and  C_16
REMARK    5  A    between atoms: C_17  and  C_18
REMARK                            x       y       z     vdW  Elec       q    Type
REMARK                         _______ _______ _______ _____ _____    ______ ____
ROOT
ATOM      1  C   UNL     1       1.298  12.573  18.313  0.00  0.00    +0.000 C 
ATOM      2  C   UNL     1       1.412  11.139  18.765  0.00  0.00    +0.000 A 
ATOM      3  C   UNL     1       0.807  10.771  20.082  0.00  0.00    +0.000 A 
ATOM      4  C   UNL     1       0.932   9.483  20.468  0.00  0.00    +0.000 A 
ATOM      5  N   UNL     1       1.624   8.596  19.646  0.00  0.00    +0.000 N 
ATOM      6  N   UNL     1       1.907   7.291  19.863  0.00  0.00    +0.000 NA
ATOM      7  C   UNL     1       2.592   6.898  18.788  0.00  0.00    +0.000 A 
ATOM      8  C   UNL     1       2.768   7.934  17.860  0.00  0.00    +0.000 A 
ATOM      9  C   UNL     1       2.154   9.025  18.422  0.00  0.00    +0.000 A 
ATOM     10  N   UNL     1       2.039  10.310  17.982  0.00  0.00    +0.000 NA
ENDROOT
BRANCH   7  11
ATOM     11  C   UNL     1       3.124   5.552  18.648  0.00  0.00    +0.000 A 
ATOM     12  C   UNL     1       4.098   5.170  17.706  0.00  0.00    +0.000 A 
ATOM     13  N   UNL     1       4.430   3.884  17.820  0.00  0.00    +0.000 NA
ATOM     14  N   UNL     1       3.678   3.448  18.851  0.00  0.00    +0.000 N 
ATOM     15  C   UNL     1       3.821   2.074  19.284  0.00  0.00    +0.000 C 
ATOM     16  C   UNL     1       2.845   4.407  19.367  0.00  0.00    +0.000 A 
BRANCH  16  17
ATOM     17  C   UNL     1       1.899   4.093  20.452  0.00  0.00    +0.000 C 
ATOM     18  F   UNL     1       1.862   2.798  20.829  0.00  0.00    +0.000 F 
ATOM     19  F   UNL     1       2.211   4.800  21.573  0.00  0.00    +0.000 F 
ATOM     20  F   UNL     1       0.630   4.451  20.125  0.00  0.00    +0.000 F 
ENDBRANCH  16  17
ENDBRANCH   7  11
BRANCH   4  21
ATOM     21  C   UNL     1       0.410   8.955  21.760  0.00  0.00    +0.000 C 
ATOM     22  F   UNL     1      -0.446   7.916  21.574  0.00  0.00    +0.000 F 
ATOM     23  F   UNL     1       1.436   8.432  22.500  0.00  0.00    +0.000 F 
ATOM     24 CL   UNL     1      -0.358  10.209  22.755  0.00  0.00    +0.000 Cl
ENDBRANCH   4  21
TORSDOF 3
ENDMDL
MODEL 9
REMARK VINA RESULT:      -7.7      2.841      3.594
REMARK  Name = 
REMARK  5 active torsions:
REMARK  status: ('A' for Active; 'I' for Inactive)
REMARK    1  A    between atoms: C_1  and  C_2
REMARK    2  A    between atoms: C_4  and  C_5
REMARK    3  A    between atoms: C_11  and  C_12
REMARK    4  A    between atoms: N_15  and  C_16
REMARK    5  A    between atoms: C_17  and  C_18
REMARK                            x       y       z     vdW  Elec       q    Type
REMARK                         _______ _______ _______ _____ _____    ______ ____
ROOT
ATOM      1  C   UNL     1       3.644   1.402  18.565  0.00  0.00    +0.000 C 
ATOM      2  C   UNL     1       3.528   2.904  18.593  0.00  0.00    +0.000 A 
ATOM      3  C   UNL     1       4.440   3.692  17.706  0.00  0.00    +0.000 A 
ATOM      4  C   UNL     1       4.323   5.036  17.757  0.00  0.00    +0.000 A 
ATOM      5  N   UNL     1       3.397   5.601  18.632  0.00  0.00    +0.000 N 
ATOM      6  N   UNL     1       3.156   6.909  18.876  0.00  0.00    +0.000 NA
ATOM      7  C   UNL     1       2.190   6.922  19.794  0.00  0.00    +0.000 A 
ATOM      8  C   UNL     1       1.789   5.631  20.165  0.00  0.00    +0.000 A 
ATOM      9  C   UNL     1       2.576   4.786  19.423  0.00  0.00    +0.000 A 
ATOM     10  N   UNL     1       2.645   3.425  19.394  0.00  0.00    +0.000 NA
ENDROOT
BRANCH   7  11
ATOM     11  C   UNL     1       1.667   8.154  20.364  0.00  0.00    +0.000 A 
ATOM     12  C   UNL     1       1.574   8.423  21.742  0.00  0.00    +0.000 A 
ATOM     13  N   UNL     1       1.090   9.642  21.984  0.00  0.00    +0.000 NA
ATOM     14  N   UNL     1       0.890  10.158  20.756  0.00  0.00    +0.000 N 
ATOM     15  C   UNL     1       0.399  11.515  20.644  0.00  0.00    +0.000 C 
ATOM     16  C   UNL     1       1.190   9.288  19.739  0.00  0.00    +0.000 A 
BRANCH  16  17
ATOM     17  C   UNL     1       0.967   9.656  18.329  0.00  0.00    +0.000 C 
ATOM     18  F   UNL     1      -0.266  10.125  18.044  0.00  0.00    +0.000 F 
ATOM     19  F   UNL     1       1.836  10.633  17.950  0.00  0.00    +0.000 F 
ATOM     20  F   UNL     1       1.198   8.606  17.499  0.00  0.00    +0.000 F 
ENDBRANCH  16  17
ENDBRANCH   7  11
BRANCH   4  21
ATOM     21  C   UNL     1       5.169   5.967  16.959  0.00  0.00    +0.000 C 
ATOM     22  F   UNL     1       4.418   6.826  16.219  0.00  0.00    +0.000 F 
ATOM     23  F   UNL     1       5.894   6.772  17.796  0.00  0.00    +0.000 F 
ATOM     24 CL   UNL     1       6.333   5.121  15.921  0.00  0.00    +0.000 Cl
ENDBRANCH   4  21
TORSDOF 3
ENDMDL
