MODEL 1
REMARK VINA RESULT:      -8.1      0.000      0.000
REMARK  Name = 
REMARK  5 active torsions:
REMARK  status: ('A' for Active; 'I' for Inactive)
REMARK    1  A    between atoms: C_1  and  C_2
REMARK    2  A    between atoms: C_2  and  C_3
REMARK    3  A    between atoms: C_2  and  N_4
REMARK    4  A    between atoms: C_10  and  C_11
REMARK    5  A    between atoms: C_14  and  C_15
REMARK                            x       y       z     vdW  Elec       q    Type
REMARK                         _______ _______ _______ _____ _____    ______ ____
ROOT
ATOM      1  N   UNL     1       3.082   3.386  18.671  0.00  0.00    +0.000 N 
ATOM      2  N   UNL     1       4.028   2.718  17.976  0.00  0.00    +0.000 NA
ATOM      3  N   UNL     1       4.702   3.605  17.260  0.00  0.00    +0.000 NA
ATOM      4  C   UNL     1       4.178   4.842  17.515  0.00  0.00    +0.000 A 
ATOM      5  C   UNL     1       4.528   6.096  17.004  0.00  0.00    +0.000 A 
ATOM      6  C   UNL     1       3.805   7.217  17.434  0.00  0.00    +0.000 A 
ATOM      7  C   UNL     1       2.755   7.105  18.363  0.00  0.00    +0.000 A 
ATOM      8  C   UNL     1       2.403   5.843  18.882  0.00  0.00    +0.000 A 
ATOM      9  C   UNL     1       3.132   4.734  18.427  0.00  0.00    +0.000 A 
ENDROOT
BRANCH   7  10
ATOM     10  C   UNL     1       2.022   8.307  18.750  0.00  0.00    +0.000 A 
ATOM     11  N   UNL     1       1.944   9.425  18.009  0.00  0.00    +0.000 NA
ATOM     12  O   UNL     1       1.217  10.301  18.816  0.00  0.00    +0.000 OA
ATOM     13  C   UNL     1       0.925   9.626  19.968  0.00  0.00    +0.000 A 
ATOM     14  N   UNL     1       1.376   8.394  19.965  0.00  0.00    +0.000 NA
BRANCH  13  15
ATOM     15  C   UNL     1       0.272  10.369  21.038  0.00  0.00    +0.000 A 
ATOM     16  C   UNL     1      -0.242   9.732  22.176  0.00  0.00    +0.000 A 
ATOM     17  C   UNL     1      -0.962  10.456  23.131  0.00  0.00    +0.000 A 
ATOM     18  C   UNL     1      -1.165  11.824  22.964  0.00  0.00    +0.000 A 
ATOM     19  C   UNL     1      -0.628  12.478  21.859  0.00  0.00    +0.000 A 
ATOM     20  C   UNL     1       0.091  11.755  20.905  0.00  0.00    +0.000 A 
ENDBRANCH  13  15
ENDBRANCH   7  10
BRANCH   1  22
ATOM     21  C   UNL     1       2.202   3.203  20.972  0.00  0.00    +0.000 C 
ATOM     22  C   UNL     1       2.172   2.656  19.542  0.00  0.00    +0.000 C 
ATOM     23  C   UNL     1       0.752   2.657  18.981  0.00  0.00    +0.000 C 
ENDBRANCH   1  22
TORSDOF 3
ENDMDL
MODEL 2
REMARK VINA RESULT:      -8.1      5.076      7.269
REMARK  Name = 
REMARK  5 active torsions:
REMARK  status: ('A' for Active; 'I' for Inactive)
REMARK    1  A    between atoms: C_1  and  C_2
REMARK    2  A    between atoms: C_2  and  C_3
REMARK    3  A    between atoms: C_2  and  N_4
REMARK    4  A    between atoms: C_10  and  C_11
REMARK    5  A    between atoms: C_14  and  C_15
REMARK                            x       y       z     vdW  Elec       q    Type
REMARK                         _______ _______ _______ _____ _____    ______ ____
ROOT
ATOM      1  N   UNL     1       6.212   3.531  12.437  0.00  0.00    +0.000 N 
ATOM      2  N   UNL     1       7.036   4.109  11.537  0.00  0.00    +0.000 NA
ATOM      3  N   UNL     1       7.788   4.986  12.185  0.00  0.00    +0.000 NA
ATOM      4  C   UNL     1       7.436   4.952  13.506  0.00  0.00    +0.000 A 
ATOM      5  C   UNL     1       7.922   5.689  14.591  0.00  0.00    +0.000 A 
ATOM      6  C   UNL     1       7.366   5.457  15.856  0.00  0.00    +0.000 A 
ATOM      7  C   UNL     1       6.349   4.506  16.052  0.00  0.00    +0.000 A 
ATOM      8  C   UNL     1       5.861   3.760  14.961  0.00  0.00    +0.000 A 
ATOM      9  C   UNL     1       6.423   4.018  13.701  0.00  0.00    +0.000 A 
ENDROOT
BRANCH   7  10
ATOM     10  C   UNL     1       5.792   4.332  17.390  0.00  0.00    +0.000 A 
ATOM     11  N   UNL     1       6.515   4.320  18.522  0.00  0.00    +0.000 NA
ATOM     12  O   UNL     1       5.569   4.053  19.512  0.00  0.00    +0.000 OA
ATOM     13  C   UNL     1       4.363   3.929  18.881  0.00  0.00    +0.000 A 
ATOM     14  N   UNL     1       4.445   4.115  17.585  0.00  0.00    +0.000 NA
BRANCH  13  15
ATOM     15  C   UNL     1       3.219   3.521  19.686  0.00  0.00    +0.000 A 
ATOM     16  C   UNL     1       1.937   4.048  19.474  0.00  0.00    +0.000 A 
ATOM     17  C   UNL     1       0.884   3.722  20.334  0.00  0.00    +0.000 A 
ATOM     18  C   UNL     1       1.098   2.858  21.405  0.00  0.00    +0.000 A 
ATOM     19  C   UNL     1       2.356   2.296  21.607  0.00  0.00    +0.000 A 
ATOM     20  C   UNL     1       3.408   2.623  20.748  0.00  0.00    +0.000 A 
ENDBRANCH  13  15
ENDBRANCH   7  10
BRANCH   1  22
ATOM     21  C   UNL     1       4.120   3.148  11.181  0.00  0.00    +0.000 C 
ATOM     22  C   UNL     1       5.253   2.527  12.002  0.00  0.00    +0.000 C 
ATOM     23  C   UNL     1       5.942   1.403  11.230  0.00  0.00    +0.000 C 
ENDBRANCH   1  22
TORSDOF 3
ENDMDL
MODEL 3
REMARK VINA RESULT:      -8.0      0.188      1.021
REMARK  Name = 
REMARK  5 active torsions:
REMARK  status: ('A' for Active; 'I' for Inactive)
REMARK    1  A    between atoms: C_1  and  C_2
REMARK    2  A    between atoms: C_2  and  C_3
REMARK    3  A    between atoms: C_2  and  N_4
REMARK    4  A    between atoms: C_10  and  C_11
REMARK    5  A    between atoms: C_14  and  C_15
REMARK                            x       y       z     vdW  Elec       q    Type
REMARK                         _______ _______ _______ _____ _____    ______ ____
ROOT
ATOM      1  N   UNL     1       3.107   3.491  18.839  0.00  0.00    +0.000 N 
ATOM      2  N   UNL     1       4.057   2.800  18.172  0.00  0.00    +0.000 NA
ATOM      3  N   UNL     1       4.722   3.659  17.414  0.00  0.00    +0.000 NA
ATOM      4  C   UNL     1       4.188   4.902  17.613  0.00  0.00    +0.000 A 
ATOM      5  C   UNL     1       4.527   6.134  17.044  0.00  0.00    +0.000 A 
ATOM      6  C   UNL     1       3.796   7.267  17.425  0.00  0.00    +0.000 A 
ATOM      7  C   UNL     1       2.749   7.190  18.360  0.00  0.00    +0.000 A 
ATOM      8  C   UNL     1       2.409   5.951  18.938  0.00  0.00    +0.000 A 
ATOM      9  C   UNL     1       3.145   4.827  18.532  0.00  0.00    +0.000 A 
ENDROOT
BRANCH   7  10
ATOM     10  C   UNL     1       2.008   8.403  18.695  0.00  0.00    +0.000 A 
ATOM     11  N   UNL     1       2.023   9.531  17.966  0.00  0.00    +0.000 NA
ATOM     12  O   UNL     1       1.241  10.413  18.713  0.00  0.00    +0.000 OA
ATOM     13  C   UNL     1       0.828   9.730  19.822  0.00  0.00    +0.000 A 
ATOM     14  N   UNL     1       1.252   8.489  19.843  0.00  0.00    +0.000 NA
BRANCH  13  15
ATOM     15  C   UNL     1       0.091  10.473  20.836  0.00  0.00    +0.000 A 
ATOM     16  C   UNL     1      -0.188  11.840  20.699  0.00  0.00    +0.000 A 
ATOM     17  C   UNL     1      -0.797  12.548  21.740  0.00  0.00    +0.000 A 
ATOM     18  C   UNL     1      -1.143  11.896  22.921  0.00  0.00    +0.000 A 
ATOM     19  C   UNL     1      -0.908  10.530  23.057  0.00  0.00    +0.000 A 
ATOM     20  C   UNL     1      -0.299   9.823  22.018  0.00  0.00    +0.000 A 
ENDBRANCH  13  15
ENDBRANCH   7  10
BRANCH   1  22
ATOM     21  C   UNL     1       2.203   3.432  21.136  0.00  0.00    +0.000 C 
ATOM     22  C   UNL     1       2.205   2.796  19.744  0.00  0.00    +0.000 C 
ATOM     23  C   UNL     1       0.792   2.724  19.169  0.00  0.00    +0.000 C 
ENDBRANCH   1  22
TORSDOF 3
ENDMDL
MODEL 4
REMARK VINA RESULT:      -8.0      2.079      3.537
REMARK  Name = 
REMARK  5 active torsions:
REMARK  status: ('A' for Active; 'I' for Inactive)
REMARK    1  A    between atoms: C_1  and  C_2
REMARK    2  A    between atoms: C_2  and  C_3
REMARK    3  A    between atoms: C_2  and  N_4
REMARK    4  A    between atoms: C_10  and  C_11
REMARK    5  A    between atoms: C_14  and  C_15
REMARK                            x       y       z     vdW  Elec       q    Type
REMARK                         _______ _______ _______ _____ _____    ______ ____
ROOT
ATOM      1  N   UNL     1       6.560   5.224  17.244  0.00  0.00    +0.000 N 
ATOM      2  N   UNL     1       6.775   4.346  16.242  0.00  0.00    +0.000 NA
ATOM      3  N   UNL     1       5.625   3.745  15.979  0.00  0.00    +0.000 NA
ATOM      4  C   UNL     1       4.677   4.258  16.821  0.00  0.00    +0.000 A 
ATOM      5  C   UNL     1       3.318   3.950  16.949  0.00  0.00    +0.000 A 
ATOM      6  C   UNL     1       2.569   4.631  17.917  0.00  0.00    +0.000 A 
ATOM      7  C   UNL     1       3.149   5.608  18.745  0.00  0.00    +0.000 A 
ATOM      8  C   UNL     1       4.516   5.923  18.615  0.00  0.00    +0.000 A 
ATOM      9  C   UNL     1       5.249   5.219  17.648  0.00  0.00    +0.000 A 
ENDROOT
BRANCH   7  10
ATOM     10  C   UNL     1       2.320   6.262  19.755  0.00  0.00    +0.000 A 
ATOM     11  N   UNL     1       1.587   5.615  20.676  0.00  0.00    +0.000 NA
ATOM     12  O   UNL     1       0.926   6.643  21.348  0.00  0.00    +0.000 OA
ATOM     13  C   UNL     1       1.324   7.814  20.767  0.00  0.00    +0.000 A 
ATOM     14  N   UNL     1       2.196   7.634  19.803  0.00  0.00    +0.000 NA
BRANCH  13  15
ATOM     15  C   UNL     1       0.676   9.042  21.208  0.00  0.00    +0.000 A 
ATOM     16  C   UNL     1       0.150   9.181  22.500  0.00  0.00    +0.000 A 
ATOM     17  C   UNL     1      -0.565  10.328  22.857  0.00  0.00    +0.000 A 
ATOM     18  C   UNL     1      -0.750  11.352  21.931  0.00  0.00    +0.000 A 
ATOM     19  C   UNL     1      -0.201  11.247  20.656  0.00  0.00    +0.000 A 
ATOM     20  C   UNL     1       0.512  10.100  20.299  0.00  0.00    +0.000 A 
ENDBRANCH  13  15
ENDBRANCH   7  10
BRANCH   1  22
ATOM     21  C   UNL     1       7.451   7.515  17.483  0.00  0.00    +0.000 C 
ATOM     22  C   UNL     1       7.662   6.024  17.757  0.00  0.00    +0.000 C 
ATOM     23  C   UNL     1       7.887   5.764  19.246  0.00  0.00    +0.000 C 
ENDBRANCH   1  22
TORSDOF 3
ENDMDL
MODEL 5
REMARK VINA RESULT:      -8.0      2.080      3.658
REMARK  Name = 
REMARK  5 active torsions:
REMARK  status: ('A' for Active; 'I' for Inactive)
REMARK    1  A    between atoms: C_1  and  C_2
REMARK    2  A    between atoms: C_2  and  C_3
REMARK    3  A    between atoms: C_2  and  N_4
REMARK    4  A    between atoms: C_10  and  C_11
REMARK    5  A    between atoms: C_14  and  C_15
REMARK                            x       y       z     vdW  Elec       q    Type
REMARK                         _______ _______ _______ _____ _____    ______ ____
ROOT
ATOM      1  N   UNL     1       6.584   5.262  17.259  0.00  0.00    +0.000 N 
ATOM      2  N   UNL     1       6.810   4.382  16.259  0.00  0.00    +0.000 NA
ATOM      3  N   UNL     1       5.663   3.775  15.991  0.00  0.00    +0.000 NA
ATOM      4  C   UNL     1       4.708   4.286  16.826  0.00  0.00    +0.000 A 
ATOM      5  C   UNL     1       3.351   3.972  16.947  0.00  0.00    +0.000 A 
ATOM      6  C   UNL     1       2.593   4.651  17.910  0.00  0.00    +0.000 A 
ATOM      7  C   UNL     1       3.163   5.633  18.739  0.00  0.00    +0.000 A 
ATOM      8  C   UNL     1       4.529   5.954  18.617  0.00  0.00    +0.000 A 
ATOM      9  C   UNL     1       5.272   5.252  17.655  0.00  0.00    +0.000 A 
ENDROOT
BRANCH   7  10
ATOM     10  C   UNL     1       2.326   6.286  19.742  0.00  0.00    +0.000 A 
ATOM     11  N   UNL     1       1.631   5.639  20.693  0.00  0.00    +0.000 NA
ATOM     12  O   UNL     1       0.941   6.662  21.346  0.00  0.00    +0.000 OA
ATOM     13  C   UNL     1       1.287   7.828  20.725  0.00  0.00    +0.000 A 
ATOM     14  N   UNL     1       2.151   7.653  19.753  0.00  0.00    +0.000 NA
BRANCH  13  15
ATOM     15  C   UNL     1       0.600   9.044  21.141  0.00  0.00    +0.000 A 
ATOM     16  C   UNL     1       0.518  10.172  20.312  0.00  0.00    +0.000 A 
ATOM     17  C   UNL     1      -0.049  11.360  20.783  0.00  0.00    +0.000 A 
ATOM     18  C   UNL     1      -0.549  11.430  22.081  0.00  0.00    +0.000 A 
ATOM     19  C   UNL     1      -0.510  10.307  22.904  0.00  0.00    +0.000 A 
ATOM     20  C   UNL     1       0.057   9.121  22.434  0.00  0.00    +0.000 A 
ENDBRANCH  13  15
ENDBRANCH   7  10
BRANCH   1  22
ATOM     21  C   UNL     1       7.456   7.559  17.512  0.00  0.00    +0.000 C 
ATOM     22  C   UNL     1       7.680   6.068  17.777  0.00  0.00    +0.000 C 
ATOM     23  C   UNL     1       7.908   5.800  19.263  0.00  0.00    +0.000 C 
ENDBRANCH   1  22
TORSDOF 3
ENDMDL
MODEL 6
REMARK VINA RESULT:      -7.8      4.011      8.527
REMARK  Name = 
REMARK  5 active torsions:
REMARK  status: ('A' for Active; 'I' for Inactive)
REMARK    1  A    between atoms: C_1  and  C_2
REMARK    2  A    between atoms: C_2  and  C_3
REMARK    3  A    between atoms: C_2  and  N_4
REMARK    4  A    between atoms: C_10  and  C_11
REMARK    5  A    between atoms: C_14  and  C_15
REMARK                            x       y       z     vdW  Elec       q    Type
REMARK                         _______ _______ _______ _____ _____    ______ ____
ROOT
ATOM      1  N   UNL     1       2.183   4.494  19.892  0.00  0.00    +0.000 N 
ATOM      2  N   UNL     1       1.551   5.350  20.724  0.00  0.00    +0.000 NA
ATOM      3  N   UNL     1       1.838   6.581  20.330  0.00  0.00    +0.000 NA
ATOM      4  C   UNL     1       2.653   6.496  19.234  0.00  0.00    +0.000 A 
ATOM      5  C   UNL     1       3.237   7.504  18.460  0.00  0.00    +0.000 A 
ATOM      6  C   UNL     1       4.050   7.130  17.383  0.00  0.00    +0.000 A 
ATOM      7  C   UNL     1       4.281   5.779  17.067  0.00  0.00    +0.000 A 
ATOM      8  C   UNL     1       3.690   4.762  17.843  0.00  0.00    +0.000 A 
ATOM      9  C   UNL     1       2.890   5.160  18.924  0.00  0.00    +0.000 A 
ENDROOT
BRANCH   7  10
ATOM     10  C   UNL     1       5.162   5.454  15.948  0.00  0.00    +0.000 A 
ATOM     11  N   UNL     1       6.207   6.202  15.559  0.00  0.00    +0.000 NA
ATOM     12  O   UNL     1       6.681   5.538  14.427  0.00  0.00    +0.000 OA
ATOM     13  C   UNL     1       5.874   4.451  14.242  0.00  0.00    +0.000 A 
ATOM     14  N   UNL     1       4.944   4.343  15.162  0.00  0.00    +0.000 NA
BRANCH  13  15
ATOM     15  C   UNL     1       6.083   3.651  13.042  0.00  0.00    +0.000 A 
ATOM     16  C   UNL     1       5.040   2.936  12.436  0.00  0.00    +0.000 A 
ATOM     17  C   UNL     1       5.295   2.089  11.353  0.00  0.00    +0.000 A 
ATOM     18  C   UNL     1       6.590   1.958  10.858  0.00  0.00    +0.000 A 
ATOM     19  C   UNL     1       7.630   2.692  11.423  0.00  0.00    +0.000 A 
ATOM     20  C   UNL     1       7.375   3.537  12.506  0.00  0.00    +0.000 A 
ENDBRANCH  13  15
ENDBRANCH   7  10
BRANCH   1  22
ATOM     21  C   UNL     1       1.824   2.719  21.571  0.00  0.00    +0.000 C 
ATOM     22  C   UNL     1       2.059   3.059  20.097  0.00  0.00    +0.000 C 
ATOM     23  C   UNL     1       0.963   2.467  19.213  0.00  0.00    +0.000 C 
ENDBRANCH   1  22
TORSDOF 3
ENDMDL
MODEL 7
REMARK VINA RESULT:      -7.7      1.700      1.854
REMARK  Name = 
REMARK  5 active torsions:
REMARK  status: ('A' for Active; 'I' for Inactive)
REMARK    1  A    between atoms: C_1  and  C_2
REMARK    2  A    between atoms: C_2  and  C_3
REMARK    3  A    between atoms: C_2  and  N_4
REMARK    4  A    between atoms: C_10  and  C_11
REMARK    5  A    between atoms: C_14  and  C_15
REMARK                            x       y       z     vdW  Elec       q    Type
REMARK                         _______ _______ _______ _____ _____    ______ ____
ROOT
ATOM      1  N   UNL     1       3.082   2.927  19.697  0.00  0.00    +0.000 N 
ATOM      2  N   UNL     1       4.191   2.158  19.743  0.00  0.00    +0.000 NA
ATOM      3  N   UNL     1       5.214   2.901  19.349  0.00  0.00    +0.000 NA
ATOM      4  C   UNL     1       4.741   4.152  19.060  0.00  0.00    +0.000 A 
ATOM      5  C   UNL     1       5.413   5.288  18.598  0.00  0.00    +0.000 A 
ATOM      6  C   UNL     1       4.671   6.454  18.369  0.00  0.00    +0.000 A 
ATOM      7  C   UNL     1       3.285   6.503  18.599  0.00  0.00    +0.000 A 
ATOM      8  C   UNL     1       2.607   5.361  19.069  0.00  0.00    +0.000 A 
ATOM      9  C   UNL     1       3.368   4.201  19.278  0.00  0.00    +0.000 A 
ENDROOT
BRANCH   7  10
ATOM     10  C   UNL     1       2.564   7.741  18.315  0.00  0.00    +0.000 A 
ATOM     11  N   UNL     1       2.769   8.512  17.235  0.00  0.00    +0.000 NA
ATOM     12  O   UNL     1       1.917   9.598  17.442  0.00  0.00    +0.000 OA
ATOM     13  C   UNL     1       1.279   9.376  18.629  0.00  0.00    +0.000 A 
ATOM     14  N   UNL     1       1.623   8.241  19.189  0.00  0.00    +0.000 NA
BRANCH  13  15
ATOM     15  C   UNL     1       0.417  10.435  19.140  0.00  0.00    +0.000 A 
ATOM     16  C   UNL     1      -0.938  10.521  18.792  0.00  0.00    +0.000 A 
ATOM     17  C   UNL     1      -1.710  11.610  19.207  0.00  0.00    +0.000 A 
ATOM     18  C   UNL     1      -1.139  12.616  19.983  0.00  0.00    +0.000 A 
ATOM     19  C   UNL     1       0.195  12.525  20.370  0.00  0.00    +0.000 A 
ATOM     20  C   UNL     1       0.966  11.438  19.954  0.00  0.00    +0.000 A 
ENDBRANCH  13  15
ENDBRANCH   7  10
BRANCH   1  22
ATOM     21  C   UNL     1       1.263   2.969  21.367  0.00  0.00    +0.000 C 
ATOM     22  C   UNL     1       1.792   2.363  20.065  0.00  0.00    +0.000 C 
ATOM     23  C   UNL     1       0.778   2.518  18.933  0.00  0.00    +0.000 C 
ENDBRANCH   1  22
TORSDOF 3
ENDMDL
MODEL 8
REMARK VINA RESULT:      -7.6      0.989      1.087
REMARK  Name = 
REMARK  5 active torsions:
REMARK  status: ('A' for Active; 'I' for Inactive)
REMARK    1  A    between atoms: C_1  and  C_2
REMARK    2  A    between atoms: C_2  and  C_3
REMARK    3  A    between atoms: C_2  and  N_4
REMARK    4  A    between atoms: C_10  and  C_11
REMARK    5  A    between atoms: C_14  and  C_15
REMARK                            x       y       z     vdW  Elec       q    Type
REMARK                         _______ _______ _______ _____ _____    ______ ____
ROOT
ATOM      1  N   UNL     1       3.344   3.467  19.621  0.00  0.00    +0.000 N 
ATOM      2  N   UNL     1       4.452   2.770  19.289  0.00  0.00    +0.000 NA
ATOM      3  N   UNL     1       5.238   3.574  18.588  0.00  0.00    +0.000 NA
ATOM      4  C   UNL     1       4.618   4.789  18.486  0.00  0.00    +0.000 A 
ATOM      5  C   UNL     1       5.026   5.962  17.842  0.00  0.00    +0.000 A 
ATOM      6  C   UNL     1       4.178   7.076  17.886  0.00  0.00    +0.000 A 
ATOM      7  C   UNL     1       2.946   7.038  18.562  0.00  0.00    +0.000 A 
ATOM      8  C   UNL     1       2.535   5.860  19.215  0.00  0.00    +0.000 A 
ATOM      9  C   UNL     1       3.394   4.753  19.147  0.00  0.00    +0.000 A 
ENDROOT
BRANCH   7  10
ATOM     10  C   UNL     1       2.095   8.225  18.547  0.00  0.00    +0.000 A 
ATOM     11  N   UNL     1       1.965   9.057  17.501  0.00  0.00    +0.000 NA
ATOM     12  O   UNL     1       1.123  10.060  17.984  0.00  0.00    +0.000 OA
ATOM     13  C   UNL     1       0.825   9.735  19.277  0.00  0.00    +0.000 A 
ATOM     14  N   UNL     1       1.377   8.608  19.660  0.00  0.00    +0.000 NA
BRANCH  13  15
ATOM     15  C   UNL     1       0.054  10.696  20.055  0.00  0.00    +0.000 A 
ATOM     16  C   UNL     1       0.140  10.761  21.452  0.00  0.00    +0.000 A 
ATOM     17  C   UNL     1      -0.696  11.616  22.177  0.00  0.00    +0.000 A 
ATOM     18  C   UNL     1      -1.617  12.422  21.512  0.00  0.00    +0.000 A 
ATOM     19  C   UNL     1      -1.688  12.398  20.122  0.00  0.00    +0.000 A 
ATOM     20  C   UNL     1      -0.854  11.544  19.398  0.00  0.00    +0.000 A 
ENDBRANCH  13  15
ENDBRANCH   7  10
BRANCH   1  22
ATOM     21  C   UNL     1       2.115   3.474  21.763  0.00  0.00    +0.000 C 
ATOM     22  C   UNL     1       2.286   2.825  20.387  0.00  0.00    +0.000 C 
ATOM     23  C   UNL     1       0.969   2.818  19.613  0.00  0.00    +0.000 C 
ENDBRANCH   1  22
TORSDOF 3
ENDMDL
MODEL 9
REMARK VINA RESULT:      -7.6      1.821      2.765
REMARK  Name = 
REMARK  5 active torsions:
REMARK  status: ('A' for Active; 'I' for Inactive)
REMARK    1  A    between atoms: C_1  and  C_2
REMARK    2  A    between atoms: C_2  and  C_3
REMARK    3  A    between atoms: C_2  and  N_4
REMARK    4  A    between atoms: C_10  and  C_11
REMARK    5  A    between atoms: C_14  and  C_15
REMARK                            x       y       z     vdW  Elec       q    Type
REMARK                         _______ _______ _______ _____ _____    ______ ____
ROOT
ATOM      1  N   UNL     1       2.733   4.713  19.634  0.00  0.00    +0.000 N 
ATOM      2  N   UNL     1       3.251   4.339  18.445  0.00  0.00    +0.000 NA
ATOM      3  N   UNL     1       3.263   5.403  17.657  0.00  0.00    +0.000 NA
ATOM      4  C   UNL     1       2.752   6.458  18.363  0.00  0.00    +0.000 A 
ATOM      5  C   UNL     1       2.544   7.787  17.980  0.00  0.00    +0.000 A 
ATOM      6  C   UNL     1       1.986   8.670  18.913  0.00  0.00    +0.000 A 
ATOM      7  C   UNL     1       1.644   8.252  20.212  0.00  0.00    +0.000 A 
ATOM      8  C   UNL     1       1.857   6.914  20.601  0.00  0.00    +0.000 A 
ATOM      9  C   UNL     1       2.405   6.045  19.646  0.00  0.00    +0.000 A 
ENDROOT
BRANCH   7  10
ATOM     10  C   UNL     1       1.040   9.214  21.129  0.00  0.00    +0.000 A 
ATOM     11  N   UNL     1       1.317   9.293  22.441  0.00  0.00    +0.000 NA
ATOM     12  O   UNL     1       0.455  10.292  22.897  0.00  0.00    +0.000 OA
ATOM     13  C   UNL     1      -0.259  10.719  21.814  0.00  0.00    +0.000 A 
ATOM     14  N   UNL     1       0.080  10.106  20.704  0.00  0.00    +0.000 NA
BRANCH  13  15
ATOM     15  C   UNL     1      -1.328  11.683  22.047  0.00  0.00    +0.000 A 
ATOM     16  C   UNL     1      -1.589  12.731  21.154  0.00  0.00    +0.000 A 
ATOM     17  C   UNL     1      -2.546  13.704  21.461  0.00  0.00    +0.000 A 
ATOM     18  C   UNL     1      -3.257  13.632  22.657  0.00  0.00    +0.000 A 
ATOM     19  C   UNL     1      -3.037  12.575  23.536  0.00  0.00    +0.000 A 
ATOM     20  C   UNL     1      -2.081  11.604  23.229  0.00  0.00    +0.000 A 
ENDBRANCH  13  15
ENDBRANCH   7  10
BRANCH   1  22
ATOM     21  C   UNL     1       1.131   3.271  20.841  0.00  0.00    +0.000 C 
ATOM     22  C   UNL     1       2.583   3.735  20.702  0.00  0.00    +0.000 C 
ATOM     23  C   UNL     1       3.524   2.549  20.499  0.00  0.00    +0.000 C 
ENDBRANCH   1  22
TORSDOF 3
ENDMDL
