MODEL 1
REMARK VINA RESULT:      -8.6      0.000      0.000
REMARK  Name = 
REMARK  8 active torsions:
REMARK  status: ('A' for Active; 'I' for Inactive)
REMARK    1  A    between atoms: C_1  and  N_2
REMARK    2  A    between atoms: N_2  and  C_3
REMARK    3  A    between atoms: N_2  and  C_4
REMARK    4  A    between atoms: C_4  and  C_5
REMARK    5  A    between atoms: C_14  and  O_15
REMARK    6  A    between atoms: C_14  and  C_16
REMARK    7  A    between atoms: C_16  and  C_17
REMARK    8  A    between atoms: C_17  and  C_18
REMARK                            x       y       z     vdW  Elec       q    Type
REMARK                         _______ _______ _______ _____ _____    ______ ____
ROOT
ATOM      1  C   UNL     1       2.313   5.343  19.334  0.00  0.00    +0.000 C 
ATOM      2  C   UNL     1       1.911   4.730  17.940  0.00  0.00    +0.000 C 
ATOM      3  C   UNL     1       2.405   3.304  17.698  0.00  0.00    +0.000 C 
ATOM      4  C   UNL     1       3.934   3.210  17.766  0.00  0.00    +0.000 C 
ATOM      5  C   UNL     1       4.361   3.692  19.156  0.00  0.00    +0.000 C 
ATOM      6  C   UNL     1       3.870   5.107  19.467  0.00  0.00    +0.000 C 
ENDROOT
BRANCH   1   7
ATOM      7  C   UNL     1       2.050   6.886  19.312  0.00  0.00    +0.000 A 
ATOM      8  C   UNL     1       2.263   7.653  18.148  0.00  0.00    +0.000 A 
ATOM      9  C   UNL     1       1.921   9.010  18.090  0.00  0.00    +0.000 A 
ATOM     10  C   UNL     1       1.370   9.632  19.202  0.00  0.00    +0.000 A 
ATOM     11 CL   UNL     1       0.908  11.285  19.122  0.00  0.00    +0.000 Cl
ATOM     12  C   UNL     1       1.187   8.918  20.380  0.00  0.00    +0.000 A 
ATOM     13  C   UNL     1       1.536   7.563  20.436  0.00  0.00    +0.000 A 
ENDBRANCH   1   7
BRANCH   1  15
ATOM     14  C   UNL     1       0.684   3.556  20.006  0.00  0.00    +0.000 C 
ATOM     15  N   UNL     1       1.578   4.633  20.436  0.00  0.00    +0.000 NA
ATOM     16  C   UNL     1       2.426   4.128  21.522  0.00  0.00    +0.000 C 
ENDBRANCH   1  15
BRANCH   4  17
ATOM     17  O   UNL     1       4.306   1.832  17.651  0.00  0.00    +0.000 OA
ATOM     18  H   UNL     1       4.701   1.556  18.498  0.00  0.00    +0.000 HD
ENDBRANCH   4  17
BRANCH   4  19
ATOM     19  C   UNL     1       4.598   3.982  16.596  0.00  0.00    +0.000 C 
BRANCH  19  20
ATOM     20  C   UNL     1       6.130   3.913  16.577  0.00  0.00    +0.000 C 
BRANCH  20  21
ATOM     21  C   UNL     1       6.751   5.176  17.133  0.00  0.00    +0.000 A 
ATOM     22  C   UNL     1       7.578   5.118  18.265  0.00  0.00    +0.000 A 
ATOM     23  C   UNL     1       8.160   6.279  18.778  0.00  0.00    +0.000 A 
ATOM     24  C   UNL     1       7.912   7.504  18.166  0.00  0.00    +0.000 A 
ATOM     25 CL   UNL     1       8.637   8.935  18.791  0.00  0.00    +0.000 Cl
ATOM     26  C   UNL     1       7.083   7.580  17.049  0.00  0.00    +0.000 A 
ATOM     27  C   UNL     1       6.500   6.418  16.534  0.00  0.00    +0.000 A 
ENDBRANCH  20  21
ENDBRANCH  19  20
ENDBRANCH   4  19
TORSDOF 6
ENDMDL
MODEL 2
REMARK VINA RESULT:      -8.1      0.175      1.348
REMARK  Name = 
REMARK  8 active torsions:
REMARK  status: ('A' for Active; 'I' for Inactive)
REMARK    1  A    between atoms: C_1  and  N_2
REMARK    2  A    between atoms: N_2  and  C_3
REMARK    3  A    between atoms: N_2  and  C_4
REMARK    4  A    between atoms: C_4  and  C_5
REMARK    5  A    between atoms: C_14  and  O_15
REMARK    6  A    between atoms: C_14  and  C_16
REMARK    7  A    between atoms: C_16  and  C_17
REMARK    8  A    between atoms: C_17  and  C_18
REMARK                            x       y       z     vdW  Elec       q    Type
REMARK                         _______ _______ _______ _____ _____    ______ ____
ROOT
ATOM      1  C   UNL     1       2.173   5.216  19.338  0.00  0.00    +0.000 C 
ATOM      2  C   UNL     1       1.818   4.581  17.942  0.00  0.00    +0.000 C 
ATOM      3  C   UNL     1       2.360   3.170  17.718  0.00  0.00    +0.000 C 
ATOM      4  C   UNL     1       3.890   3.125  17.816  0.00  0.00    +0.000 C 
ATOM      5  C   UNL     1       4.276   3.629  19.210  0.00  0.00    +0.000 C 
ATOM      6  C   UNL     1       3.735   5.030  19.503  0.00  0.00    +0.000 C 
ENDROOT
BRANCH   1   7
ATOM      7  C   UNL     1       1.863   6.749  19.301  0.00  0.00    +0.000 A 
ATOM      8  C   UNL     1       1.455   7.446  20.458  0.00  0.00    +0.000 A 
ATOM      9  C   UNL     1       1.288   8.836  20.457  0.00  0.00    +0.000 A 
ATOM     10  C   UNL     1       1.511   9.558  19.292  0.00  0.00    +0.000 A 
ATOM     11 CL   UNL     1       1.349  11.269  19.296  0.00  0.00    +0.000 Cl
ATOM     12  C   UNL     1       1.870   8.899  18.123  0.00  0.00    +0.000 A 
ATOM     13  C   UNL     1       2.031   7.509  18.126  0.00  0.00    +0.000 A 
ENDBRANCH   1   7
BRANCH   1  15
ATOM     14  C   UNL     1       0.565   3.402  19.990  0.00  0.00    +0.000 C 
ATOM     15  N   UNL     1       1.441   4.490  20.431  0.00  0.00    +0.000 NA
ATOM     16  C   UNL     1       2.287   3.991  21.521  0.00  0.00    +0.000 C 
ENDBRANCH   1  15
BRANCH   4  17
ATOM     17  O   UNL     1       4.308   1.758  17.718  0.00  0.00    +0.000 OA
ATOM     18  H   UNL     1       3.797   1.340  17.001  0.00  0.00    +0.000 HD
ENDBRANCH   4  17
BRANCH   4  19
ATOM     19  C   UNL     1       4.552   3.910  16.653  0.00  0.00    +0.000 C 
BRANCH  19  20
ATOM     20  C   UNL     1       6.084   3.835  16.626  0.00  0.00    +0.000 C 
BRANCH  20  21
ATOM     21  C   UNL     1       6.712   5.113  17.140  0.00  0.00    +0.000 A 
ATOM     22  C   UNL     1       6.458   6.333  16.497  0.00  0.00    +0.000 A 
ATOM     23  C   UNL     1       7.028   7.517  16.971  0.00  0.00    +0.000 A 
ATOM     24  C   UNL     1       7.860   7.484  18.085  0.00  0.00    +0.000 A 
ATOM     25 CL   UNL     1       8.556   8.943  18.677  0.00  0.00    +0.000 Cl
ATOM     26  C   UNL     1       8.133   6.278  18.727  0.00  0.00    +0.000 A 
ATOM     27  C   UNL     1       7.562   5.093  18.253  0.00  0.00    +0.000 A 
ENDBRANCH  20  21
ENDBRANCH  19  20
ENDBRANCH   4  19
TORSDOF 6
ENDMDL
MODEL 3
REMARK VINA RESULT:      -7.8      2.298      3.574
REMARK  Name = 
REMARK  8 active torsions:
REMARK  status: ('A' for Active; 'I' for Inactive)
REMARK    1  A    between atoms: C_1  and  N_2
REMARK    2  A    between atoms: N_2  and  C_3
REMARK    3  A    between atoms: N_2  and  C_4
REMARK    4  A    between atoms: C_4  and  C_5
REMARK    5  A    between atoms: C_14  and  O_15
REMARK    6  A    between atoms: C_14  and  C_16
REMARK    7  A    between atoms: C_16  and  C_17
REMARK    8  A    between atoms: C_17  and  C_18
REMARK                            x       y       z     vdW  Elec       q    Type
REMARK                         _______ _______ _______ _____ _____    ______ ____
ROOT
ATOM      1  C   UNL     1       3.843   5.925  18.214  0.00  0.00    +0.000 C 
ATOM      2  C   UNL     1       4.409   6.290  16.790  0.00  0.00    +0.000 C 
ATOM      3  C   UNL     1       5.639   5.491  16.361  0.00  0.00    +0.000 C 
ATOM      4  C   UNL     1       6.810   5.681  17.334  0.00  0.00    +0.000 C 
ATOM      5  C   UNL     1       6.336   5.226  18.717  0.00  0.00    +0.000 C 
ATOM      6  C   UNL     1       5.087   5.973  19.189  0.00  0.00    +0.000 C 
ENDROOT
BRANCH   1   7
ATOM      7  C   UNL     1       2.825   7.026  18.661  0.00  0.00    +0.000 A 
ATOM      8  C   UNL     1       2.309   7.063  19.973  0.00  0.00    +0.000 A 
ATOM      9  C   UNL     1       1.489   8.110  20.411  0.00  0.00    +0.000 A 
ATOM     10  C   UNL     1       1.156   9.137  19.539  0.00  0.00    +0.000 A 
ATOM     11 CL   UNL     1       0.186  10.447  20.084  0.00  0.00    +0.000 Cl
ATOM     12  C   UNL     1       1.610   9.110  18.226  0.00  0.00    +0.000 A 
ATOM     13  C   UNL     1       2.424   8.059  17.790  0.00  0.00    +0.000 A 
ENDBRANCH   1   7
BRANCH   1  15
ATOM     14  C   UNL     1       3.344   3.794  19.443  0.00  0.00    +0.000 C 
ATOM     15  N   UNL     1       3.249   4.545  18.189  0.00  0.00    +0.000 NA
ATOM     16  C   UNL     1       1.864   4.473  17.709  0.00  0.00    +0.000 C 
ENDBRANCH   1  15
BRANCH   4  17
ATOM     17  O   UNL     1       7.874   4.810  16.932  0.00  0.00    +0.000 OA
ATOM     18  H   UNL     1       7.556   4.272  16.185  0.00  0.00    +0.000 HD
ENDBRANCH   4  17
BRANCH   4  19
ATOM     19  C   UNL     1       7.344   7.136  17.294  0.00  0.00    +0.000 C 
BRANCH  19  20
ATOM     20  C   UNL     1       8.200   7.533  18.504  0.00  0.00    +0.000 C 
BRANCH  20  21
ATOM     21  C   UNL     1       8.513   9.014  18.502  0.00  0.00    +0.000 A 
ATOM     22  C   UNL     1       7.962   9.851  17.520  0.00  0.00    +0.000 A 
ATOM     23  C   UNL     1       8.241  11.220  17.518  0.00  0.00    +0.000 A 
ATOM     24  C   UNL     1       9.078  11.755  18.492  0.00  0.00    +0.000 A 
ATOM     25 CL   UNL     1       9.415  13.444  18.496  0.00  0.00    +0.000 Cl
ATOM     26  C   UNL     1       9.643  10.935  19.466  0.00  0.00    +0.000 A 
ATOM     27  C   UNL     1       9.364   9.565  19.469  0.00  0.00    +0.000 A 
ENDBRANCH  20  21
ENDBRANCH  19  20
ENDBRANCH   4  19
TORSDOF 6
ENDMDL
MODEL 4
REMARK VINA RESULT:      -7.6      2.273      3.286
REMARK  Name = 
REMARK  8 active torsions:
REMARK  status: ('A' for Active; 'I' for Inactive)
REMARK    1  A    between atoms: C_1  and  N_2
REMARK    2  A    between atoms: N_2  and  C_3
REMARK    3  A    between atoms: N_2  and  C_4
REMARK    4  A    between atoms: C_4  and  C_5
REMARK    5  A    between atoms: C_14  and  O_15
REMARK    6  A    between atoms: C_14  and  C_16
REMARK    7  A    between atoms: C_16  and  C_17
REMARK    8  A    between atoms: C_17  and  C_18
REMARK                            x       y       z     vdW  Elec       q    Type
REMARK                         _______ _______ _______ _____ _____    ______ ____
ROOT
ATOM      1  C   UNL     1       3.845   5.998  18.286  0.00  0.00    +0.000 C 
ATOM      2  C   UNL     1       4.380   6.312  16.838  0.00  0.00    +0.000 C 
ATOM      3  C   UNL     1       5.562   5.454  16.388  0.00  0.00    +0.000 C 
ATOM      4  C   UNL     1       6.770   5.612  17.320  0.00  0.00    +0.000 C 
ATOM      5  C   UNL     1       6.321   5.204  18.726  0.00  0.00    +0.000 C 
ATOM      6  C   UNL     1       5.120   6.012  19.221  0.00  0.00    +0.000 C 
ENDROOT
BRANCH   1   7
ATOM      7  C   UNL     1       2.889   7.149  18.742  0.00  0.00    +0.000 A 
ATOM      8  C   UNL     1       2.514   8.188  17.864  0.00  0.00    +0.000 A 
ATOM      9  C   UNL     1       1.571   9.155  18.231  0.00  0.00    +0.000 A 
ATOM     10  C   UNL     1       0.990   9.112  19.491  0.00  0.00    +0.000 A 
ATOM     11 CL   UNL     1      -0.201  10.270  19.929  0.00  0.00    +0.000 Cl
ATOM     12  C   UNL     1       1.367   8.128  20.397  0.00  0.00    +0.000 A 
ATOM     13  C   UNL     1       2.316   7.167  20.030  0.00  0.00    +0.000 A 
ENDBRANCH   1   7
BRANCH   1  15
ATOM     14  C   UNL     1       3.133   3.993  19.617  0.00  0.00    +0.000 C 
ATOM     15  N   UNL     1       3.193   4.644  18.307  0.00  0.00    +0.000 NA
ATOM     16  C   UNL     1       1.859   4.587  17.698  0.00  0.00    +0.000 C 
ENDBRANCH   1  15
BRANCH   4  17
ATOM     17  O   UNL     1       7.783   4.690  16.903  0.00  0.00    +0.000 OA
ATOM     18  H   UNL     1       8.122   4.987  16.039  0.00  0.00    +0.000 HD
ENDBRANCH   4  17
BRANCH   4  19
ATOM     19  C   UNL     1       7.363   7.043  17.234  0.00  0.00    +0.000 C 
BRANCH  19  20
ATOM     20  C   UNL     1       8.167   7.473  18.468  0.00  0.00    +0.000 C 
BRANCH  20  21
ATOM     21  C   UNL     1       8.474   8.954  18.443  0.00  0.00    +0.000 A 
ATOM     22  C   UNL     1       9.352   9.510  19.386  0.00  0.00    +0.000 A 
ATOM     23  C   UNL     1       9.647  10.875  19.363  0.00  0.00    +0.000 A 
ATOM     24  C   UNL     1       9.059  11.691  18.401  0.00  0.00    +0.000 A 
ATOM     25 CL   UNL     1       9.428  13.372  18.365  0.00  0.00    +0.000 Cl
ATOM     26  C   UNL     1       8.175  11.157  17.466  0.00  0.00    +0.000 A 
ATOM     27  C   UNL     1       7.880   9.791  17.488  0.00  0.00    +0.000 A 
ENDBRANCH  20  21
ENDBRANCH  19  20
ENDBRANCH   4  19
TORSDOF 6
ENDMDL
MODEL 5
REMARK VINA RESULT:      -7.3      2.644      3.896
REMARK  Name = 
REMARK  8 active torsions:
REMARK  status: ('A' for Active; 'I' for Inactive)
REMARK    1  A    between atoms: C_1  and  N_2
REMARK    2  A    between atoms: N_2  and  C_3
REMARK    3  A    between atoms: N_2  and  C_4
REMARK    4  A    between atoms: C_4  and  C_5
REMARK    5  A    between atoms: C_14  and  O_15
REMARK    6  A    between atoms: C_14  and  C_16
REMARK    7  A    between atoms: C_16  and  C_17
REMARK    8  A    between atoms: C_17  and  C_18
REMARK                            x       y       z     vdW  Elec       q    Type
REMARK                         _______ _______ _______ _____ _____    ______ ____
ROOT
ATOM      1  C   UNL     1       3.917   5.798  18.243  0.00  0.00    +0.000 C 
ATOM      2  C   UNL     1       4.143   6.676  16.955  0.00  0.00    +0.000 C 
ATOM      3  C   UNL     1       5.336   6.262  16.094  0.00  0.00    +0.000 C 
ATOM      4  C   UNL     1       6.654   6.326  16.875  0.00  0.00    +0.000 C 
ATOM      5  C   UNL     1       6.518   5.391  18.081  0.00  0.00    +0.000 C 
ATOM      6  C   UNL     1       5.321   5.740  18.968  0.00  0.00    +0.000 C 
ENDROOT
BRANCH   1   7
ATOM      7  C   UNL     1       2.905   6.523  19.190  0.00  0.00    +0.000 A 
ATOM      8  C   UNL     1       2.450   7.831  18.920  0.00  0.00    +0.000 A 
ATOM      9  C   UNL     1       1.459   8.440  19.700  0.00  0.00    +0.000 A 
ATOM     10  C   UNL     1       0.910   7.757  20.776  0.00  0.00    +0.000 A 
ATOM     11 CL   UNL     1      -0.338   8.482  21.709  0.00  0.00    +0.000 Cl
ATOM     12  C   UNL     1       1.365   6.484  21.098  0.00  0.00    +0.000 A 
ATOM     13  C   UNL     1       2.361   5.881  20.320  0.00  0.00    +0.000 A 
ENDBRANCH   1   7
BRANCH   1  15
ATOM     14  C   UNL     1       3.852   3.345  18.771  0.00  0.00    +0.000 C 
ATOM     15  N   UNL     1       3.474   4.417  17.848  0.00  0.00    +0.000 NA
ATOM     16  C   UNL     1       2.043   4.287  17.546  0.00  0.00    +0.000 C 
ENDBRANCH   1  15
BRANCH   4  17
ATOM     17  O   UNL     1       7.697   5.810  16.041  0.00  0.00    +0.000 OA
ATOM     18  H   UNL     1       7.852   6.451  15.324  0.00  0.00    +0.000 HD
ENDBRANCH   4  17
BRANCH   4  19
ATOM     19  C   UNL     1       7.018   7.788  17.245  0.00  0.00    +0.000 C 
BRANCH  19  20
ATOM     20  C   UNL     1       8.187   7.922  18.229  0.00  0.00    +0.000 C 
BRANCH  20  21
ATOM     21  C   UNL     1       8.582   9.369  18.429  0.00  0.00    +0.000 A 
ATOM     22  C   UNL     1       8.131  10.355  17.538  0.00  0.00    +0.000 A 
ATOM     23  C   UNL     1       8.485  11.693  17.722  0.00  0.00    +0.000 A 
ATOM     24  C   UNL     1       9.297  12.051  18.794  0.00  0.00    +0.000 A 
ATOM     25 CL   UNL     1       9.726  13.702  19.028  0.00  0.00    +0.000 Cl
ATOM     26  C   UNL     1       9.764  11.083  19.680  0.00  0.00    +0.000 A 
ATOM     27  C   UNL     1       9.409   9.743  19.497  0.00  0.00    +0.000 A 
ENDBRANCH  20  21
ENDBRANCH  19  20
ENDBRANCH   4  19
TORSDOF 6
ENDMDL
MODEL 6
REMARK VINA RESULT:      -7.2      0.933      1.408
REMARK  Name = 
REMARK  8 active torsions:
REMARK  status: ('A' for Active; 'I' for Inactive)
REMARK    1  A    between atoms: C_1  and  N_2
REMARK    2  A    between atoms: N_2  and  C_3
REMARK    3  A    between atoms: N_2  and  C_4
REMARK    4  A    between atoms: C_4  and  C_5
REMARK    5  A    between atoms: C_14  and  O_15
REMARK    6  A    between atoms: C_14  and  C_16
REMARK    7  A    between atoms: C_16  and  C_17
REMARK    8  A    between atoms: C_17  and  C_18
REMARK                            x       y       z     vdW  Elec       q    Type
REMARK                         _______ _______ _______ _____ _____    ______ ____
ROOT
ATOM      1  C   UNL     1       2.222   4.435  19.392  0.00  0.00    +0.000 C 
ATOM      2  C   UNL     1       2.034   3.840  17.946  0.00  0.00    +0.000 C 
ATOM      3  C   UNL     1       2.413   2.366  17.802  0.00  0.00    +0.000 C 
ATOM      4  C   UNL     1       3.881   2.116  18.166  0.00  0.00    +0.000 C 
ATOM      5  C   UNL     1       4.081   2.578  19.613  0.00  0.00    +0.000 C 
ATOM      6  C   UNL     1       3.691   4.042  19.824  0.00  0.00    +0.000 C 
ENDROOT
BRANCH   1   7
ATOM      7  C   UNL     1       2.132   5.996  19.322  0.00  0.00    +0.000 A 
ATOM      8  C   UNL     1       2.296   6.690  18.104  0.00  0.00    +0.000 A 
ATOM      9  C   UNL     1       2.103   8.074  18.016  0.00  0.00    +0.000 A 
ATOM     10  C   UNL     1       1.754   8.797  19.148  0.00  0.00    +0.000 A 
ATOM     11 CL   UNL     1       1.473  10.488  19.036  0.00  0.00    +0.000 Cl
ATOM     12  C   UNL     1       1.627   8.153  20.373  0.00  0.00    +0.000 A 
ATOM     13  C   UNL     1       1.827   6.770  20.459  0.00  0.00    +0.000 A 
ENDBRANCH   1   7
BRANCH   1  15
ATOM     14  C   UNL     1       0.334   2.818  19.741  0.00  0.00    +0.000 C 
ATOM     15  N   UNL     1       1.218   3.827  20.330  0.00  0.00    +0.000 NA
ATOM     16  C   UNL     1       1.779   3.284  21.573  0.00  0.00    +0.000 C 
ENDBRANCH   1  15
BRANCH   4  17
ATOM     17  O   UNL     1       4.121   0.705  18.124  0.00  0.00    +0.000 OA
ATOM     18  H   UNL     1       3.484   0.274  18.722  0.00  0.00    +0.000 HD
ENDBRANCH   4  17
BRANCH   4  19
ATOM     19  C   UNL     1       4.836   2.792  17.147  0.00  0.00    +0.000 C 
BRANCH  19  20
ATOM     20  C   UNL     1       4.408   4.200  16.712  0.00  0.00    +0.000 C 
BRANCH  20  21
ATOM     21  C   UNL     1       5.437   5.239  17.102  0.00  0.00    +0.000 A 
ATOM     22  C   UNL     1       5.303   6.565  16.664  0.00  0.00    +0.000 A 
ATOM     23  C   UNL     1       6.244   7.531  17.027  0.00  0.00    +0.000 A 
ATOM     24  C   UNL     1       7.327   7.173  17.824  0.00  0.00    +0.000 A 
ATOM     25 CL   UNL     1       8.483   8.365  18.281  0.00  0.00    +0.000 Cl
ATOM     26  C   UNL     1       7.481   5.858  18.257  0.00  0.00    +0.000 A 
ATOM     27  C   UNL     1       6.539   4.891  17.894  0.00  0.00    +0.000 A 
ENDBRANCH  20  21
ENDBRANCH  19  20
ENDBRANCH   4  19
TORSDOF 6
ENDMDL
MODEL 7
REMARK VINA RESULT:      -7.1      2.327      6.582
REMARK  Name = 
REMARK  8 active torsions:
REMARK  status: ('A' for Active; 'I' for Inactive)
REMARK    1  A    between atoms: C_1  and  N_2
REMARK    2  A    between atoms: N_2  and  C_3
REMARK    3  A    between atoms: N_2  and  C_4
REMARK    4  A    between atoms: C_4  and  C_5
REMARK    5  A    between atoms: C_14  and  O_15
REMARK    6  A    between atoms: C_14  and  C_16
REMARK    7  A    between atoms: C_16  and  C_17
REMARK    8  A    between atoms: C_17  and  C_18
REMARK                            x       y       z     vdW  Elec       q    Type
REMARK                         _______ _______ _______ _____ _____    ______ ____
ROOT
ATOM      1  C   UNL     1       4.142   3.889  17.964  0.00  0.00    +0.000 C 
ATOM      2  C   UNL     1       4.529   4.696  19.260  0.00  0.00    +0.000 C 
ATOM      3  C   UNL     1       3.447   4.741  20.338  0.00  0.00    +0.000 C 
ATOM      4  C   UNL     1       2.153   5.383  19.821  0.00  0.00    +0.000 C 
ATOM      5  C   UNL     1       1.677   4.554  18.624  0.00  0.00    +0.000 C 
ATOM      6  C   UNL     1       2.732   4.450  17.521  0.00  0.00    +0.000 C 
ENDROOT
BRANCH   1   7
ATOM      7  C   UNL     1       5.175   4.205  16.832  0.00  0.00    +0.000 A 
ATOM      8  C   UNL     1       5.019   3.692  15.527  0.00  0.00    +0.000 A 
ATOM      9  C   UNL     1       5.875   4.064  14.484  0.00  0.00    +0.000 A 
ATOM     10  C   UNL     1       6.916   4.950  14.727  0.00  0.00    +0.000 A 
ATOM     11 CL   UNL     1       7.942   5.444  13.441  0.00  0.00    +0.000 Cl
ATOM     12  C   UNL     1       7.126   5.441  16.010  0.00  0.00    +0.000 A 
ATOM     13  C   UNL     1       6.272   5.062  17.052  0.00  0.00    +0.000 A 
ENDBRANCH   1   7
BRANCH   1  15
ATOM     14  C   UNL     1       4.378   2.056  19.663  0.00  0.00    +0.000 C 
ATOM     15  N   UNL     1       4.047   2.424  18.284  0.00  0.00    +0.000 NA
ATOM     16  C   UNL     1       2.770   1.792  17.930  0.00  0.00    +0.000 C 
ENDBRANCH   1  15
BRANCH   4  17
ATOM     17  O   UNL     1       1.158   5.276  20.846  0.00  0.00    +0.000 OA
ATOM     18  H   UNL     1       1.457   5.802  21.610  0.00  0.00    +0.000 HD
ENDBRANCH   4  17
BRANCH   4  19
ATOM     19  C   UNL     1       2.357   6.888  19.509  0.00  0.00    +0.000 C 
BRANCH  19  20
ATOM     20  C   UNL     1       1.808   7.840  20.580  0.00  0.00    +0.000 C 
BRANCH  20  21
ATOM     21  C   UNL     1       1.058   9.000  19.961  0.00  0.00    +0.000 A 
ATOM     22  C   UNL     1       0.096   9.697  20.707  0.00  0.00    +0.000 A 
ATOM     23  C   UNL     1      -0.593  10.774  20.145  0.00  0.00    +0.000 A 
ATOM     24  C   UNL     1      -0.329  11.153  18.832  0.00  0.00    +0.000 A 
ATOM     25 CL   UNL     1      -1.170  12.486  18.140  0.00  0.00    +0.000 Cl
ATOM     26  C   UNL     1       0.615  10.462  18.074  0.00  0.00    +0.000 A 
ATOM     27  C   UNL     1       1.305   9.385  18.637  0.00  0.00    +0.000 A 
ENDBRANCH  20  21
ENDBRANCH  19  20
ENDBRANCH   4  19
TORSDOF 6
ENDMDL
MODEL 8
REMARK VINA RESULT:      -7.0      2.362      3.654
REMARK  Name = 
REMARK  8 active torsions:
REMARK  status: ('A' for Active; 'I' for Inactive)
REMARK    1  A    between atoms: C_1  and  N_2
REMARK    2  A    between atoms: N_2  and  C_3
REMARK    3  A    between atoms: N_2  and  C_4
REMARK    4  A    between atoms: C_4  and  C_5
REMARK    5  A    between atoms: C_14  and  O_15
REMARK    6  A    between atoms: C_14  and  C_16
REMARK    7  A    between atoms: C_16  and  C_17
REMARK    8  A    between atoms: C_17  and  C_18
REMARK                            x       y       z     vdW  Elec       q    Type
REMARK                         _______ _______ _______ _____ _____    ______ ____
ROOT
ATOM      1  C   UNL     1       4.014   6.103  18.060  0.00  0.00    +0.000 C 
ATOM      2  C   UNL     1       4.998   6.724  16.999  0.00  0.00    +0.000 C 
ATOM      3  C   UNL     1       6.218   5.863  16.671  0.00  0.00    +0.000 C 
ATOM      4  C   UNL     1       7.071   5.584  17.915  0.00  0.00    +0.000 C 
ATOM      5  C   UNL     1       6.176   4.873  18.934  0.00  0.00    +0.000 C 
ATOM      6  C   UNL     1       4.922   5.676  19.282  0.00  0.00    +0.000 C 
ENDROOT
BRANCH   1   7
ATOM      7  C   UNL     1       3.020   7.208  18.549  0.00  0.00    +0.000 A 
ATOM      8  C   UNL     1       2.605   8.254  17.699  0.00  0.00    +0.000 A 
ATOM      9  C   UNL     1       1.629   9.178  18.094  0.00  0.00    +0.000 A 
ATOM     10  C   UNL     1       1.057   9.084  19.355  0.00  0.00    +0.000 A 
ATOM     11 CL   UNL     1      -0.171  10.188  19.827  0.00  0.00    +0.000 Cl
ATOM     12  C   UNL     1       1.474   8.092  20.235  0.00  0.00    +0.000 A 
ATOM     13  C   UNL     1       2.454   7.174  19.840  0.00  0.00    +0.000 A 
ENDBRANCH   1   7
BRANCH   1  15
ATOM     14  C   UNL     1       4.086   4.165  16.467  0.00  0.00    +0.000 C 
ATOM     15  N   UNL     1       3.323   4.904  17.476  0.00  0.00    +0.000 NA
ATOM     16  C   UNL     1       2.804   3.945  18.458  0.00  0.00    +0.000 C 
ENDBRANCH   1  15
BRANCH   4  17
ATOM     17  O   UNL     1       8.117   4.678  17.548  0.00  0.00    +0.000 OA
ATOM     18  H   UNL     1       7.836   3.779  17.797  0.00  0.00    +0.000 HD
ENDBRANCH   4  17
BRANCH   4  19
ATOM     19  C   UNL     1       7.730   6.883  18.448  0.00  0.00    +0.000 C 
BRANCH  19  20
ATOM     20  C   UNL     1       7.725   8.053  17.455  0.00  0.00    +0.000 C 
BRANCH  20  21
ATOM     21  C   UNL     1       8.337   9.298  18.059  0.00  0.00    +0.000 A 
ATOM     22  C   UNL     1       8.228  10.531  17.398  0.00  0.00    +0.000 A 
ATOM     23  C   UNL     1       8.784  11.685  17.955  0.00  0.00    +0.000 A 
ATOM     24  C   UNL     1       9.457  11.610  19.171  0.00  0.00    +0.000 A 
ATOM     25 CL   UNL     1      10.134  13.034  19.863  0.00  0.00    +0.000 Cl
ATOM     26  C   UNL     1       9.585  10.391  19.833  0.00  0.00    +0.000 A 
ATOM     27  C   UNL     1       9.029   9.235  19.276  0.00  0.00    +0.000 A 
ENDBRANCH  20  21
ENDBRANCH  19  20
ENDBRANCH   4  19
TORSDOF 6
ENDMDL
MODEL 9
REMARK VINA RESULT:      -6.9      2.510      6.630
REMARK  Name = 
REMARK  8 active torsions:
REMARK  status: ('A' for Active; 'I' for Inactive)
REMARK    1  A    between atoms: C_1  and  N_2
REMARK    2  A    between atoms: N_2  and  C_3
REMARK    3  A    between atoms: N_2  and  C_4
REMARK    4  A    between atoms: C_4  and  C_5
REMARK    5  A    between atoms: C_14  and  O_15
REMARK    6  A    between atoms: C_14  and  C_16
REMARK    7  A    between atoms: C_16  and  C_17
REMARK    8  A    between atoms: C_17  and  C_18
REMARK                            x       y       z     vdW  Elec       q    Type
REMARK                         _______ _______ _______ _____ _____    ______ ____
ROOT
ATOM      1  C   UNL     1       4.083   3.927  17.773  0.00  0.00    +0.000 C 
ATOM      2  C   UNL     1       4.612   4.525  19.131  0.00  0.00    +0.000 C 
ATOM      3  C   UNL     1       3.566   4.629  20.240  0.00  0.00    +0.000 C 
ATOM      4  C   UNL     1       2.385   5.517  19.830  0.00  0.00    +0.000 C 
ATOM      5  C   UNL     1       1.766   4.903  18.570  0.00  0.00    +0.000 C 
ATOM      6  C   UNL     1       2.775   4.748  17.431  0.00  0.00    +0.000 C 
ENDROOT
BRANCH   1   7
ATOM      7  C   UNL     1       5.137   4.192  16.649  0.00  0.00    +0.000 A 
ATOM      8  C   UNL     1       4.832   3.980  15.288  0.00  0.00    +0.000 A 
ATOM      9  C   UNL     1       5.732   4.324  14.271  0.00  0.00    +0.000 A 
ATOM     10  C   UNL     1       6.963   4.875  14.595  0.00  0.00    +0.000 A 
ATOM     11 CL   UNL     1       8.053   5.340  13.350  0.00  0.00    +0.000 Cl
ATOM     12  C   UNL     1       7.315   5.058  15.927  0.00  0.00    +0.000 A 
ATOM     13  C   UNL     1       6.416   4.707  16.941  0.00  0.00    +0.000 A 
ENDBRANCH   1   7
BRANCH   1  15
ATOM     14  C   UNL     1       4.166   1.881  19.225  0.00  0.00    +0.000 C 
ATOM     15  N   UNL     1       3.757   2.471  17.948  0.00  0.00    +0.000 NA
ATOM     16  C   UNL     1       2.356   2.113  17.700  0.00  0.00    +0.000 C 
ENDBRANCH   1  15
BRANCH   4  17
ATOM     17  O   UNL     1       1.400   5.464  20.867  0.00  0.00    +0.000 OA
ATOM     18  H   UNL     1       0.528   5.621  20.462  0.00  0.00    +0.000 HD
ENDBRANCH   4  17
BRANCH   4  19
ATOM     19  C   UNL     1       2.824   6.995  19.664  0.00  0.00    +0.000 C 
BRANCH  19  20
ATOM     20  C   UNL     1       1.790   7.892  18.971  0.00  0.00    +0.000 C 
BRANCH  20  21
ATOM     21  C   UNL     1       1.097   8.807  19.958  0.00  0.00    +0.000 A 
ATOM     22  C   UNL     1       1.274   8.622  21.338  0.00  0.00    +0.000 A 
ATOM     23  C   UNL     1       0.644   9.467  22.253  0.00  0.00    +0.000 A 
ATOM     24  C   UNL     1      -0.172  10.497  21.794  0.00  0.00    +0.000 A 
ATOM     25 CL   UNL     1      -0.941  11.546  22.921  0.00  0.00    +0.000 Cl
ATOM     26  C   UNL     1      -0.368  10.685  20.427  0.00  0.00    +0.000 A 
ATOM     27  C   UNL     1       0.262   9.840  19.511  0.00  0.00    +0.000 A 
ENDBRANCH  20  21
ENDBRANCH  19  20
ENDBRANCH   4  19
TORSDOF 6
ENDMDL
