MODEL 1
REMARK VINA RESULT:      -8.8      0.000      0.000
REMARK  Name = 
REMARK  4 active torsions:
REMARK  status: ('A' for Active; 'I' for Inactive)
REMARK    1  A    between atoms: N_2  and  C_4
REMARK    2  A    between atoms: C_9  and  C_10
REMARK    3  A    between atoms: C_14  and  C_15
REMARK    4  A    between atoms: C_20  and  N_21
REMARK                            x       y       z     vdW  Elec       q    Type
REMARK                         _______ _______ _______ _____ _____    ______ ____
ROOT
ATOM      1  C   UNL     1       0.253  11.200  21.069  0.00  0.00    +0.000 A 
ATOM      2  C   UNL     1      -0.427  10.988  22.273  0.00  0.00    +0.000 A 
ATOM      3  C   UNL     1      -0.444   9.722  22.860  0.00  0.00    +0.000 A 
ATOM      4  C   UNL     1       0.209   8.656  22.241  0.00  0.00    +0.000 A 
ATOM      5  C   UNL     1       0.890   8.842  21.033  0.00  0.00    +0.000 A 
ATOM      6  C   UNL     1       0.894  10.117  20.450  0.00  0.00    +0.000 A 
ENDROOT
BRANCH   1  12
ATOM      7  C   UNL     1       1.415  16.403  18.350  0.00  0.00    +0.000 A 
ATOM      8  C   UNL     1       0.086  16.677  18.713  0.00  0.00    +0.000 A 
ATOM      9  C   UNL     1      -0.668  15.726  19.415  0.00  0.00    +0.000 A 
ATOM     10  C   UNL     1      -0.068  14.503  19.748  0.00  0.00    +0.000 A 
ATOM     11  N   UNL     1      -0.586  13.439  20.435  0.00  0.00    +0.000 NA
ATOM     12  C   UNL     1       0.368  12.525  20.467  0.00  0.00    +0.000 A 
ATOM     13  N   UNL     1       1.498  12.995  19.837  0.00  0.00    +0.000 N 
ATOM     14  C   UNL     1       1.244  14.258  19.367  0.00  0.00    +0.000 A 
ATOM     15  C   UNL     1       2.031  15.177  18.668  0.00  0.00    +0.000 A 
ATOM     16  H   UNL     1       2.368  12.493  19.749  0.00  0.00    +0.000 HD
BRANCH   7  18
ATOM     17  O   UNL     1       3.419  17.288  17.581  0.00  0.00    +0.000 OA
ATOM     18  N   UNL     1       2.189  17.422  17.628  0.00  0.00    +0.000 N 
ATOM     19  O   UNL     1       1.562  18.357  17.106  0.00  0.00    +0.000 OA
ENDBRANCH   7  18
ENDBRANCH   1  12
BRANCH   5  20
ATOM     20  C   UNL     1       1.601   7.726  20.417  0.00  0.00    +0.000 A 
ATOM     21  N   UNL     1       2.177   7.717  19.228  0.00  0.00    +0.000 NA
ATOM     22  C   UNL     1       2.711   6.464  19.075  0.00  0.00    +0.000 A 
ATOM     23  C   UNL     1       3.448   5.928  18.009  0.00  0.00    +0.000 A 
ATOM     24  C   UNL     1       3.885   4.598  18.091  0.00  0.00    +0.000 A 
ATOM     25  C   UNL     1       3.584   3.821  19.221  0.00  0.00    +0.000 A 
ATOM     26  C   UNL     1       2.845   4.338  20.300  0.00  0.00    +0.000 A 
ATOM     27  C   UNL     1       2.436   5.668  20.180  0.00  0.00    +0.000 A 
ATOM     28  N   UNL     1       1.722   6.490  21.012  0.00  0.00    +0.000 N 
ATOM     29  H   UNL     1       1.330   6.233  21.906  0.00  0.00    +0.000 HD
BRANCH  25  30
ATOM     30  N   UNL     1       4.050   2.428  19.286  0.00  0.00    +0.000 N 
ATOM     31  O   UNL     1       4.883   2.140  20.159  0.00  0.00    +0.000 OA
ATOM     32  O   UNL     1       3.585   1.625  18.466  0.00  0.00    +0.000 OA
ENDBRANCH  25  30
ENDBRANCH   5  20
TORSDOF 4
ENDMDL
MODEL 2
REMARK VINA RESULT:      -8.7      4.066     10.065
REMARK  Name = 
REMARK  4 active torsions:
REMARK  status: ('A' for Active; 'I' for Inactive)
REMARK    1  A    between atoms: N_2  and  C_4
REMARK    2  A    between atoms: C_9  and  C_10
REMARK    3  A    between atoms: C_14  and  C_15
REMARK    4  A    between atoms: C_20  and  N_21
REMARK                            x       y       z     vdW  Elec       q    Type
REMARK                         _______ _______ _______ _____ _____    ______ ____
ROOT
ATOM      1  C   UNL     1       3.529   4.974  18.909  0.00  0.00    +0.000 A 
ATOM      2  C   UNL     1       3.182   3.877  19.705  0.00  0.00    +0.000 A 
ATOM      3  C   UNL     1       2.291   4.030  20.768  0.00  0.00    +0.000 A 
ATOM      4  C   UNL     1       1.748   5.283  21.050  0.00  0.00    +0.000 A 
ATOM      5  C   UNL     1       2.085   6.396  20.272  0.00  0.00    +0.000 A 
ATOM      6  C   UNL     1       2.986   6.231  19.212  0.00  0.00    +0.000 A 
ENDROOT
BRANCH   1  12
ATOM      7  C   UNL     1       6.434   4.152  13.742  0.00  0.00    +0.000 A 
ATOM      8  C   UNL     1       7.467   4.806  14.433  0.00  0.00    +0.000 A 
ATOM      9  C   UNL     1       7.281   5.224  15.758  0.00  0.00    +0.000 A 
ATOM     10  C   UNL     1       6.048   4.971  16.377  0.00  0.00    +0.000 A 
ATOM     11  N   UNL     1       5.638   5.262  17.650  0.00  0.00    +0.000 NA
ATOM     12  C   UNL     1       4.389   4.840  17.737  0.00  0.00    +0.000 A 
ATOM     13  N   UNL     1       4.000   4.259  16.553  0.00  0.00    +0.000 N 
ATOM     14  C   UNL     1       5.043   4.331  15.665  0.00  0.00    +0.000 A 
ATOM     15  C   UNL     1       5.186   3.898  14.345  0.00  0.00    +0.000 A 
ATOM     16  H   UNL     1       3.099   3.840  16.376  0.00  0.00    +0.000 HD
BRANCH   7  18
ATOM     17  O   UNL     1       6.040   2.715  11.961  0.00  0.00    +0.000 OA
ATOM     18  N   UNL     1       6.659   3.711  12.359  0.00  0.00    +0.000 N 
ATOM     19  O   UNL     1       7.456   4.366  11.669  0.00  0.00    +0.000 OA
ENDBRANCH   7  18
ENDBRANCH   1  12
BRANCH   5  20
ATOM     20  C   UNL     1       1.478   7.694  20.555  0.00  0.00    +0.000 A 
ATOM     21  N   UNL     1       1.479   8.754  19.767  0.00  0.00    +0.000 NA
ATOM     22  C   UNL     1       0.801   9.733  20.446  0.00  0.00    +0.000 A 
ATOM     23  C   UNL     1       0.492  11.044  20.057  0.00  0.00    +0.000 A 
ATOM     24  C   UNL     1      -0.219  11.862  20.947  0.00  0.00    +0.000 A 
ATOM     25  C   UNL     1      -0.609  11.373  22.204  0.00  0.00    +0.000 A 
ATOM     26  C   UNL     1      -0.308  10.061  22.614  0.00  0.00    +0.000 A 
ATOM     27  C   UNL     1       0.395   9.279  21.696  0.00  0.00    +0.000 A 
ATOM     28  N   UNL     1       0.846   7.987  21.743  0.00  0.00    +0.000 N 
ATOM     29  H   UNL     1       0.752   7.354  22.524  0.00  0.00    +0.000 HD
BRANCH  25  30
ATOM     30  N   UNL     1      -1.352  12.249  23.123  0.00  0.00    +0.000 N 
ATOM     31  O   UNL     1      -2.490  11.892  23.463  0.00  0.00    +0.000 OA
ATOM     32  O   UNL     1      -0.799  13.289  23.501  0.00  0.00    +0.000 OA
ENDBRANCH  25  30
ENDBRANCH   5  20
TORSDOF 4
ENDMDL
MODEL 3
REMARK VINA RESULT:      -8.7      0.332     10.257
REMARK  Name = 
REMARK  4 active torsions:
REMARK  status: ('A' for Active; 'I' for Inactive)
REMARK    1  A    between atoms: N_2  and  C_4
REMARK    2  A    between atoms: C_9  and  C_10
REMARK    3  A    between atoms: C_14  and  C_15
REMARK    4  A    between atoms: C_20  and  N_21
REMARK                            x       y       z     vdW  Elec       q    Type
REMARK                         _______ _______ _______ _____ _____    ______ ____
ROOT
ATOM      1  C   UNL     1       0.982   8.658  21.039  0.00  0.00    +0.000 A 
ATOM      2  C   UNL     1       0.116   8.499  22.126  0.00  0.00    +0.000 A 
ATOM      3  C   UNL     1      -0.587   9.592  22.633  0.00  0.00    +0.000 A 
ATOM      4  C   UNL     1      -0.422  10.855  22.065  0.00  0.00    +0.000 A 
ATOM      5  C   UNL     1       0.443  11.040  20.980  0.00  0.00    +0.000 A 
ATOM      6  C   UNL     1       1.149   9.936  20.484  0.00  0.00    +0.000 A 
ENDROOT
BRANCH   1  12
ATOM      7  C   UNL     1       3.561   3.610  19.121  0.00  0.00    +0.000 A 
ATOM      8  C   UNL     1       3.821   4.393  17.985  0.00  0.00    +0.000 A 
ATOM      9  C   UNL     1       3.403   5.730  17.934  0.00  0.00    +0.000 A 
ATOM     10  C   UNL     1       2.726   6.267  19.039  0.00  0.00    +0.000 A 
ATOM     11  N   UNL     1       2.242   7.532  19.232  0.00  0.00    +0.000 NA
ATOM     12  C   UNL     1       1.670   7.527  20.424  0.00  0.00    +0.000 A 
ATOM     13  N   UNL     1       1.805   6.290  21.010  0.00  0.00    +0.000 N 
ATOM     14  C   UNL     1       2.476   5.465  20.144  0.00  0.00    +0.000 A 
ATOM     15  C   UNL     1       2.875   4.129  20.236  0.00  0.00    +0.000 A 
ATOM     16  H   UNL     1       1.473   6.040  21.930  0.00  0.00    +0.000 HD
BRANCH   7  18
ATOM     17  O   UNL     1       4.832   1.896  20.037  0.00  0.00    +0.000 OA
ATOM     18  N   UNL     1       4.024   2.216  19.156  0.00  0.00    +0.000 N 
ATOM     19  O   UNL     1       3.573   1.440  18.299  0.00  0.00    +0.000 OA
ENDBRANCH   7  18
ENDBRANCH   1  12
BRANCH   5  20
ATOM     20  C   UNL     1       0.576  12.360  20.371  0.00  0.00    +0.000 A 
ATOM     21  N   UNL     1      -0.358  13.292  20.297  0.00  0.00    +0.000 NA
ATOM     22  C   UNL     1       0.215  14.351  19.642  0.00  0.00    +0.000 A 
ATOM     23  C   UNL     1      -0.327  15.603  19.320  0.00  0.00    +0.000 A 
ATOM     24  C   UNL     1       0.473  16.528  18.633  0.00  0.00    +0.000 A 
ATOM     25  C   UNL     1       1.790  16.199  18.275  0.00  0.00    +0.000 A 
ATOM     26  C   UNL     1       2.352  14.948  18.587  0.00  0.00    +0.000 A 
ATOM     27  C   UNL     1       1.524  14.060  19.277  0.00  0.00    +0.000 A 
ATOM     28  N   UNL     1       1.724  12.787  19.743  0.00  0.00    +0.000 N 
ATOM     29  H   UNL     1       2.564  12.240  19.630  0.00  0.00    +0.000 HD
BRANCH  25  30
ATOM     30  N   UNL     1       2.611  17.182  17.552  0.00  0.00    +0.000 N 
ATOM     31  O   UNL     1       3.816  17.249  17.841  0.00  0.00    +0.000 OA
ATOM     32  O   UNL     1       2.053  17.885  16.700  0.00  0.00    +0.000 OA
ENDBRANCH  25  30
ENDBRANCH   5  20
TORSDOF 4
ENDMDL
MODEL 4
REMARK VINA RESULT:      -8.6      2.263      2.828
REMARK  Name = 
REMARK  4 active torsions:
REMARK  status: ('A' for Active; 'I' for Inactive)
REMARK    1  A    between atoms: N_2  and  C_4
REMARK    2  A    between atoms: C_9  and  C_10
REMARK    3  A    between atoms: C_14  and  C_15
REMARK    4  A    between atoms: C_20  and  N_21
REMARK                            x       y       z     vdW  Elec       q    Type
REMARK                         _______ _______ _______ _____ _____    ______ ____
ROOT
ATOM      1  C   UNL     1       0.941  10.306  20.045  0.00  0.00    +0.000 A 
ATOM      2  C   UNL     1       0.343   9.797  21.203  0.00  0.00    +0.000 A 
ATOM      3  C   UNL     1       0.483   8.449  21.535  0.00  0.00    +0.000 A 
ATOM      4  C   UNL     1       1.212   7.596  20.705  0.00  0.00    +0.000 A 
ATOM      5  C   UNL     1       1.814   8.082  19.538  0.00  0.00    +0.000 A 
ATOM      6  C   UNL     1       1.660   9.436  19.213  0.00  0.00    +0.000 A 
ENDROOT
BRANCH   1  12
ATOM      7  C   UNL     1       1.464  16.041  18.419  0.00  0.00    +0.000 A 
ATOM      8  C   UNL     1       0.096  16.063  18.736  0.00  0.00    +0.000 A 
ATOM      9  C   UNL     1      -0.544  14.905  19.198  0.00  0.00    +0.000 A 
ATOM     10  C   UNL     1       0.209  13.730  19.339  0.00  0.00    +0.000 A 
ATOM     11  N   UNL     1      -0.180  12.495  19.781  0.00  0.00    +0.000 NA
ATOM     12  C   UNL     1       0.891  11.726  19.707  0.00  0.00    +0.000 A 
ATOM     13  N   UNL     1       1.968  12.451  19.253  0.00  0.00    +0.000 N 
ATOM     14  C   UNL     1       1.557  13.737  19.008  0.00  0.00    +0.000 A 
ATOM     15  C   UNL     1       2.234  14.868  18.546  0.00  0.00    +0.000 A 
ATOM     16  H   UNL     1       2.904  12.095  19.132  0.00  0.00    +0.000 HD
BRANCH   7  18
ATOM     17  O   UNL     1       3.226  17.172  17.415  0.00  0.00    +0.000 OA
ATOM     18  N   UNL     1       2.115  17.273  17.951  0.00  0.00    +0.000 N 
ATOM     19  O   UNL     1       1.509  18.342  18.121  0.00  0.00    +0.000 OA
ENDBRANCH   7  18
ENDBRANCH   1  12
BRANCH   5  20
ATOM     20  C   UNL     1       2.605   7.186  18.701  0.00  0.00    +0.000 A 
ATOM     21  N   UNL     1       2.550   5.866  18.685  0.00  0.00    +0.000 NA
ATOM     22  C   UNL     1       3.468   5.458  17.753  0.00  0.00    +0.000 A 
ATOM     23  C   UNL     1       3.797   4.164  17.325  0.00  0.00    +0.000 A 
ATOM     24  C   UNL     1       4.790   4.008  16.347  0.00  0.00    +0.000 A 
ATOM     25  C   UNL     1       5.441   5.131  15.812  0.00  0.00    +0.000 A 
ATOM     26  C   UNL     1       5.127   6.438  16.228  0.00  0.00    +0.000 A 
ATOM     27  C   UNL     1       4.129   6.547  17.198  0.00  0.00    +0.000 A 
ATOM     28  N   UNL     1       3.570   7.630  17.824  0.00  0.00    +0.000 N 
ATOM     29  H   UNL     1       3.830   8.595  17.685  0.00  0.00    +0.000 HD
BRANCH  25  30
ATOM     30  N   UNL     1       6.481   4.945  14.789  0.00  0.00    +0.000 N 
ATOM     31  O   UNL     1       6.230   4.178  13.846  0.00  0.00    +0.000 OA
ATOM     32  O   UNL     1       7.545   5.562  14.928  0.00  0.00    +0.000 OA
ENDBRANCH  25  30
ENDBRANCH   5  20
TORSDOF 4
ENDMDL
MODEL 5
REMARK VINA RESULT:      -8.5      4.105      6.255
REMARK  Name = 
REMARK  4 active torsions:
REMARK  status: ('A' for Active; 'I' for Inactive)
REMARK    1  A    between atoms: N_2  and  C_4
REMARK    2  A    between atoms: C_9  and  C_10
REMARK    3  A    between atoms: C_14  and  C_15
REMARK    4  A    between atoms: C_20  and  N_21
REMARK                            x       y       z     vdW  Elec       q    Type
REMARK                         _______ _______ _______ _____ _____    ______ ____
ROOT
ATOM      1  C   UNL     1       1.995   6.284  20.278  0.00  0.00    +0.000 A 
ATOM      2  C   UNL     1       1.833   5.170  21.108  0.00  0.00    +0.000 A 
ATOM      3  C   UNL     1       2.488   3.973  20.818  0.00  0.00    +0.000 A 
ATOM      4  C   UNL     1       3.301   3.877  19.689  0.00  0.00    +0.000 A 
ATOM      5  C   UNL     1       3.474   4.976  18.840  0.00  0.00    +0.000 A 
ATOM      6  C   UNL     1       2.805   6.170  19.139  0.00  0.00    +0.000 A 
ENDROOT
BRANCH   1  12
ATOM      7  C   UNL     1      -0.657  11.277  22.239  0.00  0.00    +0.000 A 
ATOM      8  C   UNL     1      -0.114  11.808  21.058  0.00  0.00    +0.000 A 
ATOM      9  C   UNL     1       0.633  10.997  20.193  0.00  0.00    +0.000 A 
ATOM     10  C   UNL     1       0.822   9.648  20.530  0.00  0.00    +0.000 A 
ATOM     11  N   UNL     1       1.489   8.667  19.848  0.00  0.00    +0.000 NA
ATOM     12  C   UNL     1       1.397   7.579  20.592  0.00  0.00    +0.000 A 
ATOM     13  N   UNL     1       0.660   7.837  21.724  0.00  0.00    +0.000 N 
ATOM     14  C   UNL     1       0.281   9.155  21.709  0.00  0.00    +0.000 A 
ATOM     15  C   UNL     1      -0.470   9.928  22.598  0.00  0.00    +0.000 A 
ATOM     16  H   UNL     1       0.429   7.162  22.438  0.00  0.00    +0.000 HD
BRANCH   7  18
ATOM     17  O   UNL     1      -0.941  13.211  23.492  0.00  0.00    +0.000 OA
ATOM     18  N   UNL     1      -1.449  12.145  23.121  0.00  0.00    +0.000 N 
ATOM     19  O   UNL     1      -2.584  11.758  23.441  0.00  0.00    +0.000 OA
ENDBRANCH   7  18
ENDBRANCH   1  12
BRANCH   5  20
ATOM     20  C   UNL     1       4.359   4.871  17.684  0.00  0.00    +0.000 A 
ATOM     21  N   UNL     1       5.584   5.356  17.582  0.00  0.00    +0.000 NA
ATOM     22  C   UNL     1       6.021   5.022  16.326  0.00  0.00    +0.000 A 
ATOM     23  C   UNL     1       7.256   5.271  15.712  0.00  0.00    +0.000 A 
ATOM     24  C   UNL     1       7.459   4.824  14.398  0.00  0.00    +0.000 A 
ATOM     25  C   UNL     1       6.439   4.143  13.715  0.00  0.00    +0.000 A 
ATOM     26  C   UNL     1       5.192   3.884  14.312  0.00  0.00    +0.000 A 
ATOM     27  C   UNL     1       5.035   4.340  15.623  0.00  0.00    +0.000 A 
ATOM     28  N   UNL     1       3.988   4.267  16.503  0.00  0.00    +0.000 N 
ATOM     29  H   UNL     1       3.085   3.857  16.318  0.00  0.00    +0.000 HD
BRANCH  25  30
ATOM     30  N   UNL     1       6.672   3.685  12.337  0.00  0.00    +0.000 N 
ATOM     31  O   UNL     1       7.452   4.347  11.635  0.00  0.00    +0.000 OA
ATOM     32  O   UNL     1       6.077   2.668  11.959  0.00  0.00    +0.000 OA
ENDBRANCH  25  30
ENDBRANCH   5  20
TORSDOF 4
ENDMDL
MODEL 6
REMARK VINA RESULT:      -8.5      0.827      1.335
REMARK  Name = 
REMARK  4 active torsions:
REMARK  status: ('A' for Active; 'I' for Inactive)
REMARK    1  A    between atoms: N_2  and  C_4
REMARK    2  A    between atoms: C_9  and  C_10
REMARK    3  A    between atoms: C_14  and  C_15
REMARK    4  A    between atoms: C_20  and  N_21
REMARK                            x       y       z     vdW  Elec       q    Type
REMARK                         _______ _______ _______ _____ _____    ______ ____
ROOT
ATOM      1  C   UNL     1       0.439  11.217  21.203  0.00  0.00    +0.000 A 
ATOM      2  C   UNL     1      -0.379  10.978  22.313  0.00  0.00    +0.000 A 
ATOM      3  C   UNL     1      -0.546   9.682  22.800  0.00  0.00    +0.000 A 
ATOM      4  C   UNL     1       0.095   8.612  22.175  0.00  0.00    +0.000 A 
ATOM      5  C   UNL     1       0.913   8.825  21.060  0.00  0.00    +0.000 A 
ATOM      6  C   UNL     1       1.067  10.131  20.576  0.00  0.00    +0.000 A 
ENDROOT
BRANCH   1  12
ATOM      7  C   UNL     1       0.862  16.704  18.852  0.00  0.00    +0.000 A 
ATOM      8  C   UNL     1       2.016  16.756  19.651  0.00  0.00    +0.000 A 
ATOM      9  C   UNL     1       2.384  15.656  20.438  0.00  0.00    +0.000 A 
ATOM     10  C   UNL     1       1.581  14.506  20.406  0.00  0.00    +0.000 A 
ATOM     11  N   UNL     1       1.740  13.316  21.062  0.00  0.00    +0.000 NA
ATOM     12  C   UNL     1       0.709  12.566  20.715  0.00  0.00    +0.000 A 
ATOM     13  N   UNL     1      -0.094  13.244  19.827  0.00  0.00    +0.000 N 
ATOM     14  C   UNL     1       0.442  14.488  19.613  0.00  0.00    +0.000 A 
ATOM     15  C   UNL     1       0.039  15.561  18.814  0.00  0.00    +0.000 A 
ATOM     16  H   UNL     1      -0.930  12.877  19.398  0.00  0.00    +0.000 HD
BRANCH   7  18
ATOM     17  O   UNL     1      -0.689  18.032  17.746  0.00  0.00    +0.000 OA
ATOM     18  N   UNL     1       0.506  17.864  18.025  0.00  0.00    +0.000 N 
ATOM     19  O   UNL     1       1.426  18.611  17.655  0.00  0.00    +0.000 OA
ENDBRANCH   7  18
ENDBRANCH   1  12
BRANCH   5  20
ATOM     20  C   UNL     1       1.607   7.701  20.440  0.00  0.00    +0.000 A 
ATOM     21  N   UNL     1       2.158   7.679  19.239  0.00  0.00    +0.000 NA
ATOM     22  C   UNL     1       2.685   6.423  19.086  0.00  0.00    +0.000 A 
ATOM     23  C   UNL     1       3.397   5.875  18.009  0.00  0.00    +0.000 A 
ATOM     24  C   UNL     1       3.832   4.545  18.095  0.00  0.00    +0.000 A 
ATOM     25  C   UNL     1       3.554   3.780  19.238  0.00  0.00    +0.000 A 
ATOM     26  C   UNL     1       2.840   4.309  20.329  0.00  0.00    +0.000 A 
ATOM     27  C   UNL     1       2.431   5.638  20.204  0.00  0.00    +0.000 A 
ATOM     28  N   UNL     1       1.738   6.470  21.043  0.00  0.00    +0.000 N 
ATOM     29  H   UNL     1       1.364   6.223  21.948  0.00  0.00    +0.000 HD
BRANCH  25  30
ATOM     30  N   UNL     1       4.017   2.385  19.306  0.00  0.00    +0.000 N 
ATOM     31  O   UNL     1       4.867   2.103  20.165  0.00  0.00    +0.000 OA
ATOM     32  O   UNL     1       3.534   1.577  18.504  0.00  0.00    +0.000 OA
ENDBRANCH  25  30
ENDBRANCH   5  20
TORSDOF 4
ENDMDL
MODEL 7
REMARK VINA RESULT:      -8.4      2.190      9.998
REMARK  Name = 
REMARK  4 active torsions:
REMARK  status: ('A' for Active; 'I' for Inactive)
REMARK    1  A    between atoms: N_2  and  C_4
REMARK    2  A    between atoms: C_9  and  C_10
REMARK    3  A    between atoms: C_14  and  C_15
REMARK    4  A    between atoms: C_20  and  N_21
REMARK                            x       y       z     vdW  Elec       q    Type
REMARK                         _______ _______ _______ _____ _____    ______ ____
ROOT
ATOM      1  C   UNL     1       1.770   8.110  19.652  0.00  0.00    +0.000 A 
ATOM      2  C   UNL     1       1.011   7.630  20.725  0.00  0.00    +0.000 A 
ATOM      3  C   UNL     1       0.212   8.498  21.468  0.00  0.00    +0.000 A 
ATOM      4  C   UNL     1       0.173   9.857  21.151  0.00  0.00    +0.000 A 
ATOM      5  C   UNL     1       0.927  10.361  20.086  0.00  0.00    +0.000 A 
ATOM      6  C   UNL     1       1.732   9.479  19.352  0.00  0.00    +0.000 A 
ENDROOT
BRANCH   1  12
ATOM      7  C   UNL     1       5.350   5.101  15.918  0.00  0.00    +0.000 A 
ATOM      8  C   UNL     1       4.720   3.991  16.504  0.00  0.00    +0.000 A 
ATOM      9  C   UNL     1       3.739   4.170  17.489  0.00  0.00    +0.000 A 
ATOM     10  C   UNL     1       3.400   5.476  17.872  0.00  0.00    +0.000 A 
ATOM     11  N   UNL     1       2.475   5.902  18.786  0.00  0.00    +0.000 NA
ATOM     12  C   UNL     1       2.552   7.222  18.796  0.00  0.00    +0.000 A 
ATOM     13  N   UNL     1       3.489   7.651  17.885  0.00  0.00    +0.000 N 
ATOM     14  C   UNL     1       4.047   6.553  17.282  0.00  0.00    +0.000 A 
ATOM     15  C   UNL     1       5.029   6.419  16.296  0.00  0.00    +0.000 A 
ATOM     16  H   UNL     1       3.715   8.614  17.690  0.00  0.00    +0.000 HD
BRANCH   7  18
ATOM     17  O   UNL     1       6.071   4.147  13.927  0.00  0.00    +0.000 OA
ATOM     18  N   UNL     1       6.364   4.886  14.876  0.00  0.00    +0.000 N 
ATOM     19  O   UNL     1       7.455   5.462  15.009  0.00  0.00    +0.000 OA
ENDBRANCH   7  18
ENDBRANCH   1  12
BRANCH   5  20
ATOM     20  C   UNL     1       0.846  11.777  19.742  0.00  0.00    +0.000 A 
ATOM     21  N   UNL     1      -0.229  12.543  19.803  0.00  0.00    +0.000 NA
ATOM     22  C   UNL     1       0.167  13.787  19.385  0.00  0.00    +0.000 A 
ATOM     23  C   UNL     1      -0.572  14.974  19.280  0.00  0.00    +0.000 A 
ATOM     24  C   UNL     1       0.072  16.130  18.815  0.00  0.00    +0.000 A 
ATOM     25  C   UNL     1       1.429  16.092  18.459  0.00  0.00    +0.000 A 
ATOM     26  C   UNL     1       2.188  14.912  18.556  0.00  0.00    +0.000 A 
ATOM     27  C   UNL     1       1.510  13.787  19.030  0.00  0.00    +0.000 A 
ATOM     28  N   UNL     1       1.914  12.497  19.256  0.00  0.00    +0.000 N 
ATOM     29  H   UNL     1       2.835  12.125  19.080  0.00  0.00    +0.000 HD
BRANCH  25  30
ATOM     30  N   UNL     1       2.084  17.316  17.971  0.00  0.00    +0.000 N 
ATOM     31  O   UNL     1       3.241  17.215  17.536  0.00  0.00    +0.000 OA
ATOM     32  O   UNL     1       1.443  18.374  18.024  0.00  0.00    +0.000 OA
ENDBRANCH  25  30
ENDBRANCH   5  20
TORSDOF 4
ENDMDL
MODEL 8
REMARK VINA RESULT:      -8.3      1.013     10.349
REMARK  Name = 
REMARK  4 active torsions:
REMARK  status: ('A' for Active; 'I' for Inactive)
REMARK    1  A    between atoms: N_2  and  C_4
REMARK    2  A    between atoms: C_9  and  C_10
REMARK    3  A    between atoms: C_14  and  C_15
REMARK    4  A    between atoms: C_20  and  N_21
REMARK                            x       y       z     vdW  Elec       q    Type
REMARK                         _______ _______ _______ _____ _____    ______ ____
ROOT
ATOM      1  C   UNL     1       0.815   9.063  21.286  0.00  0.00    +0.000 A 
ATOM      2  C   UNL     1      -0.119   8.823  22.300  0.00  0.00    +0.000 A 
ATOM      3  C   UNL     1      -0.823   9.881  22.875  0.00  0.00    +0.000 A 
ATOM      4  C   UNL     1      -0.592  11.190  22.448  0.00  0.00    +0.000 A 
ATOM      5  C   UNL     1       0.341  11.454  21.439  0.00  0.00    +0.000 A 
ATOM      6  C   UNL     1       1.047  10.384  20.875  0.00  0.00    +0.000 A 
ENDROOT
BRANCH   1  12
ATOM      7  C   UNL     1       3.453   4.173  19.065  0.00  0.00    +0.000 A 
ATOM      8  C   UNL     1       3.653   5.011  17.955  0.00  0.00    +0.000 A 
ATOM      9  C   UNL     1       3.200   6.337  17.977  0.00  0.00    +0.000 A 
ATOM     10  C   UNL     1       2.548   6.807  19.127  0.00  0.00    +0.000 A 
ATOM     11  N   UNL     1       2.039   8.049  19.391  0.00  0.00    +0.000 NA
ATOM     12  C   UNL     1       1.510   7.978  20.599  0.00  0.00    +0.000 A 
ATOM     13  N   UNL     1       1.696   6.721  21.127  0.00  0.00    +0.000 N 
ATOM     14  C   UNL     1       2.357   5.952  20.204  0.00  0.00    +0.000 A 
ATOM     15  C   UNL     1       2.793   4.625  20.224  0.00  0.00    +0.000 A 
ATOM     16  H   UNL     1       1.403   6.424  22.045  0.00  0.00    +0.000 HD
BRANCH   7  18
ATOM     17  O   UNL     1       4.772   2.446  19.884  0.00  0.00    +0.000 OA
ATOM     18  N   UNL     1       3.952   2.791  19.023  0.00  0.00    +0.000 N 
ATOM     19  O   UNL     1       3.518   2.051  18.127  0.00  0.00    +0.000 OA
ENDBRANCH   7  18
ENDBRANCH   1  12
BRANCH   5  20
ATOM     20  C   UNL     1       0.544  12.824  20.976  0.00  0.00    +0.000 A 
ATOM     21  N   UNL     1       1.198  13.782  21.610  0.00  0.00    +0.000 NA
ATOM     22  C   UNL     1       1.125  14.888  20.803  0.00  0.00    +0.000 A 
ATOM     23  C   UNL     1       1.669  16.167  20.987  0.00  0.00    +0.000 A 
ATOM     24  C   UNL     1       1.446  17.142  20.003  0.00  0.00    +0.000 A 
ATOM     25  C   UNL     1       0.690  16.838  18.861  0.00  0.00    +0.000 A 
ATOM     26  C   UNL     1       0.135  15.561  18.658  0.00  0.00    +0.000 A 
ATOM     27  C   UNL     1       0.386  14.620  19.658  0.00  0.00    +0.000 A 
ATOM     28  N   UNL     1       0.021  13.306  19.798  0.00  0.00    +0.000 N 
ATOM     29  H   UNL     1      -0.553  12.779  19.157  0.00  0.00    +0.000 HD
BRANCH  25  30
ATOM     30  N   UNL     1       0.467  17.876  17.843  0.00  0.00    +0.000 N 
ATOM     31  O   UNL     1       1.461  18.479  17.409  0.00  0.00    +0.000 OA
ATOM     32  O   UNL     1      -0.697  18.087  17.480  0.00  0.00    +0.000 OA
ENDBRANCH  25  30
ENDBRANCH   5  20
TORSDOF 4
ENDMDL
MODEL 9
REMARK VINA RESULT:      -8.3      3.850      4.880
REMARK  Name = 
REMARK  4 active torsions:
REMARK  status: ('A' for Active; 'I' for Inactive)
REMARK    1  A    between atoms: N_2  and  C_4
REMARK    2  A    between atoms: C_9  and  C_10
REMARK    3  A    between atoms: C_14  and  C_15
REMARK    4  A    between atoms: C_20  and  N_21
REMARK                            x       y       z     vdW  Elec       q    Type
REMARK                         _______ _______ _______ _____ _____    ______ ____
ROOT
ATOM      1  C   UNL     1       0.665  10.121  19.584  0.00  0.00    +0.000 A 
ATOM      2  C   UNL     1       1.238  10.621  18.410  0.00  0.00    +0.000 A 
ATOM      3  C   UNL     1       2.136   9.846  17.677  0.00  0.00    +0.000 A 
ATOM      4  C   UNL     1       2.478   8.567  18.118  0.00  0.00    +0.000 A 
ATOM      5  C   UNL     1       1.922   8.047  19.293  0.00  0.00    +0.000 A 
ATOM      6  C   UNL     1       1.026   8.839  20.024  0.00  0.00    +0.000 A 
ENDROOT
BRANCH   1  12
ATOM      7  C   UNL     1      -3.157  12.862  23.284  0.00  0.00    +0.000 A 
ATOM      8  C   UNL     1      -3.557  13.501  22.099  0.00  0.00    +0.000 A 
ATOM      9  C   UNL     1      -2.939  13.187  20.881  0.00  0.00    +0.000 A 
ATOM     10  C   UNL     1      -1.920  12.223  20.871  0.00  0.00    +0.000 A 
ATOM     11  N   UNL     1      -1.189  11.741  19.819  0.00  0.00    +0.000 NA
ATOM     12  C   UNL     1      -0.344  10.866  20.333  0.00  0.00    +0.000 A 
ATOM     13  N   UNL     1      -0.538  10.757  21.690  0.00  0.00    +0.000 N 
ATOM     14  C   UNL     1      -1.540  11.616  22.060  0.00  0.00    +0.000 A 
ATOM     15  C   UNL     1      -2.130  11.899  23.295  0.00  0.00    +0.000 A 
ATOM     16  H   UNL     1      -0.031  10.137  22.305  0.00  0.00    +0.000 HD
BRANCH   7  18
ATOM     17  O   UNL     1      -4.582  12.348  25.045  0.00  0.00    +0.000 OA
ATOM     18  N   UNL     1      -3.831  13.197  24.546  0.00  0.00    +0.000 N 
ATOM     19  O   UNL     1      -3.606  14.313  25.039  0.00  0.00    +0.000 OA
ENDBRANCH   7  18
ENDBRANCH   1  12
BRANCH   5  20
ATOM     20  C   UNL     1       2.259   6.693  19.722  0.00  0.00    +0.000 A 
ATOM     21  N   UNL     1       1.618   5.968  20.620  0.00  0.00    +0.000 NA
ATOM     22  C   UNL     1       2.292   4.776  20.697  0.00  0.00    +0.000 A 
ATOM     23  C   UNL     1       2.021   3.643  21.476  0.00  0.00    +0.000 A 
ATOM     24  C   UNL     1       2.875   2.535  21.376  0.00  0.00    +0.000 A 
ATOM     25  C   UNL     1       3.981   2.568  20.512  0.00  0.00    +0.000 A 
ATOM     26  C   UNL     1       4.271   3.695  19.722  0.00  0.00    +0.000 A 
ATOM     27  C   UNL     1       3.392   4.772  19.848  0.00  0.00    +0.000 A 
ATOM     28  N   UNL     1       3.354   6.004  19.249  0.00  0.00    +0.000 N 
ATOM     29  H   UNL     1       4.025   6.362  18.586  0.00  0.00    +0.000 HD
BRANCH  25  30
ATOM     30  N   UNL     1       4.866   1.396  20.424  0.00  0.00    +0.000 N 
ATOM     31  O   UNL     1       5.626   1.176  21.380  0.00  0.00    +0.000 OA
ATOM     32  O   UNL     1       4.802   0.700  19.403  0.00  0.00    +0.000 OA
ENDBRANCH  25  30
ENDBRANCH   5  20
TORSDOF 4
ENDMDL
