MODEL 1
REMARK VINA RESULT:      -7.6      0.000      0.000
REMARK  Name = 
REMARK  10 active torsions:
REMARK  status: ('A' for Active; 'I' for Inactive)
REMARK    1  A    between atoms: C_1  and  C_2
REMARK    2  A    between atoms: C_2  and  C_3
REMARK    3  A    between atoms: C_2  and  C_4
REMARK    4  A    between atoms: C_2  and  O_5
REMARK    5  A    between atoms: O_5  and  C_6
REMARK    6  A    between atoms: N_11  and  N_12
REMARK    7  A    between atoms: N_14  and  O_15
REMARK    8  A    between atoms: O_15  and  C_16
REMARK    9  A    between atoms: C_19  and  N_20
REMARK   10  A    between atoms: C_24  and  N_25
REMARK                            x       y       z     vdW  Elec       q    Type
REMARK                         _______ _______ _______ _____ _____    ______ ____
ROOT
ATOM      1  N   UNL     1       1.935   7.493  19.635  0.00  0.00    +0.000 N 
ATOM      2  O   UNL     1       1.751   6.731  20.636  0.00  0.00    +0.000 OA
ATOM      3  N   UNL     1       2.559   7.166  18.574  0.00  0.00    +0.000 NA
ENDROOT
BRANCH   1   9
ATOM      4  C   UNL     1      -0.734  12.351  19.601  0.00  0.00    +0.000 C 
ATOM      5  O   UNL     1      -0.776  13.012  18.570  0.00  0.00    +0.000 OA
ATOM      6  N   UNL     1      -0.335  11.031  19.609  0.00  0.00    +0.000 N 
ATOM      7  C   UNL     1       0.090  10.411  18.354  0.00  0.00    +0.000 C 
ATOM      8  C   UNL     1       1.422   9.671  18.535  0.00  0.00    +0.000 C 
ATOM      9  N   UNL     1       1.350   8.762  19.675  0.00  0.00    +0.000 N 
ATOM     10  C   UNL     1       0.909   9.345  20.942  0.00  0.00    +0.000 C 
ATOM     11  C   UNL     1      -0.404  10.133  20.767  0.00  0.00    +0.000 C 
BRANCH   4  12
ATOM     12  O   UNL     1      -1.042  12.838  20.836  0.00  0.00    +0.000 OA
BRANCH  12  14
ATOM     13  C   UNL     1      -3.383  12.582  20.126  0.00  0.00    +0.000 C 
ATOM     14  C   UNL     1      -2.411  13.254  21.105  0.00  0.00    +0.000 C 
ATOM     15  C   UNL     1      -2.542  14.785  21.109  0.00  0.00    +0.000 C 
ATOM     16  C   UNL     1      -2.753  12.754  22.521  0.00  0.00    +0.000 C 
ENDBRANCH  12  14
ENDBRANCH   4  12
ENDBRANCH   1   9
BRANCH   3  17
ATOM     17  O   UNL     1       2.997   5.830  18.661  0.00  0.00    +0.000 OA
BRANCH  17  18
ATOM     18  C   UNL     1       3.896   5.583  17.646  0.00  0.00    +0.000 A 
ATOM     19  C   UNL     1       4.633   6.619  17.049  0.00  0.00    +0.000 A 
ATOM     20  C   UNL     1       5.544   6.351  16.022  0.00  0.00    +0.000 A 
ATOM     21  C   UNL     1       5.713   5.036  15.566  0.00  0.00    +0.000 A 
ATOM     22  C   UNL     1       4.962   3.992  16.115  0.00  0.00    +0.000 A 
ATOM     23  C   UNL     1       4.053   4.286  17.146  0.00  0.00    +0.000 A 
BRANCH  21  24
ATOM     24  N   UNL     1       6.687   4.764  14.503  0.00  0.00    +0.000 N 
ATOM     25  O   UNL     1       6.410   3.885  13.675  0.00  0.00    +0.000 OA
ATOM     26  O   UNL     1       7.727   5.439  14.491  0.00  0.00    +0.000 OA
ENDBRANCH  21  24
BRANCH  23  27
ATOM     27  N   UNL     1       3.267   3.192  17.684  0.00  0.00    +0.000 N 
ATOM     28  O   UNL     1       2.159   2.984  17.174  0.00  0.00    +0.000 OA
ATOM     29  O   UNL     1       3.747   2.587  18.649  0.00  0.00    +0.000 OA
ENDBRANCH  23  27
ENDBRANCH  17  18
ENDBRANCH   3  17
TORSDOF 7
ENDMDL
MODEL 2
REMARK VINA RESULT:      -7.6      2.101      3.408
REMARK  Name = 
REMARK  10 active torsions:
REMARK  status: ('A' for Active; 'I' for Inactive)
REMARK    1  A    between atoms: C_1  and  C_2
REMARK    2  A    between atoms: C_2  and  C_3
REMARK    3  A    between atoms: C_2  and  C_4
REMARK    4  A    between atoms: C_2  and  O_5
REMARK    5  A    between atoms: O_5  and  C_6
REMARK    6  A    between atoms: N_11  and  N_12
REMARK    7  A    between atoms: N_14  and  O_15
REMARK    8  A    between atoms: O_15  and  C_16
REMARK    9  A    between atoms: C_19  and  N_20
REMARK   10  A    between atoms: C_24  and  N_25
REMARK                            x       y       z     vdW  Elec       q    Type
REMARK                         _______ _______ _______ _____ _____    ______ ____
ROOT
ATOM      1  N   UNL     1       3.797   5.782  18.933  0.00  0.00    +0.000 N 
ATOM      2  O   UNL     1       4.683   5.595  19.826  0.00  0.00    +0.000 OA
ATOM      3  N   UNL     1       3.737   5.161  17.822  0.00  0.00    +0.000 NA
ENDROOT
BRANCH   1   9
ATOM      4  C   UNL     1       0.009   9.575  20.348  0.00  0.00    +0.000 C 
ATOM      5  O   UNL     1      -0.579   9.473  21.418  0.00  0.00    +0.000 OA
ATOM      6  N   UNL     1       1.140   8.838  20.061  0.00  0.00    +0.000 N 
ATOM      7  C   UNL     1       1.630   7.877  21.048  0.00  0.00    +0.000 C 
ATOM      8  C   UNL     1       1.914   6.519  20.394  0.00  0.00    +0.000 C 
ATOM      9  N   UNL     1       2.772   6.687  19.223  0.00  0.00    +0.000 N 
ATOM     10  C   UNL     1       2.322   7.656  18.224  0.00  0.00    +0.000 C 
ATOM     11  C   UNL     1       1.986   9.013  18.875  0.00  0.00    +0.000 C 
BRANCH   4  12
ATOM     12  O   UNL     1      -0.389  10.386  19.328  0.00  0.00    +0.000 OA
BRANCH  12  14
ATOM     13  C   UNL     1       0.685  12.362  20.324  0.00  0.00    +0.000 C 
ATOM     14  C   UNL     1      -0.541  11.811  19.584  0.00  0.00    +0.000 C 
ATOM     15  C   UNL     1      -1.857  12.114  20.316  0.00  0.00    +0.000 C 
ATOM     16  C   UNL     1      -0.605  12.500  18.208  0.00  0.00    +0.000 C 
ENDBRANCH  12  14
ENDBRANCH   4  12
ENDBRANCH   1   9
BRANCH   3  17
ATOM     17  O   UNL     1       4.785   4.223  17.734  0.00  0.00    +0.000 OA
BRANCH  17  18
ATOM     18  C   UNL     1       5.454   4.405  16.543  0.00  0.00    +0.000 A 
ATOM     19  C   UNL     1       4.893   4.012  15.317  0.00  0.00    +0.000 A 
ATOM     20  C   UNL     1       5.584   4.207  14.117  0.00  0.00    +0.000 A 
ATOM     21  C   UNL     1       6.862   4.782  14.135  0.00  0.00    +0.000 A 
ATOM     22  C   UNL     1       7.461   5.144  15.345  0.00  0.00    +0.000 A 
ATOM     23  C   UNL     1       6.747   4.939  16.538  0.00  0.00    +0.000 A 
BRANCH  21  24
ATOM     24  N   UNL     1       7.570   5.001  12.868  0.00  0.00    +0.000 N 
ATOM     25  O   UNL     1       8.406   5.913  12.821  0.00  0.00    +0.000 OA
ATOM     26  O   UNL     1       7.294   4.249  11.920  0.00  0.00    +0.000 OA
ENDBRANCH  21  24
BRANCH  23  27
ATOM     27  N   UNL     1       7.397   5.298  17.784  0.00  0.00    +0.000 N 
ATOM     28  O   UNL     1       7.379   6.491  18.110  0.00  0.00    +0.000 OA
ATOM     29  O   UNL     1       7.964   4.386  18.396  0.00  0.00    +0.000 OA
ENDBRANCH  23  27
ENDBRANCH  17  18
ENDBRANCH   3  17
TORSDOF 7
ENDMDL
MODEL 3
REMARK VINA RESULT:      -7.6      0.929      1.231
REMARK  Name = 
REMARK  10 active torsions:
REMARK  status: ('A' for Active; 'I' for Inactive)
REMARK    1  A    between atoms: C_1  and  C_2
REMARK    2  A    between atoms: C_2  and  C_3
REMARK    3  A    between atoms: C_2  and  C_4
REMARK    4  A    between atoms: C_2  and  O_5
REMARK    5  A    between atoms: O_5  and  C_6
REMARK    6  A    between atoms: N_11  and  N_12
REMARK    7  A    between atoms: N_14  and  O_15
REMARK    8  A    between atoms: O_15  and  C_16
REMARK    9  A    between atoms: C_19  and  N_20
REMARK   10  A    between atoms: C_24  and  N_25
REMARK                            x       y       z     vdW  Elec       q    Type
REMARK                         _______ _______ _______ _____ _____    ______ ____
ROOT
ATOM      1  N   UNL     1       2.097   7.438  19.659  0.00  0.00    +0.000 N 
ATOM      2  O   UNL     1       1.850   6.642  20.620  0.00  0.00    +0.000 OA
ATOM      3  N   UNL     1       2.879   7.185  18.685  0.00  0.00    +0.000 NA
ENDROOT
BRANCH   1   9
ATOM      4  C   UNL     1      -0.978  12.040  19.360  0.00  0.00    +0.000 C 
ATOM      5  O   UNL     1      -1.046  12.656  18.302  0.00  0.00    +0.000 OA
ATOM      6  N   UNL     1      -0.467  10.761  19.431  0.00  0.00    +0.000 N 
ATOM      7  C   UNL     1       0.047  10.133  18.214  0.00  0.00    +0.000 C 
ATOM      8  C   UNL     1       1.432   9.520  18.459  0.00  0.00    +0.000 C 
ATOM      9  N   UNL     1       1.404   8.651  19.633  0.00  0.00    +0.000 N 
ATOM     10  C   UNL     1       0.877   9.240  20.863  0.00  0.00    +0.000 C 
ATOM     11  C   UNL     1      -0.494   9.904  20.622  0.00  0.00    +0.000 C 
BRANCH   4  12
ATOM     12  O   UNL     1      -1.363  12.544  20.566  0.00  0.00    +0.000 OA
BRANCH  12  14
ATOM     13  C   UNL     1      -1.033  14.980  20.641  0.00  0.00    +0.000 C 
ATOM     14  C   UNL     1      -0.575  13.612  21.164  0.00  0.00    +0.000 C 
ATOM     15  C   UNL     1       0.930  13.378  20.967  0.00  0.00    +0.000 C 
ATOM     16  C   UNL     1      -0.857  13.572  22.678  0.00  0.00    +0.000 C 
ENDBRANCH  12  14
ENDBRANCH   4  12
ENDBRANCH   1   9
BRANCH   3  17
ATOM     17  O   UNL     1       3.416   5.890  18.818  0.00  0.00    +0.000 OA
BRANCH  17  18
ATOM     18  C   UNL     1       4.224   5.624  17.733  0.00  0.00    +0.000 A 
ATOM     19  C   UNL     1       4.519   6.609  16.777  0.00  0.00    +0.000 A 
ATOM     20  C   UNL     1       5.343   6.323  15.683  0.00  0.00    +0.000 A 
ATOM     21  C   UNL     1       5.868   5.033  15.525  0.00  0.00    +0.000 A 
ATOM     22  C   UNL     1       5.557   4.022  16.440  0.00  0.00    +0.000 A 
ATOM     23  C   UNL     1       4.727   4.334  17.531  0.00  0.00    +0.000 A 
BRANCH  21  24
ATOM     24  N   UNL     1       6.749   4.750  14.386  0.00  0.00    +0.000 N 
ATOM     25  O   UNL     1       6.423   3.836  13.615  0.00  0.00    +0.000 OA
ATOM     26  O   UNL     1       7.764   5.452  14.257  0.00  0.00    +0.000 OA
ENDBRANCH  21  24
BRANCH  23  27
ATOM     27  N   UNL     1       4.397   3.265  18.454  0.00  0.00    +0.000 N 
ATOM     28  O   UNL     1       3.443   2.535  18.160  0.00  0.00    +0.000 OA
ATOM     29  O   UNL     1       5.066   3.203  19.492  0.00  0.00    +0.000 OA
ENDBRANCH  23  27
ENDBRANCH  17  18
ENDBRANCH   3  17
TORSDOF 7
ENDMDL
MODEL 4
REMARK VINA RESULT:      -7.5      0.066      1.150
REMARK  Name = 
REMARK  10 active torsions:
REMARK  status: ('A' for Active; 'I' for Inactive)
REMARK    1  A    between atoms: C_1  and  C_2
REMARK    2  A    between atoms: C_2  and  C_3
REMARK    3  A    between atoms: C_2  and  C_4
REMARK    4  A    between atoms: C_2  and  O_5
REMARK    5  A    between atoms: O_5  and  C_6
REMARK    6  A    between atoms: N_11  and  N_12
REMARK    7  A    between atoms: N_14  and  O_15
REMARK    8  A    between atoms: O_15  and  C_16
REMARK    9  A    between atoms: C_19  and  N_20
REMARK   10  A    between atoms: C_24  and  N_25
REMARK                            x       y       z     vdW  Elec       q    Type
REMARK                         _______ _______ _______ _____ _____    ______ ____
ROOT
ATOM      1  N   UNL     1       1.945   7.499  19.647  0.00  0.00    +0.000 N 
ATOM      2  O   UNL     1       1.833   6.771  20.684  0.00  0.00    +0.000 OA
ATOM      3  N   UNL     1       2.505   7.139  18.560  0.00  0.00    +0.000 NA
ENDROOT
BRANCH   1   9
ATOM      4  C   UNL     1      -0.773  12.330  19.592  0.00  0.00    +0.000 C 
ATOM      5  O   UNL     1      -0.850  12.969  18.550  0.00  0.00    +0.000 OA
ATOM      6  N   UNL     1      -0.360  11.014  19.616  0.00  0.00    +0.000 N 
ATOM      7  C   UNL     1       0.035  10.372  18.362  0.00  0.00    +0.000 C 
ATOM      8  C   UNL     1       1.379   9.649  18.518  0.00  0.00    +0.000 C 
ATOM      9  N   UNL     1       1.349   8.762  19.679  0.00  0.00    +0.000 N 
ATOM     10  C   UNL     1       0.938   9.366  20.946  0.00  0.00    +0.000 C 
ATOM     11  C   UNL     1      -0.387  10.138  20.792  0.00  0.00    +0.000 C 
BRANCH   4  12
ATOM     12  O   UNL     1      -1.050  12.838  20.826  0.00  0.00    +0.000 OA
BRANCH  12  14
ATOM     13  C   UNL     1      -2.637  14.705  21.039  0.00  0.00    +0.000 C 
ATOM     14  C   UNL     1      -2.426  13.189  21.147  0.00  0.00    +0.000 C 
ATOM     15  C   UNL     1      -2.843  12.632  22.517  0.00  0.00    +0.000 C 
ATOM     16  C   UNL     1      -3.312  12.516  20.083  0.00  0.00    +0.000 C 
ENDBRANCH  12  14
ENDBRANCH   4  12
ENDBRANCH   1   9
BRANCH   3  17
ATOM     17  O   UNL     1       2.963   5.811  18.667  0.00  0.00    +0.000 OA
BRANCH  17  18
ATOM     18  C   UNL     1       3.869   5.564  17.659  0.00  0.00    +0.000 A 
ATOM     19  C   UNL     1       4.595   6.602  17.052  0.00  0.00    +0.000 A 
ATOM     20  C   UNL     1       5.513   6.334  16.031  0.00  0.00    +0.000 A 
ATOM     21  C   UNL     1       5.700   5.017  15.591  0.00  0.00    +0.000 A 
ATOM     22  C   UNL     1       4.960   3.969  16.149  0.00  0.00    +0.000 A 
ATOM     23  C   UNL     1       4.044   4.263  17.173  0.00  0.00    +0.000 A 
BRANCH  21  24
ATOM     24  N   UNL     1       6.680   4.744  14.534  0.00  0.00    +0.000 N 
ATOM     25  O   UNL     1       7.715   5.425  14.514  0.00  0.00    +0.000 OA
ATOM     26  O   UNL     1       6.417   3.838  13.727  0.00  0.00    +0.000 OA
ENDBRANCH  21  24
BRANCH  23  27
ATOM     27  N   UNL     1       3.269   3.166  17.721  0.00  0.00    +0.000 N 
ATOM     28  O   UNL     1       3.765   2.534  18.661  0.00  0.00    +0.000 OA
ATOM     29  O   UNL     1       2.192   2.917  17.167  0.00  0.00    +0.000 OA
ENDBRANCH  23  27
ENDBRANCH  17  18
ENDBRANCH   3  17
TORSDOF 7
ENDMDL
MODEL 5
REMARK VINA RESULT:      -7.4      0.830      1.366
REMARK  Name = 
REMARK  10 active torsions:
REMARK  status: ('A' for Active; 'I' for Inactive)
REMARK    1  A    between atoms: C_1  and  C_2
REMARK    2  A    between atoms: C_2  and  C_3
REMARK    3  A    between atoms: C_2  and  C_4
REMARK    4  A    between atoms: C_2  and  O_5
REMARK    5  A    between atoms: O_5  and  C_6
REMARK    6  A    between atoms: N_11  and  N_12
REMARK    7  A    between atoms: N_14  and  O_15
REMARK    8  A    between atoms: O_15  and  C_16
REMARK    9  A    between atoms: C_19  and  N_20
REMARK   10  A    between atoms: C_24  and  N_25
REMARK                            x       y       z     vdW  Elec       q    Type
REMARK                         _______ _______ _______ _____ _____    ______ ____
ROOT
ATOM      1  N   UNL     1       2.059   7.392  19.734  0.00  0.00    +0.000 N 
ATOM      2  O   UNL     1       1.786   6.578  20.671  0.00  0.00    +0.000 OA
ATOM      3  N   UNL     1       2.866   7.159  18.776  0.00  0.00    +0.000 NA
ENDROOT
BRANCH   1   9
ATOM      4  C   UNL     1      -1.006  12.004  19.468  0.00  0.00    +0.000 C 
ATOM      5  O   UNL     1      -1.084  12.619  18.411  0.00  0.00    +0.000 OA
ATOM      6  N   UNL     1      -0.498  10.723  19.535  0.00  0.00    +0.000 N 
ATOM      7  C   UNL     1      -0.000  10.093  18.312  0.00  0.00    +0.000 C 
ATOM      8  C   UNL     1       1.386   9.476  18.540  0.00  0.00    +0.000 C 
ATOM      9  N   UNL     1       1.370   8.608  19.715  0.00  0.00    +0.000 N 
ATOM     10  C   UNL     1       0.859   9.200  20.951  0.00  0.00    +0.000 C 
ATOM     11  C   UNL     1      -0.512   9.867  20.726  0.00  0.00    +0.000 C 
BRANCH   4  12
ATOM     12  O   UNL     1      -1.375  12.509  20.678  0.00  0.00    +0.000 OA
BRANCH  12  14
ATOM     13  C   UNL     1       0.947  13.271  20.962  0.00  0.00    +0.000 C 
ATOM     14  C   UNL     1      -0.528  13.514  21.306  0.00  0.00    +0.000 C 
ATOM     15  C   UNL     1      -0.776  13.591  22.821  0.00  0.00    +0.000 C 
ATOM     16  C   UNL     1      -0.932  14.871  20.700  0.00  0.00    +0.000 C 
ENDBRANCH  12  14
ENDBRANCH   4  12
ENDBRANCH   1   9
BRANCH   3  17
ATOM     17  O   UNL     1       3.397   5.859  18.896  0.00  0.00    +0.000 OA
BRANCH  17  18
ATOM     18  C   UNL     1       4.205   5.600  17.809  0.00  0.00    +0.000 A 
ATOM     19  C   UNL     1       5.078   6.572  17.295  0.00  0.00    +0.000 A 
ATOM     20  C   UNL     1       5.894   6.292  16.193  0.00  0.00    +0.000 A 
ATOM     21  C   UNL     1       5.827   5.035  15.579  0.00  0.00    +0.000 A 
ATOM     22  C   UNL     1       4.936   4.063  16.045  0.00  0.00    +0.000 A 
ATOM     23  C   UNL     1       4.127   4.367  17.153  0.00  0.00    +0.000 A 
BRANCH  21  24
ATOM     24  N   UNL     1       6.702   4.745  14.437  0.00  0.00    +0.000 N 
ATOM     25  O   UNL     1       6.370   3.830  13.671  0.00  0.00    +0.000 OA
ATOM     26  O   UNL     1       7.718   5.443  14.301  0.00  0.00    +0.000 OA
ENDBRANCH  21  24
BRANCH  23  27
ATOM     27  N   UNL     1       3.192   3.354  17.605  0.00  0.00    +0.000 N 
ATOM     28  O   UNL     1       3.604   2.528  18.428  0.00  0.00    +0.000 OA
ATOM     29  O   UNL     1       2.069   3.367  17.088  0.00  0.00    +0.000 OA
ENDBRANCH  23  27
ENDBRANCH  17  18
ENDBRANCH   3  17
TORSDOF 7
ENDMDL
MODEL 6
REMARK VINA RESULT:      -7.4      1.328      1.478
REMARK  Name = 
REMARK  10 active torsions:
REMARK  status: ('A' for Active; 'I' for Inactive)
REMARK    1  A    between atoms: C_1  and  C_2
REMARK    2  A    between atoms: C_2  and  C_3
REMARK    3  A    between atoms: C_2  and  C_4
REMARK    4  A    between atoms: C_2  and  O_5
REMARK    5  A    between atoms: O_5  and  C_6
REMARK    6  A    between atoms: N_11  and  N_12
REMARK    7  A    between atoms: N_14  and  O_15
REMARK    8  A    between atoms: O_15  and  C_16
REMARK    9  A    between atoms: C_19  and  N_20
REMARK   10  A    between atoms: C_24  and  N_25
REMARK                            x       y       z     vdW  Elec       q    Type
REMARK                         _______ _______ _______ _____ _____    ______ ____
ROOT
ATOM      1  N   UNL     1       2.447   6.240  19.442  0.00  0.00    +0.000 N 
ATOM      2  O   UNL     1       1.633   5.507  18.797  0.00  0.00    +0.000 OA
ATOM      3  N   UNL     1       3.614   5.885  19.810  0.00  0.00    +0.000 NA
ENDROOT
BRANCH   1   9
ATOM      4  C   UNL     1       0.528  11.370  20.296  0.00  0.00    +0.000 C 
ATOM      5  O   UNL     1       0.549  12.184  19.381  0.00  0.00    +0.000 OA
ATOM      6  N   UNL     1       0.728  10.022  20.082  0.00  0.00    +0.000 N 
ATOM      7  C   UNL     1       1.012   9.554  18.725  0.00  0.00    +0.000 C 
ATOM      8  C   UNL     1       2.225   8.615  18.715  0.00  0.00    +0.000 C 
ATOM      9  N   UNL     1       2.059   7.556  19.707  0.00  0.00    +0.000 N 
ATOM     10  C   UNL     1       1.754   7.988  21.071  0.00  0.00    +0.000 C 
ATOM     11  C   UNL     1       0.566   8.971  21.092  0.00  0.00    +0.000 C 
BRANCH   4  12
ATOM     12  O   UNL     1       0.340  11.694  21.606  0.00  0.00    +0.000 OA
BRANCH  12  14
ATOM     13  C   UNL     1      -1.946  12.200  20.852  0.00  0.00    +0.000 C 
ATOM     14  C   UNL     1      -0.948  12.237  22.016  0.00  0.00    +0.000 C 
ATOM     15  C   UNL     1      -0.799  13.641  22.622  0.00  0.00    +0.000 C 
ATOM     16  C   UNL     1      -1.485  11.308  23.122  0.00  0.00    +0.000 C 
ENDBRANCH  12  14
ENDBRANCH   4  12
ENDBRANCH   1   9
BRANCH   3  17
ATOM     17  O   UNL     1       3.880   4.570  19.381  0.00  0.00    +0.000 OA
BRANCH  17  18
ATOM     18  C   UNL     1       4.615   4.616  18.216  0.00  0.00    +0.000 A 
ATOM     19  C   UNL     1       5.594   5.601  18.003  0.00  0.00    +0.000 A 
ATOM     20  C   UNL     1       6.333   5.631  16.816  0.00  0.00    +0.000 A 
ATOM     21  C   UNL     1       6.085   4.682  15.816  0.00  0.00    +0.000 A 
ATOM     22  C   UNL     1       5.088   3.716  15.985  0.00  0.00    +0.000 A 
ATOM     23  C   UNL     1       4.358   3.705  17.186  0.00  0.00    +0.000 A 
BRANCH  21  24
ATOM     24  N   UNL     1       6.881   4.710  14.583  0.00  0.00    +0.000 N 
ATOM     25  O   UNL     1       6.534   3.972  13.652  0.00  0.00    +0.000 OA
ATOM     26  O   UNL     1       7.852   5.483  14.545  0.00  0.00    +0.000 OA
ENDBRANCH  21  24
BRANCH  23  27
ATOM     27  N   UNL     1       3.312   2.710  17.331  0.00  0.00    +0.000 N 
ATOM     28  O   UNL     1       2.185   3.007  16.917  0.00  0.00    +0.000 OA
ATOM     29  O   UNL     1       3.622   1.661  17.907  0.00  0.00    +0.000 OA
ENDBRANCH  23  27
ENDBRANCH  17  18
ENDBRANCH   3  17
TORSDOF 7
ENDMDL
MODEL 7
REMARK VINA RESULT:      -7.3      1.646      2.537
REMARK  Name = 
REMARK  10 active torsions:
REMARK  status: ('A' for Active; 'I' for Inactive)
REMARK    1  A    between atoms: C_1  and  C_2
REMARK    2  A    between atoms: C_2  and  C_3
REMARK    3  A    between atoms: C_2  and  C_4
REMARK    4  A    between atoms: C_2  and  O_5
REMARK    5  A    between atoms: O_5  and  C_6
REMARK    6  A    between atoms: N_11  and  N_12
REMARK    7  A    between atoms: N_14  and  O_15
REMARK    8  A    between atoms: O_15  and  C_16
REMARK    9  A    between atoms: C_19  and  N_20
REMARK   10  A    between atoms: C_24  and  N_25
REMARK                            x       y       z     vdW  Elec       q    Type
REMARK                         _______ _______ _______ _____ _____    ______ ____
ROOT
ATOM      1  N   UNL     1       1.946   7.875  19.773  0.00  0.00    +0.000 N 
ATOM      2  O   UNL     1       2.268   7.659  20.984  0.00  0.00    +0.000 OA
ATOM      3  N   UNL     1       2.466   7.295  18.765  0.00  0.00    +0.000 NA
ENDROOT
BRANCH   1   9
ATOM      4  C   UNL     1      -1.963  11.725  18.984  0.00  0.00    +0.000 C 
ATOM      5  O   UNL     1      -2.635  12.109  19.934  0.00  0.00    +0.000 OA
ATOM      6  N   UNL     1      -0.810  10.989  19.153  0.00  0.00    +0.000 N 
ATOM      7  C   UNL     1      -0.395  10.620  20.507  0.00  0.00    +0.000 C 
ATOM      8  C   UNL     1      -0.051   9.127  20.585  0.00  0.00    +0.000 C 
ATOM      9  N   UNL     1       0.896   8.766  19.534  0.00  0.00    +0.000 N 
ATOM     10  C   UNL     1       0.523   9.138  18.170  0.00  0.00    +0.000 C 
ATOM     11  C   UNL     1       0.128  10.625  18.084  0.00  0.00    +0.000 C 
BRANCH   4  12
ATOM     12  O   UNL     1      -2.283  11.949  17.679  0.00  0.00    +0.000 OA
BRANCH  12  14
ATOM     13  C   UNL     1      -4.662  11.792  17.073  0.00  0.00    +0.000 C 
ATOM     14  C   UNL     1      -3.289  11.106  17.048  0.00  0.00    +0.000 C 
ATOM     15  C   UNL     1      -3.319   9.703  17.672  0.00  0.00    +0.000 C 
ATOM     16  C   UNL     1      -2.872  10.950  15.574  0.00  0.00    +0.000 C 
ENDBRANCH  12  14
ENDBRANCH   4  12
ENDBRANCH   1   9
BRANCH   3  17
ATOM     17  O   UNL     1       3.435   6.363  19.188  0.00  0.00    +0.000 OA
BRANCH  17  18
ATOM     18  C   UNL     1       4.190   5.974  18.103  0.00  0.00    +0.000 A 
ATOM     19  C   UNL     1       4.547   6.882  17.092  0.00  0.00    +0.000 A 
ATOM     20  C   UNL     1       5.317   6.472  15.999  0.00  0.00    +0.000 A 
ATOM     21  C   UNL     1       5.723   5.135  15.895  0.00  0.00    +0.000 A 
ATOM     22  C   UNL     1       5.347   4.201  16.866  0.00  0.00    +0.000 A 
ATOM     23  C   UNL     1       4.573   4.637  17.955  0.00  0.00    +0.000 A 
BRANCH  21  24
ATOM     24  N   UNL     1       6.549   4.720  14.755  0.00  0.00    +0.000 N 
ATOM     25  O   UNL     1       6.135   3.791  14.048  0.00  0.00    +0.000 OA
ATOM     26  O   UNL     1       7.609   5.334  14.561  0.00  0.00    +0.000 OA
ENDBRANCH  21  24
BRANCH  23  27
ATOM     27  N   UNL     1       4.173   3.647  18.937  0.00  0.00    +0.000 N 
ATOM     28  O   UNL     1       2.989   3.289  18.932  0.00  0.00    +0.000 OA
ATOM     29  O   UNL     1       5.039   3.279  19.738  0.00  0.00    +0.000 OA
ENDBRANCH  23  27
ENDBRANCH  17  18
ENDBRANCH   3  17
TORSDOF 7
ENDMDL
MODEL 8
REMARK VINA RESULT:      -7.3      2.190      3.437
REMARK  Name = 
REMARK  10 active torsions:
REMARK  status: ('A' for Active; 'I' for Inactive)
REMARK    1  A    between atoms: C_1  and  C_2
REMARK    2  A    between atoms: C_2  and  C_3
REMARK    3  A    between atoms: C_2  and  C_4
REMARK    4  A    between atoms: C_2  and  O_5
REMARK    5  A    between atoms: O_5  and  C_6
REMARK    6  A    between atoms: N_11  and  N_12
REMARK    7  A    between atoms: N_14  and  O_15
REMARK    8  A    between atoms: O_15  and  C_16
REMARK    9  A    between atoms: C_19  and  N_20
REMARK   10  A    between atoms: C_24  and  N_25
REMARK                            x       y       z     vdW  Elec       q    Type
REMARK                         _______ _______ _______ _____ _____    ______ ____
ROOT
ATOM      1  N   UNL     1       3.231   5.393  19.168  0.00  0.00    +0.000 N 
ATOM      2  O   UNL     1       2.686   4.250  19.060  0.00  0.00    +0.000 OA
ATOM      3  N   UNL     1       4.475   5.625  19.026  0.00  0.00    +0.000 NA
ENDROOT
BRANCH   1   9
ATOM      4  C   UNL     1       0.204   9.891  20.327  0.00  0.00    +0.000 C 
ATOM      5  O   UNL     1      -0.434   9.938  21.373  0.00  0.00    +0.000 OA
ATOM      6  N   UNL     1       1.179   8.940  20.107  0.00  0.00    +0.000 N 
ATOM      7  C   UNL     1       1.434   7.933  21.137  0.00  0.00    +0.000 C 
ATOM      8  C   UNL     1       1.473   6.526  20.527  0.00  0.00    +0.000 C 
ATOM      9  N   UNL     1       2.391   6.488  19.392  0.00  0.00    +0.000 N 
ATOM     10  C   UNL     1       2.179   7.495  18.352  0.00  0.00    +0.000 C 
ATOM     11  C   UNL     1       2.088   8.910  18.956  0.00  0.00    +0.000 C 
BRANCH   4  12
ATOM     12  O   UNL     1       0.012  10.731  19.273  0.00  0.00    +0.000 OA
BRANCH  12  14
ATOM     13  C   UNL     1       1.002  12.396  20.788  0.00  0.00    +0.000 C 
ATOM     14  C   UNL     1       0.323  12.144  19.436  0.00  0.00    +0.000 C 
ATOM     15  C   UNL     1      -0.922  13.021  19.228  0.00  0.00    +0.000 C 
ATOM     16  C   UNL     1       1.333  12.503  18.331  0.00  0.00    +0.000 C 
ENDBRANCH  12  14
ENDBRANCH   4  12
ENDBRANCH   1   9
BRANCH   3  17
ATOM     17  O   UNL     1       5.158   4.433  18.711  0.00  0.00    +0.000 OA
BRANCH  17  18
ATOM     18  C   UNL     1       5.677   4.534  17.438  0.00  0.00    +0.000 A 
ATOM     19  C   UNL     1       5.008   3.995  16.327  0.00  0.00    +0.000 A 
ATOM     20  C   UNL     1       5.547   4.108  15.041  0.00  0.00    +0.000 A 
ATOM     21  C   UNL     1       6.780   4.749  14.857  0.00  0.00    +0.000 A 
ATOM     22  C   UNL     1       7.487   5.258  15.951  0.00  0.00    +0.000 A 
ATOM     23  C   UNL     1       6.925   5.132  17.233  0.00  0.00    +0.000 A 
BRANCH  21  24
ATOM     24  N   UNL     1       7.326   4.880  13.501  0.00  0.00    +0.000 N 
ATOM     25  O   UNL     1       6.859   4.152  12.615  0.00  0.00    +0.000 OA
ATOM     26  O   UNL     1       8.219   5.723  13.322  0.00  0.00    +0.000 OA
ENDBRANCH  21  24
BRANCH  23  27
ATOM     27  N   UNL     1       7.686   5.644  18.356  0.00  0.00    +0.000 N 
ATOM     28  O   UNL     1       7.813   6.871  18.444  0.00  0.00    +0.000 OA
ATOM     29  O   UNL     1       8.193   4.806  19.111  0.00  0.00    +0.000 OA
ENDBRANCH  23  27
ENDBRANCH  17  18
ENDBRANCH   3  17
TORSDOF 7
ENDMDL
MODEL 9
REMARK VINA RESULT:      -7.2      1.773      2.408
REMARK  Name = 
REMARK  10 active torsions:
REMARK  status: ('A' for Active; 'I' for Inactive)
REMARK    1  A    between atoms: C_1  and  C_2
REMARK    2  A    between atoms: C_2  and  C_3
REMARK    3  A    between atoms: C_2  and  C_4
REMARK    4  A    between atoms: C_2  and  O_5
REMARK    5  A    between atoms: O_5  and  C_6
REMARK    6  A    between atoms: N_11  and  N_12
REMARK    7  A    between atoms: N_14  and  O_15
REMARK    8  A    between atoms: O_15  and  C_16
REMARK    9  A    between atoms: C_19  and  N_20
REMARK   10  A    between atoms: C_24  and  N_25
REMARK                            x       y       z     vdW  Elec       q    Type
REMARK                         _______ _______ _______ _____ _____    ______ ____
ROOT
ATOM      1  N   UNL     1       1.578   8.374  19.648  0.00  0.00    +0.000 N 
ATOM      2  O   UNL     1       1.464   7.832  20.792  0.00  0.00    +0.000 OA
ATOM      3  N   UNL     1       2.103   7.821  18.627  0.00  0.00    +0.000 NA
ENDROOT
BRANCH   1   9
ATOM      4  C   UNL     1      -0.503  13.505  19.390  0.00  0.00    +0.000 C 
ATOM      5  O   UNL     1      -1.594  13.742  19.895  0.00  0.00    +0.000 OA
ATOM      6  N   UNL     1       0.188  12.341  19.653  0.00  0.00    +0.000 N 
ATOM      7  C   UNL     1      -0.416  11.340  20.532  0.00  0.00    +0.000 C 
ATOM      8  C   UNL     1      -0.343   9.944  19.900  0.00  0.00    +0.000 C 
ATOM      9  N   UNL     1       1.023   9.646  19.479  0.00  0.00    +0.000 N 
ATOM     10  C   UNL     1       1.667  10.636  18.616  0.00  0.00    +0.000 C 
ATOM     11  C   UNL     1       1.558  12.052  19.215  0.00  0.00    +0.000 C 
BRANCH   4  12
ATOM     12  O   UNL     1       0.128  14.329  18.508  0.00  0.00    +0.000 OA
BRANCH  12  14
ATOM     13  C   UNL     1       0.668  15.689  20.485  0.00  0.00    +0.000 C 
ATOM     14  C   UNL     1       0.545  15.650  18.956  0.00  0.00    +0.000 C 
ATOM     15  C   UNL     1      -0.383  16.747  18.411  0.00  0.00    +0.000 C 
ATOM     16  C   UNL     1       1.947  15.893  18.368  0.00  0.00    +0.000 C 
ENDBRANCH  12  14
ENDBRANCH   4  12
ENDBRANCH   1   9
BRANCH   3  17
ATOM     17  O   UNL     1       2.520   6.513  18.945  0.00  0.00    +0.000 OA
BRANCH  17  18
ATOM     18  C   UNL     1       3.432   6.089  18.002  0.00  0.00    +0.000 A 
ATOM     19  C   UNL     1       4.302   6.988  17.365  0.00  0.00    +0.000 A 
ATOM     20  C   UNL     1       5.224   6.541  16.412  0.00  0.00    +0.000 A 
ATOM     21  C   UNL     1       5.269   5.183  16.071  0.00  0.00    +0.000 A 
ATOM     22  C   UNL     1       4.385   4.273  16.659  0.00  0.00    +0.000 A 
ATOM     23  C   UNL     1       3.469   4.746  17.614  0.00  0.00    +0.000 A 
BRANCH  21  24
ATOM     24  N   UNL     1       6.253   4.721  15.085  0.00  0.00    +0.000 N 
ATOM     25  O   UNL     1       5.833   4.306  13.997  0.00  0.00    +0.000 OA
ATOM     26  O   UNL     1       7.452   4.785  15.399  0.00  0.00    +0.000 OA
ENDBRANCH  21  24
BRANCH  23  27
ATOM     27  N   UNL     1       2.544   3.789  18.194  0.00  0.00    +0.000 N 
ATOM     28  O   UNL     1       1.476   3.601  17.601  0.00  0.00    +0.000 OA
ATOM     29  O   UNL     1       2.879   3.277  19.268  0.00  0.00    +0.000 OA
ENDBRANCH  23  27
ENDBRANCH  17  18
ENDBRANCH   3  17
TORSDOF 7
ENDMDL
