MODEL 1
REMARK VINA RESULT:      -8.7      0.000      0.000
REMARK  Name = 
REMARK  4 active torsions:
REMARK  status: ('A' for Active; 'I' for Inactive)
REMARK    1  A    between atoms: C_2  and  C_10
REMARK    2  A    between atoms: N_3  and  C_4
REMARK    3  A    between atoms: C_12  and  C_13
REMARK    4  A    between atoms: C_22  and  C_23
REMARK                            x       y       z     vdW  Elec       q    Type
REMARK                         _______ _______ _______ _____ _____    ______ ____
ROOT
ATOM      1  C   UNL     1       0.203  10.525  21.301  0.00  0.00    +0.000 A 
ATOM      2  C   UNL     1       0.008  11.850  20.853  0.00  0.00    +0.000 A 
ATOM      3  C   UNL     1      -0.142  11.977  19.520  0.00  0.00    +0.000 A 
ATOM      4  N   UNL     1       0.937  11.549  18.903  0.00  0.00    +0.000 NA
ATOM      5  C   UNL     1       1.225  10.272  19.147  0.00  0.00    +0.000 A 
ATOM      6  C   UNL     1       1.451   9.635  17.962  0.00  0.00    +0.000 A 
ATOM      7  C   UNL     1       1.727   8.298  17.857  0.00  0.00    +0.000 A 
ATOM      8  C   UNL     1       2.275   7.641  18.937  0.00  0.00    +0.000 A 
ATOM      9  C   UNL     1       1.800   8.198  20.206  0.00  0.00    +0.000 A 
ATOM     10  C   UNL     1       1.031   9.574  20.364  0.00  0.00    +0.000 A 
ENDROOT
BRANCH   8  11
ATOM     11  C   UNL     1       3.370   6.613  18.523  0.00  0.00    +0.000 A 
ATOM     12  C   UNL     1       3.965   5.653  19.341  0.00  0.00    +0.000 A 
ATOM     13  C   UNL     1       5.120   4.897  18.942  0.00  0.00    +0.000 A 
ATOM     14  C   UNL     1       5.724   5.117  17.684  0.00  0.00    +0.000 A 
ATOM     15  S   UNL     1       7.143   4.439  16.969  0.00  0.00    +0.000 S 
ATOM     16  C   UNL     1       6.896   5.399  15.567  0.00  0.00    +0.000 A 
ATOM     17  N   UNL     1       5.837   6.176  15.586  0.00  0.00    +0.000 NA
ATOM     18  C   UNL     1       5.170   6.024  16.800  0.00  0.00    +0.000 A 
ATOM     19  C   UNL     1       4.012   6.726  17.228  0.00  0.00    +0.000 A 
ENDBRANCH   8  11
BRANCH   3  20
ATOM     20  C   UNL     1      -1.304  11.363  18.811  0.00  0.00    +0.000 A 
ATOM     21  C   UNL     1      -2.643  11.346  19.170  0.00  0.00    +0.000 A 
ATOM     22  C   UNL     1      -3.377  11.449  17.961  0.00  0.00    +0.000 A 
ATOM     23  C   UNL     1      -2.458  11.371  16.941  0.00  0.00    +0.000 A 
ATOM     24  O   UNL     1      -1.204  11.244  17.446  0.00  0.00    +0.000 OA
ENDBRANCH   3  20
BRANCH   1  26
ATOM     25  O   UNL     1      -0.909   9.505  23.179  0.00  0.00    +0.000 OA
ATOM     26  C   UNL     1      -0.805  10.553  22.501  0.00  0.00    +0.000 C 
ATOM     27  N   UNL     1      -1.307  11.636  23.186  0.00  0.00    +0.000 N 
ATOM     28  H   UNL     1      -1.502  11.385  24.153  0.00  0.00    +0.000 HD
BRANCH  27  29
ATOM     29  C   UNL     1      -1.850  12.842  22.758  0.00  0.00    +0.000 A 
ATOM     30  C   UNL     1      -3.136  12.860  22.282  0.00  0.00    +0.000 A 
ATOM     31  C   UNL     1      -3.707  14.045  21.850  0.00  0.00    +0.000 A 
ATOM     32  C   UNL     1      -2.993  15.235  21.956  0.00  0.00    +0.000 A 
ATOM     33  C   UNL     1      -1.719  15.243  22.520  0.00  0.00    +0.000 A 
ATOM     34  C   UNL     1      -1.134  14.040  22.928  0.00  0.00    +0.000 A 
ENDBRANCH  27  29
ENDBRANCH   1  26
TORSDOF 4
ENDMDL
MODEL 2
REMARK VINA RESULT:      -8.6      8.610     11.427
REMARK  Name = 
REMARK  4 active torsions:
REMARK  status: ('A' for Active; 'I' for Inactive)
REMARK    1  A    between atoms: C_2  and  C_10
REMARK    2  A    between atoms: N_3  and  C_4
REMARK    3  A    between atoms: C_12  and  C_13
REMARK    4  A    between atoms: C_22  and  C_23
REMARK                            x       y       z     vdW  Elec       q    Type
REMARK                         _______ _______ _______ _____ _____    ______ ____
ROOT
ATOM      1  C   UNL     1       9.089  15.930  17.704  0.00  0.00    +0.000 A 
ATOM      2  C   UNL     1       9.668  17.203  17.893  0.00  0.00    +0.000 A 
ATOM      3  C   UNL     1       9.202  17.881  18.960  0.00  0.00    +0.000 A 
ATOM      4  N   UNL     1       7.912  18.094  18.829  0.00  0.00    +0.000 NA
ATOM      5  C   UNL     1       7.191  16.978  18.725  0.00  0.00    +0.000 A 
ATOM      6  C   UNL     1       6.146  17.044  19.600  0.00  0.00    +0.000 A 
ATOM      7  C   UNL     1       5.238  16.035  19.777  0.00  0.00    +0.000 A 
ATOM      8  C   UNL     1       5.033  15.132  18.757  0.00  0.00    +0.000 A 
ATOM      9  C   UNL     1       6.259  14.894  17.992  0.00  0.00    +0.000 A 
ATOM     10  C   UNL     1       7.571  15.777  18.078  0.00  0.00    +0.000 A 
ENDROOT
BRANCH   8  11
ATOM     11  C   UNL     1       3.532  14.748  18.586  0.00  0.00    +0.000 A 
ATOM     12  C   UNL     1       2.439  15.611  18.652  0.00  0.00    +0.000 A 
ATOM     13  C   UNL     1       1.080  15.144  18.706  0.00  0.00    +0.000 A 
ATOM     14  C   UNL     1       0.795  13.761  18.714  0.00  0.00    +0.000 A 
ATOM     15  S   UNL     1      -0.700  12.907  18.855  0.00  0.00    +0.000 S 
ATOM     16  C   UNL     1       0.142  11.413  18.768  0.00  0.00    +0.000 A 
ATOM     17  N   UNL     1       1.447  11.501  18.632  0.00  0.00    +0.000 NA
ATOM     18  C   UNL     1       1.824  12.842  18.611  0.00  0.00    +0.000 A 
ATOM     19  C   UNL     1       3.147  13.352  18.532  0.00  0.00    +0.000 A 
ENDBRANCH   8  11
BRANCH   3  20
ATOM     20  C   UNL     1       9.407  17.372  20.349  0.00  0.00    +0.000 A 
ATOM     21  C   UNL     1      10.340  16.463  20.822  0.00  0.00    +0.000 A 
ATOM     22  C   UNL     1      10.702  16.909  22.119  0.00  0.00    +0.000 A 
ATOM     23  C   UNL     1       9.868  17.961  22.414  0.00  0.00    +0.000 A 
ATOM     24  O   UNL     1       9.028  18.202  21.375  0.00  0.00    +0.000 OA
ENDBRANCH   3  20
BRANCH   1  26
ATOM     25  O   UNL     1      11.267  15.679  16.704  0.00  0.00    +0.000 OA
ATOM     26  C   UNL     1      10.411  15.130  17.434  0.00  0.00    +0.000 C 
ATOM     27  N   UNL     1      10.969  14.108  18.166  0.00  0.00    +0.000 N 
ATOM     28  H   UNL     1      11.984  14.124  18.082  0.00  0.00    +0.000 HD
BRANCH  27  29
ATOM     29  C   UNL     1      10.432  12.949  18.715  0.00  0.00    +0.000 A 
ATOM     30  C   UNL     1       9.931  11.987  17.875  0.00  0.00    +0.000 A 
ATOM     31  C   UNL     1       9.390  10.821  18.389  0.00  0.00    +0.000 A 
ATOM     32  C   UNL     1       9.409  10.597  19.763  0.00  0.00    +0.000 A 
ATOM     33  C   UNL     1       9.995  11.527  20.619  0.00  0.00    +0.000 A 
ATOM     34  C   UNL     1      10.514  12.717  20.099  0.00  0.00    +0.000 A 
ENDBRANCH  27  29
ENDBRANCH   1  26
TORSDOF 4
ENDMDL
MODEL 3
REMARK VINA RESULT:      -8.5      2.875      5.064
REMARK  Name = 
REMARK  4 active torsions:
REMARK  status: ('A' for Active; 'I' for Inactive)
REMARK    1  A    between atoms: C_2  and  C_10
REMARK    2  A    between atoms: N_3  and  C_4
REMARK    3  A    between atoms: C_12  and  C_13
REMARK    4  A    between atoms: C_22  and  C_23
REMARK                            x       y       z     vdW  Elec       q    Type
REMARK                         _______ _______ _______ _____ _____    ______ ____
ROOT
ATOM      1  C   UNL     1      -2.923  12.604  22.894  0.00  0.00    +0.000 A 
ATOM      2  C   UNL     1      -2.630  13.675  23.765  0.00  0.00    +0.000 A 
ATOM      3  C   UNL     1      -1.719  14.550  23.297  0.00  0.00    +0.000 A 
ATOM      4  N   UNL     1      -0.574  13.939  23.088  0.00  0.00    +0.000 NA
ATOM      5  C   UNL     1      -0.650  12.940  22.209  0.00  0.00    +0.000 A 
ATOM      6  C   UNL     1       0.348  13.083  21.291  0.00  0.00    +0.000 A 
ATOM      7  C   UNL     1       0.522  12.246  20.221  0.00  0.00    +0.000 A 
ATOM      8  C   UNL     1       0.029  10.961  20.289  0.00  0.00    +0.000 A 
ATOM      9  C   UNL     1      -1.200  10.896  21.083  0.00  0.00    +0.000 A 
ATOM     10  C   UNL     1      -1.737  12.050  22.025  0.00  0.00    +0.000 A 
ENDROOT
BRANCH   8  11
ATOM     11  C   UNL     1       0.994   9.913  19.658  0.00  0.00    +0.000 A 
ATOM     12  C   UNL     1       1.503   9.923  18.360  0.00  0.00    +0.000 A 
ATOM     13  C   UNL     1       2.205   8.806  17.790  0.00  0.00    +0.000 A 
ATOM     14  C   UNL     1       2.394   7.619  18.534  0.00  0.00    +0.000 A 
ATOM     15  S   UNL     1       3.108   6.107  18.102  0.00  0.00    +0.000 S 
ATOM     16  C   UNL     1       2.772   5.499  19.673  0.00  0.00    +0.000 A 
ATOM     17  N   UNL     1       2.180   6.336  20.494  0.00  0.00    +0.000 NA
ATOM     18  C   UNL     1       1.953   7.546  19.842  0.00  0.00    +0.000 A 
ATOM     19  C   UNL     1       1.290   8.686  20.371  0.00  0.00    +0.000 A 
ENDBRANCH   8  11
BRANCH   3  20
ATOM     20  C   UNL     1      -1.989  15.367  22.076  0.00  0.00    +0.000 A 
ATOM     21  C   UNL     1      -3.202  15.698  21.491  0.00  0.00    +0.000 A 
ATOM     22  C   UNL     1      -3.052  17.016  20.991  0.00  0.00    +0.000 A 
ATOM     23  C   UNL     1      -1.729  17.349  21.164  0.00  0.00    +0.000 A 
ATOM     24  O   UNL     1      -1.060  16.325  21.755  0.00  0.00    +0.000 OA
ENDBRANCH   3  20
BRANCH   1  26
ATOM     25  O   UNL     1      -4.958  12.935  24.142  0.00  0.00    +0.000 OA
ATOM     26  C   UNL     1      -4.485  12.645  23.019  0.00  0.00    +0.000 C 
ATOM     27  N   UNL     1      -5.429  12.806  22.031  0.00  0.00    +0.000 N 
ATOM     28  H   UNL     1      -6.252  13.279  22.399  0.00  0.00    +0.000 HD
BRANCH  27  29
ATOM     29  C   UNL     1      -5.589  12.210  20.784  0.00  0.00    +0.000 A 
ATOM     30  C   UNL     1      -6.721  11.476  20.539  0.00  0.00    +0.000 A 
ATOM     31  C   UNL     1      -6.911  10.871  19.308  0.00  0.00    +0.000 A 
ATOM     32  C   UNL     1      -5.976  11.059  18.295  0.00  0.00    +0.000 A 
ATOM     33  C   UNL     1      -4.866  11.875  18.503  0.00  0.00    +0.000 A 
ATOM     34  C   UNL     1      -4.662  12.460  19.757  0.00  0.00    +0.000 A 
ENDBRANCH  27  29
ENDBRANCH   1  26
TORSDOF 4
ENDMDL
MODEL 4
REMARK VINA RESULT:      -8.5      2.561      4.626
REMARK  Name = 
REMARK  4 active torsions:
REMARK  status: ('A' for Active; 'I' for Inactive)
REMARK    1  A    between atoms: C_2  and  C_10
REMARK    2  A    between atoms: N_3  and  C_4
REMARK    3  A    between atoms: C_12  and  C_13
REMARK    4  A    between atoms: C_22  and  C_23
REMARK                            x       y       z     vdW  Elec       q    Type
REMARK                         _______ _______ _______ _____ _____    ______ ____
ROOT
ATOM      1  C   UNL     1      -2.348  12.435  22.191  0.00  0.00    +0.000 A 
ATOM      2  C   UNL     1      -2.019  13.517  23.036  0.00  0.00    +0.000 A 
ATOM      3  C   UNL     1      -1.028  14.307  22.580  0.00  0.00    +0.000 A 
ATOM      4  N   UNL     1       0.079  13.610  22.448  0.00  0.00    +0.000 NA
ATOM      5  C   UNL     1      -0.028  12.584  21.604  0.00  0.00    +0.000 A 
ATOM      6  C   UNL     1       1.019  12.620  20.730  0.00  0.00    +0.000 A 
ATOM      7  C   UNL     1       1.181  11.731  19.702  0.00  0.00    +0.000 A 
ATOM      8  C   UNL     1       0.595  10.488  19.793  0.00  0.00    +0.000 A 
ATOM      9  C   UNL     1      -0.671  10.540  20.528  0.00  0.00    +0.000 A 
ATOM     10  C   UNL     1      -1.166  11.765  21.401  0.00  0.00    +0.000 A 
ENDROOT
BRANCH   8  11
ATOM     11  C   UNL     1       1.510   9.350  19.248  0.00  0.00    +0.000 A 
ATOM     12  C   UNL     1       2.068   9.267  17.973  0.00  0.00    +0.000 A 
ATOM     13  C   UNL     1       2.714   8.081  17.480  0.00  0.00    +0.000 A 
ATOM     14  C   UNL     1       2.793   6.921  18.282  0.00  0.00    +0.000 A 
ATOM     15  S   UNL     1       3.420   5.347  17.946  0.00  0.00    +0.000 S 
ATOM     16  C   UNL     1       2.985   4.835  19.527  0.00  0.00    +0.000 A 
ATOM     17  N   UNL     1       2.419   5.746  20.286  0.00  0.00    +0.000 NA
ATOM     18  C   UNL     1       2.300   6.937  19.574  0.00  0.00    +0.000 A 
ATOM     19  C   UNL     1       1.696   8.141  20.025  0.00  0.00    +0.000 A 
ENDBRANCH   8  11
BRANCH   3  20
ATOM     20  C   UNL     1      -1.183  15.091  21.318  0.00  0.00    +0.000 A 
ATOM     21  C   UNL     1      -2.340  15.536  20.698  0.00  0.00    +0.000 A 
ATOM     22  C   UNL     1      -2.027  16.802  20.140  0.00  0.00    +0.000 A 
ATOM     23  C   UNL     1      -0.676  16.982  20.321  0.00  0.00    +0.000 A 
ATOM     24  O   UNL     1      -0.142  15.915  20.969  0.00  0.00    +0.000 OA
ENDBRANCH   3  20
BRANCH   1  26
ATOM     25  O   UNL     1      -4.418  12.849  23.353  0.00  0.00    +0.000 OA
ATOM     26  C   UNL     1      -3.907  12.590  22.239  0.00  0.00    +0.000 C 
ATOM     27  N   UNL     1      -4.780  12.880  21.216  0.00  0.00    +0.000 N 
ATOM     28  H   UNL     1      -5.585  13.394  21.572  0.00  0.00    +0.000 HD
BRANCH  27  29
ATOM     29  C   UNL     1      -4.915  12.373  19.929  0.00  0.00    +0.000 A 
ATOM     30  C   UNL     1      -3.786  12.084  19.207  0.00  0.00    +0.000 A 
ATOM     31  C   UNL     1      -3.885  11.577  17.923  0.00  0.00    +0.000 A 
ATOM     32  C   UNL     1      -5.139  11.302  17.384  0.00  0.00    +0.000 A 
ATOM     33  C   UNL     1      -6.291  11.508  18.140  0.00  0.00    +0.000 A 
ATOM     34  C   UNL     1      -6.188  12.049  19.426  0.00  0.00    +0.000 A 
ENDBRANCH  27  29
ENDBRANCH   1  26
TORSDOF 4
ENDMDL
MODEL 5
REMARK VINA RESULT:      -8.5      8.052      9.553
REMARK  Name = 
REMARK  4 active torsions:
REMARK  status: ('A' for Active; 'I' for Inactive)
REMARK    1  A    between atoms: C_2  and  C_10
REMARK    2  A    between atoms: N_3  and  C_4
REMARK    3  A    between atoms: C_12  and  C_13
REMARK    4  A    between atoms: C_22  and  C_23
REMARK                            x       y       z     vdW  Elec       q    Type
REMARK                         _______ _______ _______ _____ _____    ______ ____
ROOT
ATOM      1  C   UNL     1      10.530  13.178  20.719  0.00  0.00    +0.000 A 
ATOM      2  C   UNL     1      11.724  13.759  20.237  0.00  0.00    +0.000 A 
ATOM      3  C   UNL     1      11.855  13.746  18.896  0.00  0.00    +0.000 A 
ATOM      4  N   UNL     1      11.860  12.508  18.456  0.00  0.00    +0.000 NA
ATOM      5  C   UNL     1      10.752  11.828  18.750  0.00  0.00    +0.000 A 
ATOM      6  C   UNL     1      10.292  11.222  17.618  0.00  0.00    +0.000 A 
ATOM      7  C   UNL     1       9.141  10.482  17.566  0.00  0.00    +0.000 A 
ATOM      8  C   UNL     1       8.664   9.903  18.722  0.00  0.00    +0.000 A 
ATOM      9  C   UNL     1       8.960  10.724  19.899  0.00  0.00    +0.000 A 
ATOM     10  C   UNL     1       9.972  11.941  19.927  0.00  0.00    +0.000 A 
ENDROOT
BRANCH   8  11
ATOM     11  C   UNL     1       8.103   8.468  18.489  0.00  0.00    +0.000 A 
ATOM     12  C   UNL     1       8.537   7.293  19.101  0.00  0.00    +0.000 A 
ATOM     13  C   UNL     1       8.120   5.988  18.667  0.00  0.00    +0.000 A 
ATOM     14  C   UNL     1       7.248   5.842  17.565  0.00  0.00    +0.000 A 
ATOM     15  S   UNL     1       6.646   4.431  16.770  0.00  0.00    +0.000 S 
ATOM     16  C   UNL     1       5.779   5.421  15.667  0.00  0.00    +0.000 A 
ATOM     17  N   UNL     1       5.894   6.717  15.851  0.00  0.00    +0.000 NA
ATOM     18  C   UNL     1       6.743   6.961  16.930  0.00  0.00    +0.000 A 
ATOM     19  C   UNL     1       7.162   8.229  17.413  0.00  0.00    +0.000 A 
ENDBRANCH   8  11
BRANCH   3  20
ATOM     20  C   UNL     1      10.910  14.501  18.020  0.00  0.00    +0.000 A 
ATOM     21  C   UNL     1       9.715  15.122  18.348  0.00  0.00    +0.000 A 
ATOM     22  C   UNL     1       9.646  16.291  17.550  0.00  0.00    +0.000 A 
ATOM     23  C   UNL     1      10.715  16.236  16.687  0.00  0.00    +0.000 A 
ATOM     24  O   UNL     1      11.447  15.115  16.915  0.00  0.00    +0.000 OA
ENDBRANCH   3  20
BRANCH   1  26
ATOM     25  O   UNL     1      10.729  15.400  21.631  0.00  0.00    +0.000 OA
ATOM     26  C   UNL     1      10.148  14.297  21.749  0.00  0.00    +0.000 C 
ATOM     27  N   UNL     1       9.011  14.418  22.514  0.00  0.00    +0.000 N 
ATOM     28  H   UNL     1       8.798  15.399  22.680  0.00  0.00    +0.000 HD
BRANCH  27  29
ATOM     29  C   UNL     1       8.317  13.511  23.308  0.00  0.00    +0.000 A 
ATOM     30  C   UNL     1       8.530  13.516  24.663  0.00  0.00    +0.000 A 
ATOM     31  C   UNL     1       7.854  12.627  25.481  0.00  0.00    +0.000 A 
ATOM     32  C   UNL     1       6.910  11.763  24.932  0.00  0.00    +0.000 A 
ATOM     33  C   UNL     1       6.622  11.810  23.570  0.00  0.00    +0.000 A 
ATOM     34  C   UNL     1       7.327  12.688  22.742  0.00  0.00    +0.000 A 
ENDBRANCH  27  29
ENDBRANCH   1  26
TORSDOF 4
ENDMDL
MODEL 6
REMARK VINA RESULT:      -8.4      4.087      9.610
REMARK  Name = 
REMARK  4 active torsions:
REMARK  status: ('A' for Active; 'I' for Inactive)
REMARK    1  A    between atoms: C_2  and  C_10
REMARK    2  A    between atoms: N_3  and  C_4
REMARK    3  A    between atoms: C_12  and  C_13
REMARK    4  A    between atoms: C_22  and  C_23
REMARK                            x       y       z     vdW  Elec       q    Type
REMARK                         _______ _______ _______ _____ _____    ______ ____
ROOT
ATOM      1  C   UNL     1       4.170   4.269  16.824  0.00  0.00    +0.000 A 
ATOM      2  C   UNL     1       5.077   4.280  15.742  0.00  0.00    +0.000 A 
ATOM      3  C   UNL     1       5.896   5.350  15.705  0.00  0.00    +0.000 A 
ATOM      4  N   UNL     1       5.191   6.453  15.588  0.00  0.00    +0.000 NA
ATOM      5  C   UNL     1       4.331   6.649  16.586  0.00  0.00    +0.000 A 
ATOM      6  C   UNL     1       4.477   7.924  17.051  0.00  0.00    +0.000 A 
ATOM      7  C   UNL     1       3.772   8.432  18.109  0.00  0.00    +0.000 A 
ATOM      8  C   UNL     1       2.555   7.875  18.433  0.00  0.00    +0.000 A 
ATOM      9  C   UNL     1       2.527   6.437  18.153  0.00  0.00    +0.000 A 
ATOM     10  C   UNL     1       3.602   5.658  17.289  0.00  0.00    +0.000 A 
ENDROOT
BRANCH   8  11
ATOM     11  C   UNL     1       1.494   8.942  18.839  0.00  0.00    +0.000 A 
ATOM     12  C   UNL     1       1.015   9.984  18.047  0.00  0.00    +0.000 A 
ATOM     13  C   UNL     1       0.207  11.052  18.569  0.00  0.00    +0.000 A 
ATOM     14  C   UNL     1      -0.123  11.099  19.942  0.00  0.00    +0.000 A 
ATOM     15  S   UNL     1      -0.988  12.274  20.865  0.00  0.00    +0.000 S 
ATOM     16  C   UNL     1      -0.751  11.337  22.284  0.00  0.00    +0.000 A 
ATOM     17  N   UNL     1      -0.087  10.214  22.122  0.00  0.00    +0.000 NA
ATOM     18  C   UNL     1       0.282  10.080  20.785  0.00  0.00    +0.000 A 
ATOM     19  C   UNL     1       1.054   9.032  20.217  0.00  0.00    +0.000 A 
ENDBRANCH   8  11
BRANCH   3  20
ATOM     20  C   UNL     1       6.891   5.599  16.790  0.00  0.00    +0.000 A 
ATOM     21  C   UNL     1       7.487   6.789  17.179  0.00  0.00    +0.000 A 
ATOM     22  C   UNL     1       7.622   6.721  18.589  0.00  0.00    +0.000 A 
ATOM     23  C   UNL     1       7.245   5.450  18.953  0.00  0.00    +0.000 A 
ATOM     24  O   UNL     1       6.870   4.738  17.859  0.00  0.00    +0.000 OA
ENDBRANCH   3  20
BRANCH   1  26
ATOM     25  O   UNL     1       5.095   2.064  16.525  0.00  0.00    +0.000 OA
ATOM     26  C   UNL     1       4.373   2.777  17.260  0.00  0.00    +0.000 C 
ATOM     27  N   UNL     1       4.224   2.211  18.505  0.00  0.00    +0.000 N 
ATOM     28  H   UNL     1       4.862   1.425  18.615  0.00  0.00    +0.000 HD
BRANCH  27  29
ATOM     29  C   UNL     1       3.221   2.308  19.463  0.00  0.00    +0.000 A 
ATOM     30  C   UNL     1       3.571   2.501  20.774  0.00  0.00    +0.000 A 
ATOM     31  C   UNL     1       2.596   2.603  21.752  0.00  0.00    +0.000 A 
ATOM     32  C   UNL     1       1.252   2.569  21.393  0.00  0.00    +0.000 A 
ATOM     33  C   UNL     1       0.883   2.462  20.054  0.00  0.00    +0.000 A 
ATOM     34  C   UNL     1       1.870   2.330  19.072  0.00  0.00    +0.000 A 
ENDBRANCH  27  29
ENDBRANCH   1  26
TORSDOF 4
ENDMDL
MODEL 7
REMARK VINA RESULT:      -8.4      4.270      9.490
REMARK  Name = 
REMARK  4 active torsions:
REMARK  status: ('A' for Active; 'I' for Inactive)
REMARK    1  A    between atoms: C_2  and  C_10
REMARK    2  A    between atoms: N_3  and  C_4
REMARK    3  A    between atoms: C_12  and  C_13
REMARK    4  A    between atoms: C_22  and  C_23
REMARK                            x       y       z     vdW  Elec       q    Type
REMARK                         _______ _______ _______ _____ _____    ______ ____
ROOT
ATOM      1  C   UNL     1       4.126   4.209  16.853  0.00  0.00    +0.000 A 
ATOM      2  C   UNL     1       5.098   4.160  15.830  0.00  0.00    +0.000 A 
ATOM      3  C   UNL     1       5.947   5.206  15.809  0.00  0.00    +0.000 A 
ATOM      4  N   UNL     1       5.281   6.323  15.613  0.00  0.00    +0.000 NA
ATOM      5  C   UNL     1       4.367   6.575  16.550  0.00  0.00    +0.000 A 
ATOM      6  C   UNL     1       4.520   7.860  16.982  0.00  0.00    +0.000 A 
ATOM      7  C   UNL     1       3.767   8.422  17.977  0.00  0.00    +0.000 A 
ATOM      8  C   UNL     1       2.517   7.907  18.242  0.00  0.00    +0.000 A 
ATOM      9  C   UNL     1       2.466   6.462  18.007  0.00  0.00    +0.000 A 
ATOM     10  C   UNL     1       3.570   5.627  17.237  0.00  0.00    +0.000 A 
ENDROOT
BRANCH   8  11
ATOM     11  C   UNL     1       1.463   9.014  18.548  0.00  0.00    +0.000 A 
ATOM     12  C   UNL     1       1.290   9.691  19.755  0.00  0.00    +0.000 A 
ATOM     13  C   UNL     1       0.157  10.534  20.020  0.00  0.00    +0.000 A 
ATOM     14  C   UNL     1      -0.859  10.698  19.053  0.00  0.00    +0.000 A 
ATOM     15  S   UNL     1      -2.355  11.560  19.108  0.00  0.00    +0.000 S 
ATOM     16  C   UNL     1      -2.706  11.057  17.504  0.00  0.00    +0.000 A 
ATOM     17  N   UNL     1      -1.794  10.307  16.929  0.00  0.00    +0.000 NA
ATOM     18  C   UNL     1      -0.741  10.091  17.816  0.00  0.00    +0.000 A 
ATOM     19  C   UNL     1       0.411   9.291  17.590  0.00  0.00    +0.000 A 
ENDBRANCH   8  11
BRANCH   3  20
ATOM     20  C   UNL     1       6.880   5.467  16.946  0.00  0.00    +0.000 A 
ATOM     21  C   UNL     1       7.586   6.619  17.257  0.00  0.00    +0.000 A 
ATOM     22  C   UNL     1       7.604   6.700  18.672  0.00  0.00    +0.000 A 
ATOM     23  C   UNL     1       7.048   5.531  19.135  0.00  0.00    +0.000 A 
ATOM     24  O   UNL     1       6.673   4.744  18.095  0.00  0.00    +0.000 OA
ENDBRANCH   3  20
BRANCH   1  26
ATOM     25  O   UNL     1       4.957   1.956  16.649  0.00  0.00    +0.000 OA
ATOM     26  C   UNL     1       4.260   2.728  17.348  0.00  0.00    +0.000 C 
ATOM     27  N   UNL     1       4.077   2.217  18.612  0.00  0.00    +0.000 N 
ATOM     28  H   UNL     1       4.679   1.409  18.760  0.00  0.00    +0.000 HD
BRANCH  27  29
ATOM     29  C   UNL     1       3.070   2.395  19.555  0.00  0.00    +0.000 A 
ATOM     30  C   UNL     1       3.409   2.473  20.882  0.00  0.00    +0.000 A 
ATOM     31  C   UNL     1       2.431   2.651  21.846  0.00  0.00    +0.000 A 
ATOM     32  C   UNL     1       1.103   2.810  21.461  0.00  0.00    +0.000 A 
ATOM     33  C   UNL     1       0.758   2.821  20.111  0.00  0.00    +0.000 A 
ATOM     34  C   UNL     1       1.744   2.612  19.142  0.00  0.00    +0.000 A 
ENDBRANCH  27  29
ENDBRANCH   1  26
TORSDOF 4
ENDMDL
MODEL 8
REMARK VINA RESULT:      -8.4      4.034      9.499
REMARK  Name = 
REMARK  4 active torsions:
REMARK  status: ('A' for Active; 'I' for Inactive)
REMARK    1  A    between atoms: C_2  and  C_10
REMARK    2  A    between atoms: N_3  and  C_4
REMARK    3  A    between atoms: C_12  and  C_13
REMARK    4  A    between atoms: C_22  and  C_23
REMARK                            x       y       z     vdW  Elec       q    Type
REMARK                         _______ _______ _______ _____ _____    ______ ____
ROOT
ATOM      1  C   UNL     1       3.979   4.809  16.990  0.00  0.00    +0.000 A 
ATOM      2  C   UNL     1       5.082   4.979  16.125  0.00  0.00    +0.000 A 
ATOM      3  C   UNL     1       5.778   6.117  16.316  0.00  0.00    +0.000 A 
ATOM      4  N   UNL     1       5.002   7.158  16.111  0.00  0.00    +0.000 NA
ATOM      5  C   UNL     1       3.941   7.205  16.915  0.00  0.00    +0.000 A 
ATOM      6  C   UNL     1       3.858   8.450  17.465  0.00  0.00    +0.000 A 
ATOM      7  C   UNL     1       2.904   8.817  18.376  0.00  0.00    +0.000 A 
ATOM      8  C   UNL     1       1.709   8.130  18.408  0.00  0.00    +0.000 A 
ATOM      9  C   UNL     1       1.887   6.720  18.054  0.00  0.00    +0.000 A 
ATOM     10  C   UNL     1       3.189   6.105  17.396  0.00  0.00    +0.000 A 
ENDROOT
BRANCH   8  11
ATOM     11  C   UNL     1       0.485   9.066  18.636  0.00  0.00    +0.000 A 
ATOM     12  C   UNL     1      -0.357   9.593  17.657  0.00  0.00    +0.000 A 
ATOM     13  C   UNL     1      -1.323  10.622  17.930  0.00  0.00    +0.000 A 
ATOM     14  C   UNL     1      -1.446  11.166  19.228  0.00  0.00    +0.000 A 
ATOM     15  S   UNL     1      -2.435  12.445  19.837  0.00  0.00    +0.000 S 
ATOM     16  C   UNL     1      -1.758  12.226  21.400  0.00  0.00    +0.000 A 
ATOM     17  N   UNL     1      -0.862  11.270  21.505  0.00  0.00    +0.000 NA
ATOM     18  C   UNL     1      -0.674  10.669  20.262  0.00  0.00    +0.000 A 
ATOM     19  C   UNL     1       0.245   9.633  19.949  0.00  0.00    +0.000 A 
ENDBRANCH   8  11
BRANCH   3  20
ATOM     20  C   UNL     1       6.499   6.376  17.598  0.00  0.00    +0.000 A 
ATOM     21  C   UNL     1       6.980   5.472  18.533  0.00  0.00    +0.000 A 
ATOM     22  C   UNL     1       8.191   6.021  19.026  0.00  0.00    +0.000 A 
ATOM     23  C   UNL     1       8.297   7.279  18.481  0.00  0.00    +0.000 A 
ATOM     24  O   UNL     1       7.237   7.532  17.671  0.00  0.00    +0.000 OA
ENDBRANCH   3  20
BRANCH   1  26
ATOM     25  O   UNL     1       5.005   2.657  16.637  0.00  0.00    +0.000 OA
ATOM     26  C   UNL     1       4.241   3.313  17.381  0.00  0.00    +0.000 C 
ATOM     27  N   UNL     1       4.098   2.701  18.604  0.00  0.00    +0.000 N 
ATOM     28  H   UNL     1       4.767   1.939  18.701  0.00  0.00    +0.000 HD
BRANCH  27  29
ATOM     29  C   UNL     1       3.076   2.722  19.547  0.00  0.00    +0.000 A 
ATOM     30  C   UNL     1       3.390   2.557  20.872  0.00  0.00    +0.000 A 
ATOM     31  C   UNL     1       2.397   2.575  21.835  0.00  0.00    +0.000 A 
ATOM     32  C   UNL     1       1.078   2.822  21.464  0.00  0.00    +0.000 A 
ATOM     33  C   UNL     1       0.759   3.079  20.132  0.00  0.00    +0.000 A 
ATOM     34  C   UNL     1       1.760   3.031  19.157  0.00  0.00    +0.000 A 
ENDBRANCH  27  29
ENDBRANCH   1  26
TORSDOF 4
ENDMDL
MODEL 9
REMARK VINA RESULT:      -8.3      8.271     11.100
REMARK  Name = 
REMARK  4 active torsions:
REMARK  status: ('A' for Active; 'I' for Inactive)
REMARK    1  A    between atoms: C_2  and  C_10
REMARK    2  A    between atoms: N_3  and  C_4
REMARK    3  A    between atoms: C_12  and  C_13
REMARK    4  A    between atoms: C_22  and  C_23
REMARK                            x       y       z     vdW  Elec       q    Type
REMARK                         _______ _______ _______ _____ _____    ______ ____
ROOT
ATOM      1  C   UNL     1       8.511  16.176  17.966  0.00  0.00    +0.000 A 
ATOM      2  C   UNL     1       8.989  17.434  18.391  0.00  0.00    +0.000 A 
ATOM      3  C   UNL     1       8.501  17.853  19.575  0.00  0.00    +0.000 A 
ATOM      4  N   UNL     1       7.195  17.975  19.505  0.00  0.00    +0.000 NA
ATOM      5  C   UNL     1       6.564  16.842  19.197  0.00  0.00    +0.000 A 
ATOM      6  C   UNL     1       5.544  16.649  20.082  0.00  0.00    +0.000 A 
ATOM      7  C   UNL     1       4.727  15.551  20.072  0.00  0.00    +0.000 A 
ATOM      8  C   UNL     1       4.566  14.846  18.899  0.00  0.00    +0.000 A 
ATOM      9  C   UNL     1       5.785  14.865  18.086  0.00  0.00    +0.000 A 
ATOM     10  C   UNL     1       7.022  15.825  18.324  0.00  0.00    +0.000 A 
ENDROOT
BRANCH   8  11
ATOM     11  C   UNL     1       3.097  14.375  18.677  0.00  0.00    +0.000 A 
ATOM     12  C   UNL     1       1.949  15.164  18.747  0.00  0.00    +0.000 A 
ATOM     13  C   UNL     1       0.623  14.611  18.750  0.00  0.00    +0.000 A 
ATOM     14  C   UNL     1       0.427  13.213  18.702  0.00  0.00    +0.000 A 
ATOM     15  S   UNL     1      -1.014  12.262  18.774  0.00  0.00    +0.000 S 
ATOM     16  C   UNL     1      -0.076  10.829  18.654  0.00  0.00    +0.000 A 
ATOM     17  N   UNL     1       1.223  11.003  18.554  0.00  0.00    +0.000 NA
ATOM     18  C   UNL     1       1.514  12.366  18.591  0.00  0.00    +0.000 A 
ATOM     19  C   UNL     1       2.803  12.961  18.563  0.00  0.00    +0.000 A 
ENDBRANCH   8  11
BRANCH   3  20
ATOM     20  C   UNL     1       8.788  17.105  20.836  0.00  0.00    +0.000 A 
ATOM     21  C   UNL     1       9.868  16.297  21.152  0.00  0.00    +0.000 A 
ATOM     22  C   UNL     1      10.137  16.515  22.526  0.00  0.00    +0.000 A 
ATOM     23  C   UNL     1       9.124  17.318  22.997  0.00  0.00    +0.000 A 
ATOM     24  O   UNL     1       8.259  17.621  21.994  0.00  0.00    +0.000 OA
ENDBRANCH   3  20
BRANCH   1  26
ATOM     25  O   UNL     1      10.614  16.262  16.793  0.00  0.00    +0.000 OA
ATOM     26  C   UNL     1       9.884  15.559  17.530  0.00  0.00    +0.000 C 
ATOM     27  N   UNL     1      10.608  14.550  18.122  0.00  0.00    +0.000 N 
ATOM     28  H   UNL     1      11.605  14.689  17.966  0.00  0.00    +0.000 HD
BRANCH  27  29
ATOM     29  C   UNL     1      10.246  13.295  18.598  0.00  0.00    +0.000 A 
ATOM     30  C   UNL     1      10.578  12.950  19.883  0.00  0.00    +0.000 A 
ATOM     31  C   UNL     1      10.231  11.708  20.388  0.00  0.00    +0.000 A 
ATOM     32  C   UNL     1       9.489  10.828  19.606  0.00  0.00    +0.000 A 
ATOM     33  C   UNL     1       9.070  11.201  18.331  0.00  0.00    +0.000 A 
ATOM     34  C   UNL     1       9.447  12.444  17.813  0.00  0.00    +0.000 A 
ENDBRANCH  27  29
ENDBRANCH   1  26
TORSDOF 4
ENDMDL
