MODEL 1
REMARK VINA RESULT:      -6.1      0.000      0.000
REMARK  Name = 
REMARK  5 active torsions:
REMARK  status: ('A' for Active; 'I' for Inactive)
REMARK    1  A    between atoms: C_1  and  N_2
REMARK    2  A    between atoms: N_2  and  C_3
REMARK    3  A    between atoms: C_3  and  C_4
REMARK    4  A    between atoms: C_4  and  C_5
REMARK    5  A    between atoms: N_7  and  C_8
REMARK                            x       y       z     vdW  Elec       q    Type
REMARK                         _______ _______ _______ _____ _____    ______ ____
ROOT
ATOM      1  C   UNL     1       4.557   4.579  16.929  0.00  0.00    +0.000 A 
ATOM      2  C   UNL     1       4.318   5.921  17.162  0.00  0.00    +0.000 A 
ATOM      3  N   UNL     1       3.170   6.031  17.900  0.00  0.00    +0.000 N 
ATOM      4  C   UNL     1       2.594   7.281  18.345  0.00  0.00    +0.000 C 
ATOM      5  C   UNL     1       2.646   4.784  18.162  0.00  0.00    +0.000 A 
ATOM      6  C   UNL     1       1.514   4.394  18.896  0.00  0.00    +0.000 A 
ATOM      7  C   UNL     1       1.227   3.029  18.985  0.00  0.00    +0.000 A 
ATOM      8  C   UNL     1       2.028   2.086  18.349  0.00  0.00    +0.000 A 
ATOM      9  C   UNL     1       3.155   2.486  17.622  0.00  0.00    +0.000 A 
ATOM     10  C   UNL     1       3.482   3.855  17.537  0.00  0.00    +0.000 A 
ENDROOT
BRANCH   1  11
ATOM     11  C   UNL     1       5.723   3.998  16.190  0.00  0.00    +0.000 C 
BRANCH  11  12
ATOM     12  C   UNL     1       7.041   4.697  16.548  0.00  0.00    +0.000 C 
BRANCH  12  14
ATOM     13  C   UNL     1       7.708   5.521  18.705  0.00  0.00    +0.000 C 
ATOM     14  N   UNL     1       7.487   4.329  17.898  0.00  0.00    +0.000 NA
ATOM     15  H   UNL     1       6.777   3.749  18.343  0.00  0.00    +0.000 HD
ENDBRANCH  12  14
ENDBRANCH  11  12
ENDBRANCH   1  11
TORSDOF 3
ENDMDL
MODEL 2
REMARK VINA RESULT:      -6.1      1.028      1.462
REMARK  Name = 
REMARK  5 active torsions:
REMARK  status: ('A' for Active; 'I' for Inactive)
REMARK    1  A    between atoms: C_1  and  N_2
REMARK    2  A    between atoms: N_2  and  C_3
REMARK    3  A    between atoms: C_3  and  C_4
REMARK    4  A    between atoms: C_4  and  C_5
REMARK    5  A    between atoms: N_7  and  C_8
REMARK                            x       y       z     vdW  Elec       q    Type
REMARK                         _______ _______ _______ _____ _____    ______ ____
ROOT
ATOM      1  C   UNL     1       4.296   4.503  17.043  0.00  0.00    +0.000 A 
ATOM      2  C   UNL     1       4.122   5.838  17.363  0.00  0.00    +0.000 A 
ATOM      3  N   UNL     1       3.041   5.942  18.196  0.00  0.00    +0.000 N 
ATOM      4  C   UNL     1       2.545   7.183  18.750  0.00  0.00    +0.000 C 
ATOM      5  C   UNL     1       2.497   4.698  18.436  0.00  0.00    +0.000 A 
ATOM      6  C   UNL     1       1.414   4.303  19.238  0.00  0.00    +0.000 A 
ATOM      7  C   UNL     1       1.088   2.945  19.279  0.00  0.00    +0.000 A 
ATOM      8  C   UNL     1       1.805   2.014  18.533  0.00  0.00    +0.000 A 
ATOM      9  C   UNL     1       2.883   2.419  17.739  0.00  0.00    +0.000 A 
ATOM     10  C   UNL     1       3.249   3.780  17.698  0.00  0.00    +0.000 A 
ENDROOT
BRANCH   1  11
ATOM     11  C   UNL     1       5.380   3.929  16.184  0.00  0.00    +0.000 C 
BRANCH  11  12
ATOM     12  C   UNL     1       6.764   4.477  16.555  0.00  0.00    +0.000 C 
BRANCH  12  14
ATOM     13  C   UNL     1       6.892   4.784  14.174  0.00  0.00    +0.000 C 
ATOM     14  N   UNL     1       7.319   5.296  15.469  0.00  0.00    +0.000 NA
ATOM     15  H   UNL     1       6.998   6.258  15.573  0.00  0.00    +0.000 HD
ENDBRANCH  12  14
ENDBRANCH  11  12
ENDBRANCH   1  11
TORSDOF 3
ENDMDL
MODEL 3
REMARK VINA RESULT:      -5.9      1.002      1.002
REMARK  Name = 
REMARK  5 active torsions:
REMARK  status: ('A' for Active; 'I' for Inactive)
REMARK    1  A    between atoms: C_1  and  N_2
REMARK    2  A    between atoms: N_2  and  C_3
REMARK    3  A    between atoms: C_3  and  C_4
REMARK    4  A    between atoms: C_4  and  C_5
REMARK    5  A    between atoms: N_7  and  C_8
REMARK                            x       y       z     vdW  Elec       q    Type
REMARK                         _______ _______ _______ _____ _____    ______ ____
ROOT
ATOM      1  C   UNL     1       4.140   5.024  17.143  0.00  0.00    +0.000 A 
ATOM      2  C   UNL     1       3.912   6.271  17.697  0.00  0.00    +0.000 A 
ATOM      3  N   UNL     1       2.876   6.164  18.587  0.00  0.00    +0.000 N 
ATOM      4  C   UNL     1       2.347   7.258  19.370  0.00  0.00    +0.000 C 
ATOM      5  C   UNL     1       2.416   4.866  18.632  0.00  0.00    +0.000 A 
ATOM      6  C   UNL     1       1.404   4.272  19.405  0.00  0.00    +0.000 A 
ATOM      7  C   UNL     1       1.155   2.909  19.226  0.00  0.00    +0.000 A 
ATOM      8  C   UNL     1       1.877   2.165  18.296  0.00  0.00    +0.000 A 
ATOM      9  C   UNL     1       2.884   2.767  17.534  0.00  0.00    +0.000 A 
ATOM     10  C   UNL     1       3.173   4.136  17.712  0.00  0.00    +0.000 A 
ENDROOT
BRANCH   1  11
ATOM     11  C   UNL     1       5.201   4.674  16.147  0.00  0.00    +0.000 C 
BRANCH  11  12
ATOM     12  C   UNL     1       6.612   4.804  16.736  0.00  0.00    +0.000 C 
BRANCH  12  14
ATOM     13  C   UNL     1       7.489   6.942  17.397  0.00  0.00    +0.000 C 
ATOM     14  N   UNL     1       7.267   6.037  16.278  0.00  0.00    +0.000 NA
ATOM     15  H   UNL     1       8.162   5.805  15.850  0.00  0.00    +0.000 HD
ENDBRANCH  12  14
ENDBRANCH  11  12
ENDBRANCH   1  11
TORSDOF 3
ENDMDL
MODEL 4
REMARK VINA RESULT:      -5.9      1.011      1.113
REMARK  Name = 
REMARK  5 active torsions:
REMARK  status: ('A' for Active; 'I' for Inactive)
REMARK    1  A    between atoms: C_1  and  N_2
REMARK    2  A    between atoms: N_2  and  C_3
REMARK    3  A    between atoms: C_3  and  C_4
REMARK    4  A    between atoms: C_4  and  C_5
REMARK    5  A    between atoms: N_7  and  C_8
REMARK                            x       y       z     vdW  Elec       q    Type
REMARK                         _______ _______ _______ _____ _____    ______ ____
ROOT
ATOM      1  C   UNL     1       3.744   4.738  17.581  0.00  0.00    +0.000 A 
ATOM      2  C   UNL     1       3.596   6.060  17.959  0.00  0.00    +0.000 A 
ATOM      3  N   UNL     1       2.672   6.118  18.967  0.00  0.00    +0.000 N 
ATOM      4  C   UNL     1       2.250   7.333  19.628  0.00  0.00    +0.000 C 
ATOM      5  C   UNL     1       2.206   4.855  19.265  0.00  0.00    +0.000 A 
ATOM      6  C   UNL     1       1.287   4.415  20.230  0.00  0.00    +0.000 A 
ATOM      7  C   UNL     1       1.004   3.047  20.293  0.00  0.00    +0.000 A 
ATOM      8  C   UNL     1       1.604   2.151  19.413  0.00  0.00    +0.000 A 
ATOM      9  C   UNL     1       2.520   2.601  18.456  0.00  0.00    +0.000 A 
ATOM     10  C   UNL     1       2.842   3.973  18.387  0.00  0.00    +0.000 A 
ENDROOT
BRANCH   1  11
ATOM     11  C   UNL     1       4.677   4.210  16.535  0.00  0.00    +0.000 C 
BRANCH  11  12
ATOM     12  C   UNL     1       6.128   4.645  16.782  0.00  0.00    +0.000 C 
BRANCH  12  14
ATOM     13  C   UNL     1       7.220   5.364  18.799  0.00  0.00    +0.000 C 
ATOM     14  N   UNL     1       6.582   4.244  18.120  0.00  0.00    +0.000 NA
ATOM     15  H   UNL     1       5.782   3.930  18.668  0.00  0.00    +0.000 HD
ENDBRANCH  12  14
ENDBRANCH  11  12
ENDBRANCH   1  11
TORSDOF 3
ENDMDL
MODEL 5
REMARK VINA RESULT:      -5.8      1.688      2.341
REMARK  Name = 
REMARK  5 active torsions:
REMARK  status: ('A' for Active; 'I' for Inactive)
REMARK    1  A    between atoms: C_1  and  N_2
REMARK    2  A    between atoms: N_2  and  C_3
REMARK    3  A    between atoms: C_3  and  C_4
REMARK    4  A    between atoms: C_4  and  C_5
REMARK    5  A    between atoms: N_7  and  C_8
REMARK                            x       y       z     vdW  Elec       q    Type
REMARK                         _______ _______ _______ _____ _____    ______ ____
ROOT
ATOM      1  C   UNL     1       4.664   4.671  16.733  0.00  0.00    +0.000 A 
ATOM      2  C   UNL     1       4.472   6.012  17.008  0.00  0.00    +0.000 A 
ATOM      3  N   UNL     1       3.348   6.137  17.780  0.00  0.00    +0.000 N 
ATOM      4  C   UNL     1       2.823   7.390  18.273  0.00  0.00    +0.000 C 
ATOM      5  C   UNL     1       2.793   4.899  18.023  0.00  0.00    +0.000 A 
ATOM      6  C   UNL     1       1.670   4.523  18.777  0.00  0.00    +0.000 A 
ATOM      7  C   UNL     1       1.344   3.165  18.837  0.00  0.00    +0.000 A 
ATOM      8  C   UNL     1       2.099   2.216  18.155  0.00  0.00    +0.000 A 
ATOM      9  C   UNL     1       3.218   2.602  17.409  0.00  0.00    +0.000 A 
ATOM     10  C   UNL     1       3.584   3.963  17.351  0.00  0.00    +0.000 A 
ENDROOT
BRANCH   1  11
ATOM     11  C   UNL     1       5.792   4.076  15.949  0.00  0.00    +0.000 C 
BRANCH  11  12
ATOM     12  C   UNL     1       5.664   4.358  14.446  0.00  0.00    +0.000 C 
BRANCH  12  14
ATOM     13  C   UNL     1       5.887   3.352  12.275  0.00  0.00    +0.000 C 
ATOM     14  N   UNL     1       6.358   3.335  13.653  0.00  0.00    +0.000 NA
ATOM     15  H   UNL     1       7.361   3.518  13.668  0.00  0.00    +0.000 HD
ENDBRANCH  12  14
ENDBRANCH  11  12
ENDBRANCH   1  11
TORSDOF 3
ENDMDL
MODEL 6
REMARK VINA RESULT:      -5.8      1.380      1.956
REMARK  Name = 
REMARK  5 active torsions:
REMARK  status: ('A' for Active; 'I' for Inactive)
REMARK    1  A    between atoms: C_1  and  N_2
REMARK    2  A    between atoms: N_2  and  C_3
REMARK    3  A    between atoms: C_3  and  C_4
REMARK    4  A    between atoms: C_4  and  C_5
REMARK    5  A    between atoms: N_7  and  C_8
REMARK                            x       y       z     vdW  Elec       q    Type
REMARK                         _______ _______ _______ _____ _____    ______ ____
ROOT
ATOM      1  C   UNL     1       3.558   5.453  17.781  0.00  0.00    +0.000 A 
ATOM      2  C   UNL     1       3.317   6.570  18.560  0.00  0.00    +0.000 A 
ATOM      3  N   UNL     1       2.365   6.249  19.490  0.00  0.00    +0.000 N 
ATOM      4  C   UNL     1       1.851   7.159  20.490  0.00  0.00    +0.000 C 
ATOM      5  C   UNL     1       1.972   4.937  19.341  0.00  0.00    +0.000 A 
ATOM      6  C   UNL     1       1.057   4.159  20.068  0.00  0.00    +0.000 A 
ATOM      7  C   UNL     1       0.860   2.833  19.672  0.00  0.00    +0.000 A 
ATOM      8  C   UNL     1       1.537   2.305  18.576  0.00  0.00    +0.000 A 
ATOM      9  C   UNL     1       2.448   3.089  17.860  0.00  0.00    +0.000 A 
ATOM     10  C   UNL     1       2.684   4.423  18.254  0.00  0.00    +0.000 A 
ENDROOT
BRANCH   1  11
ATOM     11  C   UNL     1       4.549   5.344  16.664  0.00  0.00    +0.000 C 
BRANCH  11  12
ATOM     12  C   UNL     1       5.766   4.495  17.051  0.00  0.00    +0.000 C 
BRANCH  12  14
ATOM     13  C   UNL     1       6.136   3.935  14.743  0.00  0.00    +0.000 C 
ATOM     14  N   UNL     1       5.980   3.404  16.091  0.00  0.00    +0.000 NA
ATOM     15  H   UNL     1       6.820   2.887  16.348  0.00  0.00    +0.000 HD
ENDBRANCH  12  14
ENDBRANCH  11  12
ENDBRANCH   1  11
TORSDOF 3
ENDMDL
MODEL 7
REMARK VINA RESULT:      -5.8      1.640      2.877
REMARK  Name = 
REMARK  5 active torsions:
REMARK  status: ('A' for Active; 'I' for Inactive)
REMARK    1  A    between atoms: C_1  and  N_2
REMARK    2  A    between atoms: N_2  and  C_3
REMARK    3  A    between atoms: C_3  and  C_4
REMARK    4  A    between atoms: C_4  and  C_5
REMARK    5  A    between atoms: N_7  and  C_8
REMARK                            x       y       z     vdW  Elec       q    Type
REMARK                         _______ _______ _______ _____ _____    ______ ____
ROOT
ATOM      1  C   UNL     1       4.337   4.945  17.240  0.00  0.00    +0.000 A 
ATOM      2  C   UNL     1       4.400   3.567  17.136  0.00  0.00    +0.000 A 
ATOM      3  N   UNL     1       3.606   3.026  18.112  0.00  0.00    +0.000 N 
ATOM      4  C   UNL     1       3.411   1.609  18.323  0.00  0.00    +0.000 C 
ATOM      5  C   UNL     1       3.017   4.023  18.859  0.00  0.00    +0.000 A 
ATOM      6  C   UNL     1       2.113   3.960  19.932  0.00  0.00    +0.000 A 
ATOM      7  C   UNL     1       1.686   5.163  20.503  0.00  0.00    +0.000 A 
ATOM      8  C   UNL     1       2.157   6.385  20.032  0.00  0.00    +0.000 A 
ATOM      9  C   UNL     1       3.055   6.435  18.961  0.00  0.00    +0.000 A 
ATOM     10  C   UNL     1       3.483   5.238  18.351  0.00  0.00    +0.000 A 
ENDROOT
BRANCH   1  11
ATOM     11  C   UNL     1       5.023   5.936  16.352  0.00  0.00    +0.000 C 
BRANCH  11  12
ATOM     12  C   UNL     1       6.356   5.402  15.810  0.00  0.00    +0.000 C 
BRANCH  12  14
ATOM     13  C   UNL     1       7.201   6.975  17.420  0.00  0.00    +0.000 C 
ATOM     14  N   UNL     1       7.467   6.298  16.158  0.00  0.00    +0.000 NA
ATOM     15  H   UNL     1       8.325   5.755  16.242  0.00  0.00    +0.000 HD
ENDBRANCH  12  14
ENDBRANCH  11  12
ENDBRANCH   1  11
TORSDOF 3
ENDMDL
MODEL 8
REMARK VINA RESULT:      -5.8      1.255      1.712
REMARK  Name = 
REMARK  5 active torsions:
REMARK  status: ('A' for Active; 'I' for Inactive)
REMARK    1  A    between atoms: C_1  and  N_2
REMARK    2  A    between atoms: N_2  and  C_3
REMARK    3  A    between atoms: C_3  and  C_4
REMARK    4  A    between atoms: C_4  and  C_5
REMARK    5  A    between atoms: N_7  and  C_8
REMARK                            x       y       z     vdW  Elec       q    Type
REMARK                         _______ _______ _______ _____ _____    ______ ____
ROOT
ATOM      1  C   UNL     1       4.220   5.942  17.097  0.00  0.00    +0.000 A 
ATOM      2  C   UNL     1       3.814   7.011  17.875  0.00  0.00    +0.000 A 
ATOM      3  N   UNL     1       2.831   6.577  18.724  0.00  0.00    +0.000 N 
ATOM      4  C   UNL     1       2.157   7.408  19.696  0.00  0.00    +0.000 C 
ATOM      5  C   UNL     1       2.582   5.236  18.523  0.00  0.00    +0.000 A 
ATOM      6  C   UNL     1       1.697   4.356  19.166  0.00  0.00    +0.000 A 
ATOM      7  C   UNL     1       1.661   3.028  18.733  0.00  0.00    +0.000 A 
ATOM      8  C   UNL     1       2.466   2.595  17.684  0.00  0.00    +0.000 A 
ATOM      9  C   UNL     1       3.346   3.480  17.052  0.00  0.00    +0.000 A 
ATOM     10  C   UNL     1       3.420   4.820  17.485  0.00  0.00    +0.000 A 
ENDROOT
BRANCH   1  11
ATOM     11  C   UNL     1       5.297   5.957  16.058  0.00  0.00    +0.000 C 
BRANCH  11  12
ATOM     12  C   UNL     1       6.659   5.540  16.629  0.00  0.00    +0.000 C 
BRANCH  12  14
ATOM     13  C   UNL     1       6.583   4.323  14.558  0.00  0.00    +0.000 C 
ATOM     14  N   UNL     1       7.440   4.783  15.642  0.00  0.00    +0.000 NA
ATOM     15  H   UNL     1       8.173   5.381  15.261  0.00  0.00    +0.000 HD
ENDBRANCH  12  14
ENDBRANCH  11  12
ENDBRANCH   1  11
TORSDOF 3
ENDMDL
MODEL 9
REMARK VINA RESULT:      -5.7      1.637      3.025
REMARK  Name = 
REMARK  5 active torsions:
REMARK  status: ('A' for Active; 'I' for Inactive)
REMARK    1  A    between atoms: C_1  and  N_2
REMARK    2  A    between atoms: N_2  and  C_3
REMARK    3  A    between atoms: C_3  and  C_4
REMARK    4  A    between atoms: C_4  and  C_5
REMARK    5  A    between atoms: N_7  and  C_8
REMARK                            x       y       z     vdW  Elec       q    Type
REMARK                         _______ _______ _______ _____ _____    ______ ____
ROOT
ATOM      1  C   UNL     1       4.589   4.387  17.408  0.00  0.00    +0.000 A 
ATOM      2  C   UNL     1       4.311   3.393  18.330  0.00  0.00    +0.000 A 
ATOM      3  N   UNL     1       3.471   3.911  19.279  0.00  0.00    +0.000 N 
ATOM      4  C   UNL     1       2.953   3.173  20.410  0.00  0.00    +0.000 C 
ATOM      5  C   UNL     1       3.186   5.230  19.001  0.00  0.00    +0.000 A 
ATOM      6  C   UNL     1       2.360   6.155  19.660  0.00  0.00    +0.000 A 
ATOM      7  C   UNL     1       2.271   7.447  19.135  0.00  0.00    +0.000 A 
ATOM      8  C   UNL     1       2.994   7.811  18.003  0.00  0.00    +0.000 A 
ATOM      9  C   UNL     1       3.811   6.881  17.353  0.00  0.00    +0.000 A 
ATOM     10  C   UNL     1       3.900   5.562  17.847  0.00  0.00    +0.000 A 
ENDROOT
BRANCH   1  11
ATOM     11  C   UNL     1       5.439   4.251  16.183  0.00  0.00    +0.000 C 
BRANCH  11  12
ATOM     12  C   UNL     1       6.920   4.528  16.473  0.00  0.00    +0.000 C 
BRANCH  12  14
ATOM     13  C   UNL     1       7.466   6.708  17.327  0.00  0.00    +0.000 C 
ATOM     14  N   UNL     1       7.280   5.909  16.123  0.00  0.00    +0.000 NA
ATOM     15  H   UNL     1       8.145   5.906  15.584  0.00  0.00    +0.000 HD
ENDBRANCH  12  14
ENDBRANCH  11  12
ENDBRANCH   1  11
TORSDOF 3
ENDMDL
