MODEL 1
REMARK VINA RESULT:      -7.5      0.000      0.000
REMARK  Name = 
REMARK  3 active torsions:
REMARK  status: ('A' for Active; 'I' for Inactive)
REMARK    1  A    between atoms: C_1  and  C_2
REMARK    2  A    between atoms: C_7  and  C_8
REMARK    3  A    between atoms: C_13  and  O_14
REMARK                            x       y       z     vdW  Elec       q    Type
REMARK                         _______ _______ _______ _____ _____    ______ ____
ROOT
ATOM      1  C   UNL     1       7.094   4.602  13.134  0.00  0.00    +0.000 C 
ATOM      2  C   UNL     1       6.679   4.547  14.573  0.00  0.00    +0.000 A 
ATOM      3  C   UNL     1       7.566   4.931  15.592  0.00  0.00    +0.000 A 
ATOM      4  C   UNL     1       7.201   4.879  16.943  0.00  0.00    +0.000 A 
ATOM      5  C   UNL     1       5.912   4.430  17.221  0.00  0.00    +0.000 A 
ATOM      6  N   UNL     1       5.231   4.245  18.393  0.00  0.00    +0.000 N 
ATOM      7  C   UNL     1       3.974   3.759  18.117  0.00  0.00    +0.000 A 
ATOM      8  N   UNL     1       3.815   3.642  16.808  0.00  0.00    +0.000 NA
ATOM      9  C   UNL     1       5.003   4.044  16.247  0.00  0.00    +0.000 A 
ATOM     10  C   UNL     1       5.385   4.102  14.900  0.00  0.00    +0.000 A 
ATOM     11  H   UNL     1       5.573   4.408  19.329  0.00  0.00    +0.000 HD
ENDROOT
BRANCH   7  12
ATOM     12  C   UNL     1       3.003   3.413  19.160  0.00  0.00    +0.000 A 
ATOM     13  C   UNL     1       3.470   3.006  20.420  0.00  0.00    +0.000 A 
ATOM     14  C   UNL     1       2.579   2.704  21.454  0.00  0.00    +0.000 A 
ATOM     15  C   UNL     1       1.206   2.806  21.242  0.00  0.00    +0.000 A 
ATOM     16  C   UNL     1       0.719   3.199  19.997  0.00  0.00    +0.000 A 
ATOM     17  C   UNL     1       1.612   3.497  18.964  0.00  0.00    +0.000 A 
BRANCH  17  18
ATOM     18  O   UNL     1       1.110   3.886  17.746  0.00  0.00    +0.000 OA
ATOM     19  H   UNL     1       0.301   4.405  17.899  0.00  0.00    +0.000 HD
ENDBRANCH  17  18
ENDBRANCH   7  12
TORSDOF 2
ENDMDL
MODEL 2
REMARK VINA RESULT:      -7.5      1.281      1.696
REMARK  Name = 
REMARK  3 active torsions:
REMARK  status: ('A' for Active; 'I' for Inactive)
REMARK    1  A    between atoms: C_1  and  C_2
REMARK    2  A    between atoms: C_7  and  C_8
REMARK    3  A    between atoms: C_13  and  O_14
REMARK                            x       y       z     vdW  Elec       q    Type
REMARK                         _______ _______ _______ _____ _____    ______ ____
ROOT
ATOM      1  C   UNL     1       6.928   4.546  13.325  0.00  0.00    +0.000 C 
ATOM      2  C   UNL     1       6.558   4.583  14.777  0.00  0.00    +0.000 A 
ATOM      3  C   UNL     1       7.430   5.139  15.727  0.00  0.00    +0.000 A 
ATOM      4  C   UNL     1       7.106   5.176  17.090  0.00  0.00    +0.000 A 
ATOM      5  C   UNL     1       5.874   4.634  17.450  0.00  0.00    +0.000 A 
ATOM      6  N   UNL     1       5.245   4.492  18.656  0.00  0.00    +0.000 N 
ATOM      7  C   UNL     1       4.035   3.866  18.467  0.00  0.00    +0.000 A 
ATOM      8  N   UNL     1       3.854   3.617  17.179  0.00  0.00    +0.000 NA
ATOM      9  C   UNL     1       4.982   4.077  16.544  0.00  0.00    +0.000 A 
ATOM     10  C   UNL     1       5.322   4.049  15.185  0.00  0.00    +0.000 A 
ATOM     11  H   UNL     1       5.593   4.770  19.561  0.00  0.00    +0.000 HD
ENDROOT
BRANCH   7  12
ATOM     12  C   UNL     1       3.128   3.526  19.569  0.00  0.00    +0.000 A 
ATOM     13  C   UNL     1       1.839   4.082  19.588  0.00  0.00    +0.000 A 
ATOM     14  C   UNL     1       0.930   3.754  20.598  0.00  0.00    +0.000 A 
ATOM     15  C   UNL     1       1.298   2.864  21.605  0.00  0.00    +0.000 A 
ATOM     16  C   UNL     1       2.575   2.307  21.611  0.00  0.00    +0.000 A 
ATOM     17  C   UNL     1       3.483   2.639  20.601  0.00  0.00    +0.000 A 
BRANCH  17  18
ATOM     18  O   UNL     1       4.736   2.075  20.625  0.00  0.00    +0.000 OA
ATOM     19  H   UNL     1       4.654   1.159  20.946  0.00  0.00    +0.000 HD
ENDBRANCH  17  18
ENDBRANCH   7  12
TORSDOF 2
ENDMDL
MODEL 3
REMARK VINA RESULT:      -7.3      2.182      6.524
REMARK  Name = 
REMARK  3 active torsions:
REMARK  status: ('A' for Active; 'I' for Inactive)
REMARK    1  A    between atoms: C_1  and  C_2
REMARK    2  A    between atoms: C_7  and  C_8
REMARK    3  A    between atoms: C_13  and  O_14
REMARK                            x       y       z     vdW  Elec       q    Type
REMARK                         _______ _______ _______ _____ _____    ______ ____
ROOT
ATOM      1  C   UNL     1       1.293   3.746  20.573  0.00  0.00    +0.000 C 
ATOM      2  C   UNL     1       2.187   4.364  19.540  0.00  0.00    +0.000 A 
ATOM      3  C   UNL     1       2.424   5.748  19.529  0.00  0.00    +0.000 A 
ATOM      4  C   UNL     1       3.249   6.345  18.567  0.00  0.00    +0.000 A 
ATOM      5  C   UNL     1       3.822   5.494  17.626  0.00  0.00    +0.000 A 
ATOM      6  N   UNL     1       4.652   5.718  16.563  0.00  0.00    +0.000 N 
ATOM      7  C   UNL     1       4.916   4.524  15.931  0.00  0.00    +0.000 A 
ATOM      8  N   UNL     1       4.299   3.537  16.563  0.00  0.00    +0.000 NA
ATOM      9  C   UNL     1       3.617   4.121  17.601  0.00  0.00    +0.000 A 
ATOM     10  C   UNL     1       2.789   3.541  18.571  0.00  0.00    +0.000 A 
ATOM     11  H   UNL     1       5.015   6.606  16.249  0.00  0.00    +0.000 HD
ENDROOT
BRANCH   7  12
ATOM     12  C   UNL     1       5.744   4.422  14.725  0.00  0.00    +0.000 A 
ATOM     13  C   UNL     1       5.289   3.642  13.650  0.00  0.00    +0.000 A 
ATOM     14  C   UNL     1       6.028   3.548  12.467  0.00  0.00    +0.000 A 
ATOM     15  C   UNL     1       7.234   4.234  12.342  0.00  0.00    +0.000 A 
ATOM     16  C   UNL     1       7.710   5.006  13.400  0.00  0.00    +0.000 A 
ATOM     17  C   UNL     1       6.970   5.096  14.583  0.00  0.00    +0.000 A 
BRANCH  17  18
ATOM     18  O   UNL     1       7.456   5.866  15.611  0.00  0.00    +0.000 OA
ATOM     19  H   UNL     1       8.284   6.286  15.316  0.00  0.00    +0.000 HD
ENDBRANCH  17  18
ENDBRANCH   7  12
TORSDOF 2
ENDMDL
MODEL 4
REMARK VINA RESULT:      -7.3      0.988      1.009
REMARK  Name = 
REMARK  3 active torsions:
REMARK  status: ('A' for Active; 'I' for Inactive)
REMARK    1  A    between atoms: C_1  and  C_2
REMARK    2  A    between atoms: C_7  and  C_8
REMARK    3  A    between atoms: C_13  and  O_14
REMARK                            x       y       z     vdW  Elec       q    Type
REMARK                         _______ _______ _______ _____ _____    ______ ____
ROOT
ATOM      1  C   UNL     1       6.951   4.447  12.893  0.00  0.00    +0.000 C 
ATOM      2  C   UNL     1       6.591   4.505  14.347  0.00  0.00    +0.000 A 
ATOM      3  C   UNL     1       7.509   4.981  15.298  0.00  0.00    +0.000 A 
ATOM      4  C   UNL     1       7.194   5.036  16.661  0.00  0.00    +0.000 A 
ATOM      5  C   UNL     1       5.923   4.597  17.023  0.00  0.00    +0.000 A 
ATOM      6  N   UNL     1       5.288   4.500  18.231  0.00  0.00    +0.000 N 
ATOM      7  C   UNL     1       4.029   3.979  18.043  0.00  0.00    +0.000 A 
ATOM      8  N   UNL     1       3.824   3.753  16.755  0.00  0.00    +0.000 NA
ATOM      9  C   UNL     1       4.984   4.122  16.118  0.00  0.00    +0.000 A 
ATOM     10  C   UNL     1       5.316   4.074  14.757  0.00  0.00    +0.000 A 
ATOM     11  H   UNL     1       5.662   4.743  19.137  0.00  0.00    +0.000 HD
ENDROOT
BRANCH   7  12
ATOM     12  C   UNL     1       3.102   3.708  19.147  0.00  0.00    +0.000 A 
ATOM     13  C   UNL     1       2.969   4.655  20.175  0.00  0.00    +0.000 A 
ATOM     14  C   UNL     1       2.068   4.456  21.225  0.00  0.00    +0.000 A 
ATOM     15  C   UNL     1       1.286   3.304  21.262  0.00  0.00    +0.000 A 
ATOM     16  C   UNL     1       1.407   2.346  20.257  0.00  0.00    +0.000 A 
ATOM     17  C   UNL     1       2.311   2.547  19.210  0.00  0.00    +0.000 A 
BRANCH  17  18
ATOM     18  O   UNL     1       2.411   1.590  18.229  0.00  0.00    +0.000 OA
ATOM     19  H   UNL     1       3.354   1.407  18.074  0.00  0.00    +0.000 HD
ENDBRANCH  17  18
ENDBRANCH   7  12
TORSDOF 2
ENDMDL
MODEL 5
REMARK VINA RESULT:      -7.2      2.266      6.568
REMARK  Name = 
REMARK  3 active torsions:
REMARK  status: ('A' for Active; 'I' for Inactive)
REMARK    1  A    between atoms: C_1  and  C_2
REMARK    2  A    between atoms: C_7  and  C_8
REMARK    3  A    between atoms: C_13  and  O_14
REMARK                            x       y       z     vdW  Elec       q    Type
REMARK                         _______ _______ _______ _____ _____    ______ ____
ROOT
ATOM      1  C   UNL     1       1.930   5.624  20.697  0.00  0.00    +0.000 C 
ATOM      2  C   UNL     1       2.732   4.903  19.655  0.00  0.00    +0.000 A 
ATOM      3  C   UNL     1       3.015   3.534  19.784  0.00  0.00    +0.000 A 
ATOM      4  C   UNL     1       3.769   2.845  18.826  0.00  0.00    +0.000 A 
ATOM      5  C   UNL     1       4.220   3.589  17.738  0.00  0.00    +0.000 A 
ATOM      6  N   UNL     1       4.970   3.261  16.643  0.00  0.00    +0.000 N 
ATOM      7  C   UNL     1       5.154   4.381  15.865  0.00  0.00    +0.000 A 
ATOM      8  N   UNL     1       4.533   5.415  16.413  0.00  0.00    +0.000 NA
ATOM      9  C   UNL     1       3.961   4.942  17.569  0.00  0.00    +0.000 A 
ATOM     10  C   UNL     1       3.205   5.616  18.538  0.00  0.00    +0.000 A 
ATOM     11  H   UNL     1       5.361   2.358  16.420  0.00  0.00    +0.000 HD
ENDROOT
BRANCH   7  12
ATOM     12  C   UNL     1       5.952   4.380  14.635  0.00  0.00    +0.000 A 
ATOM     13  C   UNL     1       5.536   3.587  13.553  0.00  0.00    +0.000 A 
ATOM     14  C   UNL     1       6.245   3.586  12.348  0.00  0.00    +0.000 A 
ATOM     15  C   UNL     1       7.381   4.380  12.208  0.00  0.00    +0.000 A 
ATOM     16  C   UNL     1       7.817   5.168  13.271  0.00  0.00    +0.000 A 
ATOM     17  C   UNL     1       7.108   5.165  14.475  0.00  0.00    +0.000 A 
BRANCH  17  18
ATOM     18  O   UNL     1       7.554   5.953  15.509  0.00  0.00    +0.000 OA
ATOM     19  H   UNL     1       7.608   5.404  16.311  0.00  0.00    +0.000 HD
ENDBRANCH  17  18
ENDBRANCH   7  12
TORSDOF 2
ENDMDL
MODEL 6
REMARK VINA RESULT:      -7.1      1.216      1.351
REMARK  Name = 
REMARK  3 active torsions:
REMARK  status: ('A' for Active; 'I' for Inactive)
REMARK    1  A    between atoms: C_1  and  C_2
REMARK    2  A    between atoms: C_7  and  C_8
REMARK    3  A    between atoms: C_13  and  O_14
REMARK                            x       y       z     vdW  Elec       q    Type
REMARK                         _______ _______ _______ _____ _____    ______ ____
ROOT
ATOM      1  C   UNL     1       6.908   4.386  12.862  0.00  0.00    +0.000 C 
ATOM      2  C   UNL     1       6.549   4.485  14.314  0.00  0.00    +0.000 A 
ATOM      3  C   UNL     1       7.463   5.002  15.247  0.00  0.00    +0.000 A 
ATOM      4  C   UNL     1       7.149   5.095  16.609  0.00  0.00    +0.000 A 
ATOM      5  C   UNL     1       5.884   4.651  16.987  0.00  0.00    +0.000 A 
ATOM      6  N   UNL     1       5.253   4.584  18.198  0.00  0.00    +0.000 N 
ATOM      7  C   UNL     1       4.000   4.041  18.029  0.00  0.00    +0.000 A 
ATOM      8  N   UNL     1       3.796   3.773  16.748  0.00  0.00    +0.000 NA
ATOM      9  C   UNL     1       4.950   4.137  16.099  0.00  0.00    +0.000 A 
ATOM     10  C   UNL     1       5.280   4.051  14.740  0.00  0.00    +0.000 A 
ATOM     11  H   UNL     1       5.624   4.860  19.095  0.00  0.00    +0.000 HD
ENDROOT
BRANCH   7  12
ATOM     12  C   UNL     1       3.077   3.793  19.142  0.00  0.00    +0.000 A 
ATOM     13  C   UNL     1       2.429   2.551  19.227  0.00  0.00    +0.000 A 
ATOM     14  C   UNL     1       1.572   2.259  20.292  0.00  0.00    +0.000 A 
ATOM     15  C   UNL     1       1.350   3.207  21.289  0.00  0.00    +0.000 A 
ATOM     16  C   UNL     1       1.976   4.450  21.220  0.00  0.00    +0.000 A 
ATOM     17  C   UNL     1       2.830   4.740  20.153  0.00  0.00    +0.000 A 
BRANCH  17  18
ATOM     18  O   UNL     1       3.439   5.971  20.107  0.00  0.00    +0.000 OA
ATOM     19  H   UNL     1       3.068   6.523  20.818  0.00  0.00    +0.000 HD
ENDBRANCH  17  18
ENDBRANCH   7  12
TORSDOF 2
ENDMDL
MODEL 7
REMARK VINA RESULT:      -7.1      1.609      2.006
REMARK  Name = 
REMARK  3 active torsions:
REMARK  status: ('A' for Active; 'I' for Inactive)
REMARK    1  A    between atoms: C_1  and  C_2
REMARK    2  A    between atoms: C_7  and  C_8
REMARK    3  A    between atoms: C_13  and  O_14
REMARK                            x       y       z     vdW  Elec       q    Type
REMARK                         _______ _______ _______ _____ _____    ______ ____
ROOT
ATOM      1  C   UNL     1       7.167   4.719  13.522  0.00  0.00    +0.000 C 
ATOM      2  C   UNL     1       6.258   4.989  14.682  0.00  0.00    +0.000 A 
ATOM      3  C   UNL     1       5.845   6.296  14.985  0.00  0.00    +0.000 A 
ATOM      4  C   UNL     1       5.003   6.569  16.070  0.00  0.00    +0.000 A 
ATOM      5  C   UNL     1       4.595   5.475  16.830  0.00  0.00    +0.000 A 
ATOM      6  N   UNL     1       3.800   5.366  17.937  0.00  0.00    +0.000 N 
ATOM      7  C   UNL     1       3.726   4.045  18.315  0.00  0.00    +0.000 A 
ATOM      8  N   UNL     1       4.430   3.298  17.478  0.00  0.00    +0.000 NA
ATOM      9  C   UNL     1       4.976   4.167  16.565  0.00  0.00    +0.000 A 
ATOM     10  C   UNL     1       5.819   3.912  15.476  0.00  0.00    +0.000 A 
ATOM     11  H   UNL     1       3.343   6.114  18.437  0.00  0.00    +0.000 HD
ENDROOT
BRANCH   7  12
ATOM     12  C   UNL     1       2.983   3.589  19.495  0.00  0.00    +0.000 A 
ATOM     13  C   UNL     1       1.673   4.051  19.696  0.00  0.00    +0.000 A 
ATOM     14  C   UNL     1       0.915   3.612  20.787  0.00  0.00    +0.000 A 
ATOM     15  C   UNL     1       1.459   2.704  21.692  0.00  0.00    +0.000 A 
ATOM     16  C   UNL     1       2.761   2.240  21.518  0.00  0.00    +0.000 A 
ATOM     17  C   UNL     1       3.517   2.682  20.429  0.00  0.00    +0.000 A 
BRANCH  17  18
ATOM     18  O   UNL     1       4.797   2.208  20.275  0.00  0.00    +0.000 OA
ATOM     19  H   UNL     1       5.303   2.856  19.752  0.00  0.00    +0.000 HD
ENDBRANCH  17  18
ENDBRANCH   7  12
TORSDOF 2
ENDMDL
MODEL 8
REMARK VINA RESULT:      -7.0      2.078      6.512
REMARK  Name = 
REMARK  3 active torsions:
REMARK  status: ('A' for Active; 'I' for Inactive)
REMARK    1  A    between atoms: C_1  and  C_2
REMARK    2  A    between atoms: C_7  and  C_8
REMARK    3  A    between atoms: C_13  and  O_14
REMARK                            x       y       z     vdW  Elec       q    Type
REMARK                         _______ _______ _______ _____ _____    ______ ____
ROOT
ATOM      1  C   UNL     1       1.050   3.645  20.005  0.00  0.00    +0.000 C 
ATOM      2  C   UNL     1       2.368   3.702  19.294  0.00  0.00    +0.000 A 
ATOM      3  C   UNL     1       3.575   3.639  20.009  0.00  0.00    +0.000 A 
ATOM      4  C   UNL     1       4.817   3.699  19.364  0.00  0.00    +0.000 A 
ATOM      5  C   UNL     1       4.790   3.821  17.977  0.00  0.00    +0.000 A 
ATOM      6  N   UNL     1       5.782   3.915  17.039  0.00  0.00    +0.000 N 
ATOM      7  C   UNL     1       5.217   4.038  15.791  0.00  0.00    +0.000 A 
ATOM      8  N   UNL     1       3.897   4.009  15.890  0.00  0.00    +0.000 NA
ATOM      9  C   UNL     1       3.622   3.884  17.230  0.00  0.00    +0.000 A 
ATOM     10  C   UNL     1       2.389   3.822  17.892  0.00  0.00    +0.000 A 
ATOM     11  H   UNL     1       6.777   3.918  17.203  0.00  0.00    +0.000 HD
ENDROOT
BRANCH   7  12
ATOM     12  C   UNL     1       6.008   4.202  14.567  0.00  0.00    +0.000 A 
ATOM     13  C   UNL     1       5.625   3.506  13.409  0.00  0.00    +0.000 A 
ATOM     14  C   UNL     1       6.327   3.663  12.210  0.00  0.00    +0.000 A 
ATOM     15  C   UNL     1       7.424   4.519  12.152  0.00  0.00    +0.000 A 
ATOM     16  C   UNL     1       7.828   5.212  13.292  0.00  0.00    +0.000 A 
ATOM     17  C   UNL     1       7.126   5.052  14.489  0.00  0.00    +0.000 A 
BRANCH  17  18
ATOM     18  O   UNL     1       7.540   5.748  15.599  0.00  0.00    +0.000 OA
ATOM     19  H   UNL     1       6.762   5.934  16.153  0.00  0.00    +0.000 HD
ENDBRANCH  17  18
ENDBRANCH   7  12
TORSDOF 2
ENDMDL
MODEL 9
REMARK VINA RESULT:      -6.9      4.027      4.383
REMARK  Name = 
REMARK  3 active torsions:
REMARK  status: ('A' for Active; 'I' for Inactive)
REMARK    1  A    between atoms: C_1  and  C_2
REMARK    2  A    between atoms: C_7  and  C_8
REMARK    3  A    between atoms: C_13  and  O_14
REMARK                            x       y       z     vdW  Elec       q    Type
REMARK                         _______ _______ _______ _____ _____    ______ ____
ROOT
ATOM      1  C   UNL     1       6.921   4.780  14.753  0.00  0.00    +0.000 C 
ATOM      2  C   UNL     1       5.793   4.961  15.724  0.00  0.00    +0.000 A 
ATOM      3  C   UNL     1       5.063   3.857  16.193  0.00  0.00    +0.000 A 
ATOM      4  C   UNL     1       4.001   4.006  17.093  0.00  0.00    +0.000 A 
ATOM      5  C   UNL     1       3.710   5.306  17.500  0.00  0.00    +0.000 A 
ATOM      6  N   UNL     1       2.762   5.820  18.341  0.00  0.00    +0.000 N 
ATOM      7  C   UNL     1       2.890   7.189  18.390  0.00  0.00    +0.000 A 
ATOM      8  N   UNL     1       3.900   7.573  17.623  0.00  0.00    +0.000 NA
ATOM      9  C   UNL     1       4.407   6.425  17.065  0.00  0.00    +0.000 A 
ATOM     10  C   UNL     1       5.467   6.257  16.164  0.00  0.00    +0.000 A 
ATOM     11  H   UNL     1       2.052   5.309  18.845  0.00  0.00    +0.000 HD
ENDROOT
BRANCH   7  12
ATOM     12  C   UNL     1       1.997   8.050  19.171  0.00  0.00    +0.000 A 
ATOM     13  C   UNL     1       1.692   7.695  20.495  0.00  0.00    +0.000 A 
ATOM     14  C   UNL     1       0.876   8.507  21.287  0.00  0.00    +0.000 A 
ATOM     15  C   UNL     1       0.352   9.689  20.767  0.00  0.00    +0.000 A 
ATOM     16  C   UNL     1       0.634  10.056  19.453  0.00  0.00    +0.000 A 
ATOM     17  C   UNL     1       1.448   9.241  18.662  0.00  0.00    +0.000 A 
BRANCH  17  18
ATOM     18  O   UNL     1       1.715   9.626  17.370  0.00  0.00    +0.000 OA
ATOM     19  H   UNL     1       2.588  10.056  17.352  0.00  0.00    +0.000 HD
ENDBRANCH  17  18
ENDBRANCH   7  12
TORSDOF 2
ENDMDL
