MODEL 1
REMARK VINA RESULT:      -8.2      0.000      0.000
REMARK  Name = 
REMARK  7 active torsions:
REMARK  status: ('A' for Active; 'I' for Inactive)
REMARK    1  A    between atoms: C_1  and  C_2
REMARK    2  A    between atoms: C_2  and  C_3
REMARK    3  A    between atoms: C_2  and  C_4
REMARK    4  A    between atoms: C_6  and  C_7
REMARK    5  A    between atoms: C_11  and  C_12
REMARK    6  A    between atoms: C_18  and  O_19
REMARK    7  A    between atoms: C_21  and  O_22
REMARK                            x       y       z     vdW  Elec       q    Type
REMARK                         _______ _______ _______ _____ _____    ______ ____
ROOT
ATOM      1  C   UNL     1       6.452   5.438  17.680  0.00  0.00    +0.000 A 
ATOM      2  C   UNL     1       5.373   5.525  18.581  0.00  0.00    +0.000 A 
ATOM      3  C   UNL     1       4.203   4.765  18.417  0.00  0.00    +0.000 A 
ATOM      4  C   UNL     1       4.063   4.020  17.239  0.00  0.00    +0.000 A 
ATOM      5  C   UNL     1       5.087   3.978  16.293  0.00  0.00    +0.000 A 
ATOM      6  C   UNL     1       6.277   4.668  16.527  0.00  0.00    +0.000 A 
ENDROOT
BRANCH   3   7
ATOM      7  C   UNL     1       3.201   4.700  19.468  0.00  0.00    +0.000 A 
ATOM      8  N   UNL     1       3.039   3.575  20.246  0.00  0.00    +0.000 NA
ATOM      9  N   UNL     1       2.107   3.820  21.145  0.00  0.00    +0.000 NA
ATOM     10  N   UNL     1       1.687   5.078  20.949  0.00  0.00    +0.000 N 
ATOM     11  C   UNL     1       2.341   5.700  19.913  0.00  0.00    +0.000 A 
ATOM     12  H   UNL     1       0.983   5.458  21.571  0.00  0.00    +0.000 HD
BRANCH  11  13
ATOM     13  C   UNL     1       2.084   7.089  19.530  0.00  0.00    +0.000 A 
ATOM     14  C   UNL     1       2.323   7.536  18.222  0.00  0.00    +0.000 A 
ATOM     15  C   UNL     1       1.931   8.814  17.816  0.00  0.00    +0.000 A 
ATOM     16  C   UNL     1       1.354   9.688  18.731  0.00  0.00    +0.000 A 
ATOM     17  C   UNL     1       1.176   9.287  20.053  0.00  0.00    +0.000 A 
ATOM     18  C   UNL     1       1.531   7.992  20.449  0.00  0.00    +0.000 A 
ENDBRANCH  11  13
ENDBRANCH   3   7
BRANCH   1  20
ATOM     19  C   UNL     1       7.714   7.651  17.703  0.00  0.00    +0.000 C 
ATOM     20  C   UNL     1       7.747   6.155  18.037  0.00  0.00    +0.000 C 
ATOM     21  C   UNL     1       8.150   5.909  19.489  0.00  0.00    +0.000 C 
ENDBRANCH   1  20
BRANCH   4  22
ATOM     22  O   UNL     1       2.947   3.279  16.945  0.00  0.00    +0.000 OA
ATOM     23  H   UNL     1       2.659   3.509  16.039  0.00  0.00    +0.000 HD
ENDBRANCH   4  22
BRANCH   6  24
ATOM     24  O   UNL     1       7.287   4.591  15.610  0.00  0.00    +0.000 OA
ATOM     25  H   UNL     1       7.201   3.759  15.120  0.00  0.00    +0.000 HD
ENDBRANCH   6  24
TORSDOF 5
ENDMDL
MODEL 2
REMARK VINA RESULT:      -7.8      0.219      1.049
REMARK  Name = 
REMARK  7 active torsions:
REMARK  status: ('A' for Active; 'I' for Inactive)
REMARK    1  A    between atoms: C_1  and  C_2
REMARK    2  A    between atoms: C_2  and  C_3
REMARK    3  A    between atoms: C_2  and  C_4
REMARK    4  A    between atoms: C_6  and  C_7
REMARK    5  A    between atoms: C_11  and  C_12
REMARK    6  A    between atoms: C_18  and  O_19
REMARK    7  A    between atoms: C_21  and  O_22
REMARK                            x       y       z     vdW  Elec       q    Type
REMARK                         _______ _______ _______ _____ _____    ______ ____
ROOT
ATOM      1  C   UNL     1       6.499   5.408  17.762  0.00  0.00    +0.000 A 
ATOM      2  C   UNL     1       5.428   5.432  18.675  0.00  0.00    +0.000 A 
ATOM      3  C   UNL     1       4.279   4.644  18.496  0.00  0.00    +0.000 A 
ATOM      4  C   UNL     1       4.149   3.935  17.294  0.00  0.00    +0.000 A 
ATOM      5  C   UNL     1       5.164   3.956  16.338  0.00  0.00    +0.000 A 
ATOM      6  C   UNL     1       6.335   4.673  16.584  0.00  0.00    +0.000 A 
ENDROOT
BRANCH   3   7
ATOM      7  C   UNL     1       3.290   4.513  19.553  0.00  0.00    +0.000 A 
ATOM      8  N   UNL     1       3.218   3.386  20.343  0.00  0.00    +0.000 NA
ATOM      9  N   UNL     1       2.274   3.569  21.244  0.00  0.00    +0.000 NA
ATOM     10  N   UNL     1       1.759   4.790  21.040  0.00  0.00    +0.000 N 
ATOM     11  C   UNL     1       2.359   5.449  19.994  0.00  0.00    +0.000 A 
ATOM     12  H   UNL     1       1.032   5.121  21.661  0.00  0.00    +0.000 HD
BRANCH  11  13
ATOM     13  C   UNL     1       1.995   6.810  19.599  0.00  0.00    +0.000 A 
ATOM     14  C   UNL     1       1.467   7.718  20.529  0.00  0.00    +0.000 A 
ATOM     15  C   UNL     1       1.269   9.059  20.192  0.00  0.00    +0.000 A 
ATOM     16  C   UNL     1       1.530   9.497  18.898  0.00  0.00    +0.000 A 
ATOM     17  C   UNL     1       1.985   8.593  17.941  0.00  0.00    +0.000 A 
ATOM     18  C   UNL     1       2.224   7.259  18.290  0.00  0.00    +0.000 A 
ENDBRANCH  11  13
ENDBRANCH   3   7
BRANCH   1  20
ATOM     19  C   UNL     1       7.725   7.641  17.777  0.00  0.00    +0.000 C 
ATOM     20  C   UNL     1       7.776   6.150  18.131  0.00  0.00    +0.000 C 
ATOM     21  C   UNL     1       8.159   5.928  19.593  0.00  0.00    +0.000 C 
ENDBRANCH   1  20
BRANCH   4  22
ATOM     22  O   UNL     1       3.052   3.172  16.985  0.00  0.00    +0.000 OA
ATOM     23  H   UNL     1       3.309   2.230  17.046  0.00  0.00    +0.000 HD
ENDBRANCH   4  22
BRANCH   6  24
ATOM     24  O   UNL     1       7.338   4.657  15.656  0.00  0.00    +0.000 OA
ATOM     25  H   UNL     1       6.950   4.505  14.780  0.00  0.00    +0.000 HD
ENDBRANCH   6  24
TORSDOF 5
ENDMDL
MODEL 3
REMARK VINA RESULT:      -7.5      2.468      5.863
REMARK  Name = 
REMARK  7 active torsions:
REMARK  status: ('A' for Active; 'I' for Inactive)
REMARK    1  A    between atoms: C_1  and  C_2
REMARK    2  A    between atoms: C_2  and  C_3
REMARK    3  A    between atoms: C_2  and  C_4
REMARK    4  A    between atoms: C_6  and  C_7
REMARK    5  A    between atoms: C_11  and  C_12
REMARK    6  A    between atoms: C_18  and  O_19
REMARK    7  A    between atoms: C_21  and  O_22
REMARK                            x       y       z     vdW  Elec       q    Type
REMARK                         _______ _______ _______ _____ _____    ______ ____
ROOT
ATOM      1  C   UNL     1       1.509   8.830  18.880  0.00  0.00    +0.000 A 
ATOM      2  C   UNL     1       2.119   7.740  18.230  0.00  0.00    +0.000 A 
ATOM      3  C   UNL     1       2.376   6.528  18.892  0.00  0.00    +0.000 A 
ATOM      4  C   UNL     1       2.151   6.473  20.274  0.00  0.00    +0.000 A 
ATOM      5  C   UNL     1       1.617   7.566  20.956  0.00  0.00    +0.000 A 
ATOM      6  C   UNL     1       1.284   8.726  20.256  0.00  0.00    +0.000 A 
ENDROOT
BRANCH   3   7
ATOM      7  C   UNL     1       2.798   5.348  18.154  0.00  0.00    +0.000 A 
ATOM      8  N   UNL     1       1.890   4.422  17.689  0.00  0.00    +0.000 NA
ATOM      9  N   UNL     1       2.545   3.499  17.015  0.00  0.00    +0.000 NA
ATOM     10  N   UNL     1       3.844   3.833  17.042  0.00  0.00    +0.000 N 
ATOM     11  C   UNL     1       4.077   4.996  17.736  0.00  0.00    +0.000 A 
ATOM     12  H   UNL     1       4.506   3.249  16.547  0.00  0.00    +0.000 HD
BRANCH  11  13
ATOM     13  C   UNL     1       5.410   5.584  17.874  0.00  0.00    +0.000 A 
ATOM     14  C   UNL     1       5.816   6.657  17.067  0.00  0.00    +0.000 A 
ATOM     15  C   UNL     1       7.022   7.320  17.304  0.00  0.00    +0.000 A 
ATOM     16  C   UNL     1       7.874   6.876  18.310  0.00  0.00    +0.000 A 
ATOM     17  C   UNL     1       7.521   5.766  19.075  0.00  0.00    +0.000 A 
ATOM     18  C   UNL     1       6.293   5.128  18.864  0.00  0.00    +0.000 A 
ENDBRANCH  11  13
ENDBRANCH   3   7
BRANCH   1  20
ATOM     19  C   UNL     1      -0.414  10.263  18.019  0.00  0.00    +0.000 C 
ATOM     20  C   UNL     1       1.101  10.032  18.039  0.00  0.00    +0.000 C 
ATOM     21  C   UNL     1       1.860  11.293  18.447  0.00  0.00    +0.000 C 
ENDBRANCH   1  20
BRANCH   4  22
ATOM     22  O   UNL     1       2.411   5.362  21.036  0.00  0.00    +0.000 OA
ATOM     23  H   UNL     1       2.301   4.572  20.469  0.00  0.00    +0.000 HD
ENDBRANCH   4  22
BRANCH   6  24
ATOM     24  O   UNL     1       0.729   9.778  20.928  0.00  0.00    +0.000 OA
ATOM     25  H   UNL     1       1.291   9.994  21.688  0.00  0.00    +0.000 HD
ENDBRANCH   6  24
TORSDOF 5
ENDMDL
MODEL 4
REMARK VINA RESULT:      -7.4      2.628      5.849
REMARK  Name = 
REMARK  7 active torsions:
REMARK  status: ('A' for Active; 'I' for Inactive)
REMARK    1  A    between atoms: C_1  and  C_2
REMARK    2  A    between atoms: C_2  and  C_3
REMARK    3  A    between atoms: C_2  and  C_4
REMARK    4  A    between atoms: C_6  and  C_7
REMARK    5  A    between atoms: C_11  and  C_12
REMARK    6  A    between atoms: C_18  and  O_19
REMARK    7  A    between atoms: C_21  and  O_22
REMARK                            x       y       z     vdW  Elec       q    Type
REMARK                         _______ _______ _______ _____ _____    ______ ____
ROOT
ATOM      1  C   UNL     1       2.637   5.778  19.512  0.00  0.00    +0.000 A 
ATOM      2  C   UNL     1       4.036   5.916  19.433  0.00  0.00    +0.000 A 
ATOM      3  C   UNL     1       4.894   4.804  19.415  0.00  0.00    +0.000 A 
ATOM      4  C   UNL     1       4.334   3.537  19.635  0.00  0.00    +0.000 A 
ATOM      5  C   UNL     1       2.957   3.382  19.792  0.00  0.00    +0.000 A 
ATOM      6  C   UNL     1       2.119   4.495  19.712  0.00  0.00    +0.000 A 
ENDROOT
BRANCH   3   7
ATOM      7  C   UNL     1       6.307   4.955  19.111  0.00  0.00    +0.000 A 
ATOM      8  N   UNL     1       7.239   5.190  20.098  0.00  0.00    +0.000 NA
ATOM      9  N   UNL     1       8.434   5.226  19.542  0.00  0.00    +0.000 NA
ATOM     10  N   UNL     1       8.269   5.009  18.229  0.00  0.00    +0.000 N 
ATOM     11  C   UNL     1       6.952   4.819  17.885  0.00  0.00    +0.000 A 
ATOM     12  H   UNL     1       9.089   4.971  17.636  0.00  0.00    +0.000 HD
BRANCH  11  13
ATOM     13  C   UNL     1       6.522   4.530  16.517  0.00  0.00    +0.000 A 
ATOM     14  C   UNL     1       5.253   3.993  16.254  0.00  0.00    +0.000 A 
ATOM     15  C   UNL     1       4.783   3.865  14.945  0.00  0.00    +0.000 A 
ATOM     16  C   UNL     1       5.603   4.208  13.875  0.00  0.00    +0.000 A 
ATOM     17  C   UNL     1       6.893   4.674  14.115  0.00  0.00    +0.000 A 
ATOM     18  C   UNL     1       7.348   4.841  15.427  0.00  0.00    +0.000 A 
ENDBRANCH  11  13
ENDBRANCH   3   7
BRANCH   1  20
ATOM     19  C   UNL     1       1.608   7.818  20.639  0.00  0.00    +0.000 C 
ATOM     20  C   UNL     1       1.780   7.024  19.339  0.00  0.00    +0.000 C 
ATOM     21  C   UNL     1       2.286   7.907  18.200  0.00  0.00    +0.000 C 
ENDBRANCH   1  20
BRANCH   4  22
ATOM     22  O   UNL     1       5.076   2.386  19.688  0.00  0.00    +0.000 OA
ATOM     23  H   UNL     1       5.280   2.112  18.771  0.00  0.00    +0.000 HD
ENDBRANCH   4  22
BRANCH   6  24
ATOM     24  O   UNL     1       0.768   4.326  19.832  0.00  0.00    +0.000 OA
ATOM     25  H   UNL     1       0.321   5.050  19.368  0.00  0.00    +0.000 HD
ENDBRANCH   6  24
TORSDOF 5
ENDMDL
MODEL 5
REMARK VINA RESULT:      -7.4      2.605      5.824
REMARK  Name = 
REMARK  7 active torsions:
REMARK  status: ('A' for Active; 'I' for Inactive)
REMARK    1  A    between atoms: C_1  and  C_2
REMARK    2  A    between atoms: C_2  and  C_3
REMARK    3  A    between atoms: C_2  and  C_4
REMARK    4  A    between atoms: C_6  and  C_7
REMARK    5  A    between atoms: C_11  and  C_12
REMARK    6  A    between atoms: C_18  and  O_19
REMARK    7  A    between atoms: C_21  and  O_22
REMARK                            x       y       z     vdW  Elec       q    Type
REMARK                         _______ _______ _______ _____ _____    ______ ____
ROOT
ATOM      1  C   UNL     1       2.604   5.785  19.516  0.00  0.00    +0.000 A 
ATOM      2  C   UNL     1       4.003   5.932  19.444  0.00  0.00    +0.000 A 
ATOM      3  C   UNL     1       4.866   4.825  19.401  0.00  0.00    +0.000 A 
ATOM      4  C   UNL     1       4.312   3.550  19.588  0.00  0.00    +0.000 A 
ATOM      5  C   UNL     1       2.936   3.385  19.738  0.00  0.00    +0.000 A 
ATOM      6  C   UNL     1       2.093   4.494  19.683  0.00  0.00    +0.000 A 
ENDROOT
BRANCH   3   7
ATOM      7  C   UNL     1       6.280   4.990  19.103  0.00  0.00    +0.000 A 
ATOM      8  N   UNL     1       7.212   5.181  20.100  0.00  0.00    +0.000 NA
ATOM      9  N   UNL     1       8.406   5.242  19.546  0.00  0.00    +0.000 NA
ATOM     10  N   UNL     1       8.241   5.085  18.225  0.00  0.00    +0.000 N 
ATOM     11  C   UNL     1       6.925   4.911  17.873  0.00  0.00    +0.000 A 
ATOM     12  H   UNL     1       9.061   5.075  17.631  0.00  0.00    +0.000 HD
BRANCH  11  13
ATOM     13  C   UNL     1       6.495   4.683  16.493  0.00  0.00    +0.000 A 
ATOM     14  C   UNL     1       7.281   5.104  15.410  0.00  0.00    +0.000 A 
ATOM     15  C   UNL     1       6.950   4.749  14.100  0.00  0.00    +0.000 A 
ATOM     16  C   UNL     1       5.790   4.024  13.848  0.00  0.00    +0.000 A 
ATOM     17  C   UNL     1       4.959   3.660  14.904  0.00  0.00    +0.000 A 
ATOM     18  C   UNL     1       5.312   3.980  16.220  0.00  0.00    +0.000 A 
ENDBRANCH  11  13
ENDBRANCH   3   7
BRANCH   1  20
ATOM     19  C   UNL     1       1.565   7.793  20.690  0.00  0.00    +0.000 C 
ATOM     20  C   UNL     1       1.742   7.030  19.371  0.00  0.00    +0.000 C 
ATOM     21  C   UNL     1       2.245   7.942  18.254  0.00  0.00    +0.000 C 
ENDBRANCH   1  20
BRANCH   4  22
ATOM     22  O   UNL     1       5.060   2.401  19.615  0.00  0.00    +0.000 OA
ATOM     23  H   UNL     1       5.207   2.112  18.692  0.00  0.00    +0.000 HD
ENDBRANCH   4  22
BRANCH   6  24
ATOM     24  O   UNL     1       0.743   4.316  19.796  0.00  0.00    +0.000 OA
ATOM     25  H   UNL     1       0.566   3.382  19.988  0.00  0.00    +0.000 HD
ENDBRANCH   6  24
TORSDOF 5
ENDMDL
MODEL 6
REMARK VINA RESULT:      -7.3      2.499      6.008
REMARK  Name = 
REMARK  7 active torsions:
REMARK  status: ('A' for Active; 'I' for Inactive)
REMARK    1  A    between atoms: C_1  and  C_2
REMARK    2  A    between atoms: C_2  and  C_3
REMARK    3  A    between atoms: C_2  and  C_4
REMARK    4  A    between atoms: C_6  and  C_7
REMARK    5  A    between atoms: C_11  and  C_12
REMARK    6  A    between atoms: C_18  and  O_19
REMARK    7  A    between atoms: C_21  and  O_22
REMARK                            x       y       z     vdW  Elec       q    Type
REMARK                         _______ _______ _______ _____ _____    ______ ____
ROOT
ATOM      1  C   UNL     1       1.388   8.967  18.983  0.00  0.00    +0.000 A 
ATOM      2  C   UNL     1       2.046   7.899  18.343  0.00  0.00    +0.000 A 
ATOM      3  C   UNL     1       2.324   6.692  19.005  0.00  0.00    +0.000 A 
ATOM      4  C   UNL     1       2.067   6.622  20.381  0.00  0.00    +0.000 A 
ATOM      5  C   UNL     1       1.485   7.696  21.055  0.00  0.00    +0.000 A 
ATOM      6  C   UNL     1       1.134   8.848  20.353  0.00  0.00    +0.000 A 
ENDROOT
BRANCH   3   7
ATOM      7  C   UNL     1       2.798   5.529  18.272  0.00  0.00    +0.000 A 
ATOM      8  N   UNL     1       1.926   4.599  17.748  0.00  0.00    +0.000 NA
ATOM      9  N   UNL     1       2.628   3.694  17.094  0.00  0.00    +0.000 NA
ATOM     10  N   UNL     1       3.918   4.044  17.191  0.00  0.00    +0.000 N 
ATOM     11  C   UNL     1       4.101   5.199  17.913  0.00  0.00    +0.000 A 
ATOM     12  H   UNL     1       4.613   3.477  16.721  0.00  0.00    +0.000 HD
BRANCH  11  13
ATOM     13  C   UNL     1       5.416   5.803  18.127  0.00  0.00    +0.000 A 
ATOM     14  C   UNL     1       6.269   5.344  19.142  0.00  0.00    +0.000 A 
ATOM     15  C   UNL     1       7.581   5.810  19.245  0.00  0.00    +0.000 A 
ATOM     16  C   UNL     1       8.040   6.794  18.376  0.00  0.00    +0.000 A 
ATOM     17  C   UNL     1       7.185   7.315  17.408  0.00  0.00    +0.000 A 
ATOM     18  C   UNL     1       5.883   6.818  17.278  0.00  0.00    +0.000 A 
ENDBRANCH  11  13
ENDBRANCH   3   7
BRANCH   1  20
ATOM     19  C   UNL     1      -0.555  10.363  18.108  0.00  0.00    +0.000 C 
ATOM     20  C   UNL     1       0.964  10.161  18.138  0.00  0.00    +0.000 C 
ATOM     21  C   UNL     1       1.696  11.436  18.551  0.00  0.00    +0.000 C 
ENDBRANCH   1  20
BRANCH   4  22
ATOM     22  O   UNL     1       2.342   5.516  21.143  0.00  0.00    +0.000 OA
ATOM     23  H   UNL     1       3.231   5.630  21.536  0.00  0.00    +0.000 HD
ENDBRANCH   4  22
BRANCH   6  24
ATOM     24  O   UNL     1       0.532   9.880  21.016  0.00  0.00    +0.000 OA
ATOM     25  H   UNL     1       1.122  10.649  20.999  0.00  0.00    +0.000 HD
ENDBRANCH   6  24
TORSDOF 5
ENDMDL
MODEL 7
REMARK VINA RESULT:      -7.2      2.807      5.636
REMARK  Name = 
REMARK  7 active torsions:
REMARK  status: ('A' for Active; 'I' for Inactive)
REMARK    1  A    between atoms: C_1  and  C_2
REMARK    2  A    between atoms: C_2  and  C_3
REMARK    3  A    between atoms: C_2  and  C_4
REMARK    4  A    between atoms: C_6  and  C_7
REMARK    5  A    between atoms: C_11  and  C_12
REMARK    6  A    between atoms: C_18  and  O_19
REMARK    7  A    between atoms: C_21  and  O_22
REMARK                            x       y       z     vdW  Elec       q    Type
REMARK                         _______ _______ _______ _____ _____    ______ ____
ROOT
ATOM      1  C   UNL     1       2.575   5.599  18.533  0.00  0.00    +0.000 A 
ATOM      2  C   UNL     1       3.703   5.559  17.692  0.00  0.00    +0.000 A 
ATOM      3  C   UNL     1       4.254   4.347  17.243  0.00  0.00    +0.000 A 
ATOM      4  C   UNL     1       3.747   3.155  17.780  0.00  0.00    +0.000 A 
ATOM      5  C   UNL     1       2.678   3.172  18.675  0.00  0.00    +0.000 A 
ATOM      6  C   UNL     1       2.090   4.386  19.031  0.00  0.00    +0.000 A 
ENDROOT
BRANCH   3   7
ATOM      7  C   UNL     1       5.272   4.327  16.205  0.00  0.00    +0.000 A 
ATOM      8  N   UNL     1       5.084   3.648  15.020  0.00  0.00    +0.000 NA
ATOM      9  N   UNL     1       6.137   3.850  14.254  0.00  0.00    +0.000 NA
ATOM     10  N   UNL     1       6.976   4.647  14.931  0.00  0.00    +0.000 N 
ATOM     11  C   UNL     1       6.491   4.997  16.169  0.00  0.00    +0.000 A 
ATOM     12  H   UNL     1       7.837   4.938  14.485  0.00  0.00    +0.000 HD
BRANCH  11  13
ATOM     13  C   UNL     1       7.208   5.889  17.080  0.00  0.00    +0.000 A 
ATOM     14  C   UNL     1       7.428   7.235  16.753  0.00  0.00    +0.000 A 
ATOM     15  C   UNL     1       7.970   8.122  17.686  0.00  0.00    +0.000 A 
ATOM     16  C   UNL     1       8.364   7.661  18.938  0.00  0.00    +0.000 A 
ATOM     17  C   UNL     1       8.221   6.312  19.254  0.00  0.00    +0.000 A 
ATOM     18  C   UNL     1       7.639   5.432  18.334  0.00  0.00    +0.000 A 
ENDBRANCH  11  13
ENDBRANCH   3   7
BRANCH   1  20
ATOM     19  C   UNL     1       2.066   7.379  20.283  0.00  0.00    +0.000 C 
ATOM     20  C   UNL     1       1.938   6.952  18.817  0.00  0.00    +0.000 C 
ATOM     21  C   UNL     1       2.451   8.031  17.866  0.00  0.00    +0.000 C 
ENDBRANCH   1  20
BRANCH   4  22
ATOM     22  O   UNL     1       4.237   1.916  17.456  0.00  0.00    +0.000 OA
ATOM     23  H   UNL     1       3.517   1.404  17.034  0.00  0.00    +0.000 HD
ENDBRANCH   4  22
BRANCH   6  24
ATOM     24  O   UNL     1       1.020   4.388  19.881  0.00  0.00    +0.000 OA
ATOM     25  H   UNL     1       0.720   5.302  20.003  0.00  0.00    +0.000 HD
ENDBRANCH   6  24
TORSDOF 5
ENDMDL
MODEL 8
REMARK VINA RESULT:      -7.1      2.671      4.082
REMARK  Name = 
REMARK  7 active torsions:
REMARK  status: ('A' for Active; 'I' for Inactive)
REMARK    1  A    between atoms: C_1  and  C_2
REMARK    2  A    between atoms: C_2  and  C_3
REMARK    3  A    between atoms: C_2  and  C_4
REMARK    4  A    between atoms: C_6  and  C_7
REMARK    5  A    between atoms: C_11  and  C_12
REMARK    6  A    between atoms: C_18  and  O_19
REMARK    7  A    between atoms: C_21  and  O_22
REMARK                            x       y       z     vdW  Elec       q    Type
REMARK                         _______ _______ _______ _____ _____    ______ ____
ROOT
ATOM      1  C   UNL     1       6.386   4.738  16.043  0.00  0.00    +0.000 A 
ATOM      2  C   UNL     1       5.143   5.356  16.279  0.00  0.00    +0.000 A 
ATOM      3  C   UNL     1       4.782   5.841  17.547  0.00  0.00    +0.000 A 
ATOM      4  C   UNL     1       5.631   5.559  18.626  0.00  0.00    +0.000 A 
ATOM      5  C   UNL     1       6.834   4.881  18.430  0.00  0.00    +0.000 A 
ATOM      6  C   UNL     1       7.211   4.493  17.144  0.00  0.00    +0.000 A 
ENDROOT
BRANCH   3   7
ATOM      7  C   UNL     1       3.599   6.668  17.722  0.00  0.00    +0.000 A 
ATOM      8  N   UNL     1       3.550   7.968  17.266  0.00  0.00    +0.000 NA
ATOM      9  N   UNL     1       2.348   8.449  17.510  0.00  0.00    +0.000 NA
ATOM     10  N   UNL     1       1.642   7.476  18.102  0.00  0.00    +0.000 N 
ATOM     11  C   UNL     1       2.364   6.318  18.260  0.00  0.00    +0.000 A 
ATOM     12  H   UNL     1       0.674   7.654  18.341  0.00  0.00    +0.000 HD
BRANCH  11  13
ATOM     13  C   UNL     1       1.800   5.103  18.847  0.00  0.00    +0.000 A 
ATOM     14  C   UNL     1       1.441   4.009  18.046  0.00  0.00    +0.000 A 
ATOM     15  C   UNL     1       1.052   2.795  18.617  0.00  0.00    +0.000 A 
ATOM     16  C   UNL     1       0.950   2.678  19.999  0.00  0.00    +0.000 A 
ATOM     17  C   UNL     1       1.232   3.776  20.808  0.00  0.00    +0.000 A 
ATOM     18  C   UNL     1       1.662   4.979  20.238  0.00  0.00    +0.000 A 
ENDBRANCH  11  13
ENDBRANCH   3   7
BRANCH   1  20
ATOM     19  C   UNL     1       5.561   4.015  13.743  0.00  0.00    +0.000 C 
ATOM     20  C   UNL     1       6.765   4.413  14.605  0.00  0.00    +0.000 C 
ATOM     21  C   UNL     1       7.573   5.538  13.963  0.00  0.00    +0.000 C 
ENDBRANCH   1  20
BRANCH   4  22
ATOM     22  O   UNL     1       5.361   5.937  19.916  0.00  0.00    +0.000 OA
ATOM     23  H   UNL     1       4.430   5.709  20.111  0.00  0.00    +0.000 HD
ENDBRANCH   4  22
BRANCH   6  24
ATOM     24  O   UNL     1       8.408   3.860  16.959  0.00  0.00    +0.000 OA
ATOM     25  H   UNL     1       8.796   4.164  16.124  0.00  0.00    +0.000 HD
ENDBRANCH   6  24
TORSDOF 5
ENDMDL
MODEL 9
REMARK VINA RESULT:      -7.1      2.054      3.489
REMARK  Name = 
REMARK  7 active torsions:
REMARK  status: ('A' for Active; 'I' for Inactive)
REMARK    1  A    between atoms: C_1  and  C_2
REMARK    2  A    between atoms: C_2  and  C_3
REMARK    3  A    between atoms: C_2  and  C_4
REMARK    4  A    between atoms: C_6  and  C_7
REMARK    5  A    between atoms: C_11  and  C_12
REMARK    6  A    between atoms: C_18  and  O_19
REMARK    7  A    between atoms: C_21  and  O_22
REMARK                            x       y       z     vdW  Elec       q    Type
REMARK                         _______ _______ _______ _____ _____    ______ ____
ROOT
ATOM      1  C   UNL     1       6.013   4.281  14.547  0.00  0.00    +0.000 A 
ATOM      2  C   UNL     1       5.071   3.639  15.374  0.00  0.00    +0.000 A 
ATOM      3  C   UNL     1       5.092   3.778  16.772  0.00  0.00    +0.000 A 
ATOM      4  C   UNL     1       6.175   4.453  17.351  0.00  0.00    +0.000 A 
ATOM      5  C   UNL     1       7.163   5.033  16.555  0.00  0.00    +0.000 A 
ATOM      6  C   UNL     1       7.067   4.961  15.165  0.00  0.00    +0.000 A 
ENDROOT
BRANCH   3   7
ATOM      7  C   UNL     1       3.989   3.295  17.587  0.00  0.00    +0.000 A 
ATOM      8  N   UNL     1       3.754   1.948  17.763  0.00  0.00    +0.000 NA
ATOM      9  N   UNL     1       2.735   1.808  18.587  0.00  0.00    +0.000 NA
ATOM     10  N   UNL     1       2.333   3.038  18.937  0.00  0.00    +0.000 N 
ATOM     11  C   UNL     1       3.086   4.028  18.351  0.00  0.00    +0.000 A 
ATOM     12  H   UNL     1       1.570   3.131  19.595  0.00  0.00    +0.000 HD
BRANCH  11  13
ATOM     13  C   UNL     1       2.864   5.451  18.606  0.00  0.00    +0.000 A 
ATOM     14  C   UNL     1       3.135   6.415  17.624  0.00  0.00    +0.000 A 
ATOM     15  C   UNL     1       2.776   7.752  17.809  0.00  0.00    +0.000 A 
ATOM     16  C   UNL     1       2.202   8.158  19.009  0.00  0.00    +0.000 A 
ATOM     17  C   UNL     1       1.993   7.228  20.024  0.00  0.00    +0.000 A 
ATOM     18  C   UNL     1       2.314   5.881  19.823  0.00  0.00    +0.000 A 
ENDBRANCH  11  13
ENDBRANCH   3   7
BRANCH   1  20
ATOM     19  C   UNL     1       7.032   3.710  12.284  0.00  0.00    +0.000 C 
ATOM     20  C   UNL     1       5.803   4.226  13.041  0.00  0.00    +0.000 C 
ATOM     21  C   UNL     1       4.543   3.446  12.672  0.00  0.00    +0.000 C 
ENDBRANCH   1  20
BRANCH   4  22
ATOM     22  O   UNL     1       6.330   4.609  18.704  0.00  0.00    +0.000 OA
ATOM     23  H   UNL     1       7.288   4.636  18.901  0.00  0.00    +0.000 HD
ENDBRANCH   4  22
BRANCH   6  24
ATOM     24  O   UNL     1       8.021   5.563  14.396  0.00  0.00    +0.000 OA
ATOM     25  H   UNL     1       7.808   6.506  14.314  0.00  0.00    +0.000 HD
ENDBRANCH   6  24
TORSDOF 5
ENDMDL
