MODEL 1
REMARK VINA RESULT:      -8.5      0.000      0.000
REMARK  Name = 
REMARK  6 active torsions:
REMARK  status: ('A' for Active; 'I' for Inactive)
REMARK    1  A    between atoms: O_1  and  C_2
REMARK    2  A    between atoms: C_2  and  C_3
REMARK    3  A    between atoms: C_2  and  C_11
REMARK    4  A    between atoms: C_3  and  C_4
REMARK    5  A    between atoms: C_4  and  C_5
REMARK    6  A    between atoms: C_11  and  N_12
REMARK                            x       y       z     vdW  Elec       q    Type
REMARK                         _______ _______ _______ _____ _____    ______ ____
ROOT
ATOM      1  N   UNL     1       7.089   6.917  17.494  0.00  0.00    +0.000 NA
ATOM      2  C   UNL     1       5.755   7.173  18.018  0.00  0.00    +0.000 C 
ATOM      3  C   UNL     1       4.623   6.562  17.208  0.00  0.00    +0.000 C 
ATOM      4  C   UNL     1       4.927   5.052  16.852  0.00  0.00    +0.000 C 
ATOM      5  C   UNL     1       6.009   5.223  15.788  0.00  0.00    +0.000 C 
ATOM      6  C   UNL     1       7.279   5.790  16.546  0.00  0.00    +0.000 C 
ATOM      7  O   UNL     1       5.729   4.388  17.882  0.00  0.00    +0.000 OA
ATOM      8  C   UNL     1       4.986   4.274  19.063  0.00  0.00    +0.000 C 
ATOM      9  C   UNL     1       3.584   4.378  18.526  0.00  0.00    +0.000 A 
ATOM     10  C   UNL     1       3.712   4.198  17.142  0.00  0.00    +0.000 A 
ATOM     11  C   UNL     1       3.021   3.083  16.703  0.00  0.00    +0.000 A 
ATOM     12  C   UNL     1       2.223   2.331  17.660  0.00  0.00    +0.000 A 
ATOM     13  C   UNL     1       1.999   2.758  19.036  0.00  0.00    +0.000 A 
ATOM     14  C   UNL     1       1.373   2.112  20.144  0.00  0.00    +0.000 A 
ATOM     15  C   UNL     1       1.412   2.666  21.465  0.00  0.00    +0.000 A 
ATOM     16  C   UNL     1       2.031   3.886  21.704  0.00  0.00    +0.000 A 
ATOM     17  C   UNL     1       2.612   4.539  20.647  0.00  0.00    +0.000 A 
ATOM     18  C   UNL     1       2.622   3.936  19.388  0.00  0.00    +0.000 A 
ENDROOT
BRANCH   1  19
ATOM     19  C   UNL     1       7.863   8.107  17.169  0.00  0.00    +0.000 C 
BRANCH  19  20
ATOM     20  C   UNL     1       8.094   9.150  18.304  0.00  0.00    +0.000 C 
BRANCH  20  21
ATOM     21  O   UNL     1       9.074   8.667  19.227  0.00  0.00    +0.000 OA
ATOM     22  H   UNL     1       9.037   7.677  19.202  0.00  0.00    +0.000 HD
ENDBRANCH  20  21
BRANCH  20  23
ATOM     23  C   UNL     1       8.595  10.481  17.729  0.00  0.00    +0.000 C 
BRANCH  23  24
ATOM     24  C   UNL     1       9.921  10.917  18.353  0.00  0.00    +0.000 C 
BRANCH  24  25
ATOM     25  C   UNL     1      10.325  12.303  17.939  0.00  0.00    +0.000 A 
ATOM     26  C   UNL     1       9.452  13.382  18.155  0.00  0.00    +0.000 A 
ATOM     27  C   UNL     1       9.838  14.673  17.801  0.00  0.00    +0.000 A 
ATOM     28  C   UNL     1      11.089  14.892  17.227  0.00  0.00    +0.000 A 
ATOM     29  C   UNL     1      11.954  13.819  16.989  0.00  0.00    +0.000 A 
ATOM     30  C   UNL     1      11.572  12.528  17.347  0.00  0.00    +0.000 A 
ENDBRANCH  24  25
ENDBRANCH  23  24
ENDBRANCH  20  23
ENDBRANCH  19  20
ENDBRANCH   1  19
TORSDOF 6
ENDMDL
MODEL 2
REMARK VINA RESULT:      -8.3      0.658      1.028
REMARK  Name = 
REMARK  6 active torsions:
REMARK  status: ('A' for Active; 'I' for Inactive)
REMARK    1  A    between atoms: O_1  and  C_2
REMARK    2  A    between atoms: C_2  and  C_3
REMARK    3  A    between atoms: C_2  and  C_11
REMARK    4  A    between atoms: C_3  and  C_4
REMARK    5  A    between atoms: C_4  and  C_5
REMARK    6  A    between atoms: C_11  and  N_12
REMARK                            x       y       z     vdW  Elec       q    Type
REMARK                         _______ _______ _______ _____ _____    ______ ____
ROOT
ATOM      1  N   UNL     1       7.033   6.793  17.412  0.00  0.00    +0.000 NA
ATOM      2  C   UNL     1       5.712   7.071  17.958  0.00  0.00    +0.000 C 
ATOM      3  C   UNL     1       4.559   6.458  17.181  0.00  0.00    +0.000 C 
ATOM      4  C   UNL     1       4.840   4.939  16.844  0.00  0.00    +0.000 C 
ATOM      5  C   UNL     1       5.903   5.082  15.757  0.00  0.00    +0.000 C 
ATOM      6  C   UNL     1       7.193   5.649  16.480  0.00  0.00    +0.000 C 
ATOM      7  O   UNL     1       5.657   4.284  17.869  0.00  0.00    +0.000 OA
ATOM      8  C   UNL     1       4.936   4.197  19.066  0.00  0.00    +0.000 C 
ATOM      9  C   UNL     1       3.525   4.307  18.555  0.00  0.00    +0.000 A 
ATOM     10  C   UNL     1       3.623   4.102  17.173  0.00  0.00    +0.000 A 
ATOM     11  C   UNL     1       2.913   2.987  16.766  0.00  0.00    +0.000 A 
ATOM     12  C   UNL     1       2.127   2.259  17.751  0.00  0.00    +0.000 A 
ATOM     13  C   UNL     1       1.935   2.711  19.124  0.00  0.00    +0.000 A 
ATOM     14  C   UNL     1       1.325   2.090  20.254  0.00  0.00    +0.000 A 
ATOM     15  C   UNL     1       1.395   2.665  21.565  0.00  0.00    +0.000 A 
ATOM     16  C   UNL     1       2.031   3.882  21.772  0.00  0.00    +0.000 A 
ATOM     17  C   UNL     1       2.597   4.511  20.692  0.00  0.00    +0.000 A 
ATOM     18  C   UNL     1       2.576   3.888  19.444  0.00  0.00    +0.000 A 
ENDROOT
BRANCH   1  19
ATOM     19  C   UNL     1       7.812   7.969  17.052  0.00  0.00    +0.000 C 
BRANCH  19  20
ATOM     20  C   UNL     1       8.231   8.936  18.201  0.00  0.00    +0.000 C 
BRANCH  20  21
ATOM     21  O   UNL     1       8.949   8.223  19.211  0.00  0.00    +0.000 OA
ATOM     22  H   UNL     1       9.914   8.393  19.059  0.00  0.00    +0.000 HD
ENDBRANCH  20  21
BRANCH  20  23
ATOM     23  C   UNL     1       9.138  10.055  17.670  0.00  0.00    +0.000 C 
BRANCH  23  24
ATOM     24  C   UNL     1       8.840  11.402  18.331  0.00  0.00    +0.000 C 
BRANCH  24  25
ATOM     25  C   UNL     1      10.053  12.283  18.413  0.00  0.00    +0.000 A 
ATOM     26  C   UNL     1      11.196  11.843  19.100  0.00  0.00    +0.000 A 
ATOM     27  C   UNL     1      12.333  12.646  19.150  0.00  0.00    +0.000 A 
ATOM     28  C   UNL     1      12.333  13.890  18.522  0.00  0.00    +0.000 A 
ATOM     29  C   UNL     1      11.191  14.344  17.855  0.00  0.00    +0.000 A 
ATOM     30  C   UNL     1      10.054  13.541  17.799  0.00  0.00    +0.000 A 
ENDBRANCH  24  25
ENDBRANCH  23  24
ENDBRANCH  20  23
ENDBRANCH  19  20
ENDBRANCH   1  19
TORSDOF 6
ENDMDL
MODEL 3
REMARK VINA RESULT:      -8.1      1.454      1.799
REMARK  Name = 
REMARK  6 active torsions:
REMARK  status: ('A' for Active; 'I' for Inactive)
REMARK    1  A    between atoms: O_1  and  C_2
REMARK    2  A    between atoms: C_2  and  C_3
REMARK    3  A    between atoms: C_2  and  C_11
REMARK    4  A    between atoms: C_3  and  C_4
REMARK    5  A    between atoms: C_4  and  C_5
REMARK    6  A    between atoms: C_11  and  N_12
REMARK                            x       y       z     vdW  Elec       q    Type
REMARK                         _______ _______ _______ _____ _____    ______ ____
ROOT
ATOM      1  N   UNL     1       7.110   7.445  17.713  0.00  0.00    +0.000 NA
ATOM      2  C   UNL     1       5.661   7.572  17.667  0.00  0.00    +0.000 C 
ATOM      3  C   UNL     1       4.966   6.607  16.721  0.00  0.00    +0.000 C 
ATOM      4  C   UNL     1       5.505   5.133  16.911  0.00  0.00    +0.000 C 
ATOM      5  C   UNL     1       6.886   5.251  16.271  0.00  0.00    +0.000 C 
ATOM      6  C   UNL     1       7.732   6.187  17.228  0.00  0.00    +0.000 C 
ATOM      7  O   UNL     1       5.921   4.867  18.291  0.00  0.00    +0.000 OA
ATOM      8  C   UNL     1       4.805   4.889  19.136  0.00  0.00    +0.000 C 
ATOM      9  C   UNL     1       3.699   4.623  18.151  0.00  0.00    +0.000 A 
ATOM     10  C   UNL     1       4.345   4.165  16.996  0.00  0.00    +0.000 A 
ATOM     11  C   UNL     1       3.963   2.877  16.669  0.00  0.00    +0.000 A 
ATOM     12  C   UNL     1       2.932   2.228  17.466  0.00  0.00    +0.000 A 
ATOM     13  C   UNL     1       2.180   2.904  18.516  0.00  0.00    +0.000 A 
ATOM     14  C   UNL     1       1.244   2.421  19.479  0.00  0.00    +0.000 A 
ATOM     15  C   UNL     1       0.743   3.253  20.533  0.00  0.00    +0.000 A 
ATOM     16  C   UNL     1       1.125   4.585  20.628  0.00  0.00    +0.000 A 
ATOM     17  C   UNL     1       2.000   5.078  19.692  0.00  0.00    +0.000 A 
ATOM     18  C   UNL     1       2.526   4.221  18.724  0.00  0.00    +0.000 A 
ENDROOT
BRANCH   1  19
ATOM     19  C   UNL     1       7.848   8.650  17.359  0.00  0.00    +0.000 C 
BRANCH  19  20
ATOM     20  C   UNL     1       8.334   9.567  18.522  0.00  0.00    +0.000 C 
BRANCH  20  21
ATOM     21  O   UNL     1       9.177   8.831  19.413  0.00  0.00    +0.000 OA
ATOM     22  H   UNL     1       9.317   9.395  20.216  0.00  0.00    +0.000 HD
ENDBRANCH  20  21
BRANCH  20  23
ATOM     23  C   UNL     1       9.136  10.758  17.981  0.00  0.00    +0.000 C 
BRANCH  23  24
ATOM     24  C   UNL     1      10.446  10.965  18.741  0.00  0.00    +0.000 C 
BRANCH  24  25
ATOM     25  C   UNL     1      10.380  12.119  19.700  0.00  0.00    +0.000 A 
ATOM     26  C   UNL     1      11.040  13.321  19.396  0.00  0.00    +0.000 A 
ATOM     27  C   UNL     1      10.953  14.404  20.269  0.00  0.00    +0.000 A 
ATOM     28  C   UNL     1      10.216  14.290  21.447  0.00  0.00    +0.000 A 
ATOM     29  C   UNL     1       9.576  13.088  21.766  0.00  0.00    +0.000 A 
ATOM     30  C   UNL     1       9.657  12.006  20.892  0.00  0.00    +0.000 A 
ENDBRANCH  24  25
ENDBRANCH  23  24
ENDBRANCH  20  23
ENDBRANCH  19  20
ENDBRANCH   1  19
TORSDOF 6
ENDMDL
MODEL 4
REMARK VINA RESULT:      -8.0      4.727      7.972
REMARK  Name = 
REMARK  6 active torsions:
REMARK  status: ('A' for Active; 'I' for Inactive)
REMARK    1  A    between atoms: O_1  and  C_2
REMARK    2  A    between atoms: C_2  and  C_3
REMARK    3  A    between atoms: C_2  and  C_11
REMARK    4  A    between atoms: C_3  and  C_4
REMARK    5  A    between atoms: C_4  and  C_5
REMARK    6  A    between atoms: C_11  and  N_12
REMARK                            x       y       z     vdW  Elec       q    Type
REMARK                         _______ _______ _______ _____ _____    ______ ____
ROOT
ATOM      1  N   UNL     1       2.844   2.548  18.930  0.00  0.00    +0.000 NA
ATOM      2  C   UNL     1       2.570   3.188  17.652  0.00  0.00    +0.000 C 
ATOM      3  C   UNL     1       3.221   4.550  17.468  0.00  0.00    +0.000 C 
ATOM      4  C   UNL     1       4.744   4.516  17.891  0.00  0.00    +0.000 C 
ATOM      5  C   UNL     1       4.615   4.438  19.410  0.00  0.00    +0.000 C 
ATOM      6  C   UNL     1       4.010   3.009  19.724  0.00  0.00    +0.000 C 
ATOM      7  O   UNL     1       5.359   3.207  17.652  0.00  0.00    +0.000 OA
ATOM      8  C   UNL     1       5.424   2.957  16.276  0.00  0.00    +0.000 C 
ATOM      9  C   UNL     1       5.349   4.358  15.731  0.00  0.00    +0.000 A 
ATOM     10  C   UNL     1       5.590   5.189  16.832  0.00  0.00    +0.000 A 
ATOM     11  C   UNL     1       6.726   5.959  16.658  0.00  0.00    +0.000 A 
ATOM     12  C   UNL     1       7.439   5.879  15.391  0.00  0.00    +0.000 A 
ATOM     13  C   UNL     1       6.953   5.132  14.238  0.00  0.00    +0.000 A 
ATOM     14  C   UNL     1       7.551   4.827  12.979  0.00  0.00    +0.000 A 
ATOM     15  C   UNL     1       6.940   3.927  12.046  0.00  0.00    +0.000 A 
ATOM     16  C   UNL     1       5.709   3.348  12.323  0.00  0.00    +0.000 A 
ATOM     17  C   UNL     1       5.100   3.653  13.514  0.00  0.00    +0.000 A 
ATOM     18  C   UNL     1       5.758   4.474  14.433  0.00  0.00    +0.000 A 
ENDROOT
BRANCH   1  19
ATOM     19  C   UNL     1       1.666   2.234  19.727  0.00  0.00    +0.000 C 
BRANCH  19  20
ATOM     20  C   UNL     1       1.254   3.247  20.837  0.00  0.00    +0.000 C 
BRANCH  20  21
ATOM     21  O   UNL     1       2.287   3.348  21.822  0.00  0.00    +0.000 OA
ATOM     22  H   UNL     1       3.124   3.022  21.403  0.00  0.00    +0.000 HD
ENDBRANCH  20  21
BRANCH  20  23
ATOM     23  C   UNL     1       1.023   4.643  20.244  0.00  0.00    +0.000 C 
BRANCH  23  24
ATOM     24  C   UNL     1       1.872   5.712  20.934  0.00  0.00    +0.000 C 
BRANCH  24  25
ATOM     25  C   UNL     1       1.703   7.070  20.316  0.00  0.00    +0.000 A 
ATOM     26  C   UNL     1       2.220   7.328  19.036  0.00  0.00    +0.000 A 
ATOM     27  C   UNL     1       2.036   8.577  18.448  0.00  0.00    +0.000 A 
ATOM     28  C   UNL     1       1.344   9.574  19.135  0.00  0.00    +0.000 A 
ATOM     29  C   UNL     1       0.846   9.331  20.418  0.00  0.00    +0.000 A 
ATOM     30  C   UNL     1       1.024   8.080  21.007  0.00  0.00    +0.000 A 
ENDBRANCH  24  25
ENDBRANCH  23  24
ENDBRANCH  20  23
ENDBRANCH  19  20
ENDBRANCH   1  19
TORSDOF 6
ENDMDL
MODEL 5
REMARK VINA RESULT:      -7.7      4.783      7.901
REMARK  Name = 
REMARK  6 active torsions:
REMARK  status: ('A' for Active; 'I' for Inactive)
REMARK    1  A    between atoms: O_1  and  C_2
REMARK    2  A    between atoms: C_2  and  C_3
REMARK    3  A    between atoms: C_2  and  C_11
REMARK    4  A    between atoms: C_3  and  C_4
REMARK    5  A    between atoms: C_4  and  C_5
REMARK    6  A    between atoms: C_11  and  N_12
REMARK                            x       y       z     vdW  Elec       q    Type
REMARK                         _______ _______ _______ _____ _____    ______ ____
ROOT
ATOM      1  N   UNL     1       3.508   3.213  18.886  0.00  0.00    +0.000 NA
ATOM      2  C   UNL     1       3.091   3.731  17.592  0.00  0.00    +0.000 C 
ATOM      3  C   UNL     1       3.835   4.973  17.131  0.00  0.00    +0.000 C 
ATOM      4  C   UNL     1       5.396   4.804  17.315  0.00  0.00    +0.000 C 
ATOM      5  C   UNL     1       5.517   4.918  18.833  0.00  0.00    +0.000 C 
ATOM      6  C   UNL     1       4.831   3.618  19.424  0.00  0.00    +0.000 C 
ATOM      7  O   UNL     1       5.828   3.412  17.161  0.00  0.00    +0.000 OA
ATOM      8  C   UNL     1       5.636   2.999  15.838  0.00  0.00    +0.000 C 
ATOM      9  C   UNL     1       5.612   4.326  15.128  0.00  0.00    +0.000 A 
ATOM     10  C   UNL     1       6.116   5.244  16.059  0.00  0.00    +0.000 A 
ATOM     11  C   UNL     1       7.279   5.845  15.612  0.00  0.00    +0.000 A 
ATOM     12  C   UNL     1       7.757   5.535  14.272  0.00  0.00    +0.000 A 
ATOM     13  C   UNL     1       7.012   4.724  13.317  0.00  0.00    +0.000 A 
ATOM     14  C   UNL     1       7.358   4.206  12.033  0.00  0.00    +0.000 A 
ATOM     15  C   UNL     1       6.511   3.285  11.334  0.00  0.00    +0.000 A 
ATOM     16  C   UNL     1       5.291   2.895  11.871  0.00  0.00    +0.000 A 
ATOM     17  C   UNL     1       4.925   3.407  13.090  0.00  0.00    +0.000 A 
ATOM     18  C   UNL     1       5.807   4.242  13.779  0.00  0.00    +0.000 A 
ENDROOT
BRANCH   1  19
ATOM     19  C   UNL     1       2.455   3.138  19.890  0.00  0.00    +0.000 C 
BRANCH  19  20
ATOM     20  C   UNL     1       1.319   4.203  19.825  0.00  0.00    +0.000 C 
BRANCH  20  21
ATOM     21  O   UNL     1       0.077   3.629  20.244  0.00  0.00    +0.000 OA
ATOM     22  H   UNL     1      -0.004   2.749  19.794  0.00  0.00    +0.000 HD
ENDBRANCH  20  21
BRANCH  20  23
ATOM     23  C   UNL     1       1.631   5.390  20.746  0.00  0.00    +0.000 C 
BRANCH  23  24
ATOM     24  C   UNL     1       2.607   6.378  20.104  0.00  0.00    +0.000 C 
BRANCH  24  25
ATOM     25  C   UNL     1       1.964   7.696  19.781  0.00  0.00    +0.000 A 
ATOM     26  C   UNL     1       2.092   8.241  18.493  0.00  0.00    +0.000 A 
ATOM     27  C   UNL     1       1.469   9.448  18.181  0.00  0.00    +0.000 A 
ATOM     28  C   UNL     1       0.725  10.117  19.152  0.00  0.00    +0.000 A 
ATOM     29  C   UNL     1       0.612   9.590  20.442  0.00  0.00    +0.000 A 
ATOM     30  C   UNL     1       1.230   8.381  20.755  0.00  0.00    +0.000 A 
ENDBRANCH  24  25
ENDBRANCH  23  24
ENDBRANCH  20  23
ENDBRANCH  19  20
ENDBRANCH   1  19
TORSDOF 6
ENDMDL
MODEL 6
REMARK VINA RESULT:      -7.7      6.912     10.831
REMARK  Name = 
REMARK  6 active torsions:
REMARK  status: ('A' for Active; 'I' for Inactive)
REMARK    1  A    between atoms: O_1  and  C_2
REMARK    2  A    between atoms: C_2  and  C_3
REMARK    3  A    between atoms: C_2  and  C_11
REMARK    4  A    between atoms: C_3  and  C_4
REMARK    5  A    between atoms: C_4  and  C_5
REMARK    6  A    between atoms: C_11  and  N_12
REMARK                            x       y       z     vdW  Elec       q    Type
REMARK                         _______ _______ _______ _____ _____    ______ ____
ROOT
ATOM      1  N   UNL     1       1.629   8.750  20.259  0.00  0.00    +0.000 NA
ATOM      2  C   UNL     1       0.817   9.527  19.334  0.00  0.00    +0.000 C 
ATOM      3  C   UNL     1      -0.564   9.895  19.851  0.00  0.00    +0.000 C 
ATOM      4  C   UNL     1      -0.488  10.468  21.323  0.00  0.00    +0.000 C 
ATOM      5  C   UNL     1      -0.195   9.193  22.109  0.00  0.00    +0.000 C 
ATOM      6  C   UNL     1       1.272   8.756  21.700  0.00  0.00    +0.000 C 
ATOM      7  O   UNL     1       0.767  11.181  21.579  0.00  0.00    +0.000 OA
ATOM      8  C   UNL     1       0.819  12.344  20.801  0.00  0.00    +0.000 C 
ATOM      9  C   UNL     1      -0.644  12.565  20.524  0.00  0.00    +0.000 A 
ATOM     10  C   UNL     1      -1.314  11.732  21.429  0.00  0.00    +0.000 A 
ATOM     11  C   UNL     1      -2.113  12.452  22.298  0.00  0.00    +0.000 A 
ATOM     12  C   UNL     1      -2.222  13.893  22.118  0.00  0.00    +0.000 A 
ATOM     13  C   UNL     1      -1.640  14.611  20.992  0.00  0.00    +0.000 A 
ATOM     14  C   UNL     1      -1.523  16.005  20.708  0.00  0.00    +0.000 A 
ATOM     15  C   UNL     1      -0.757  16.492  19.599  0.00  0.00    +0.000 A 
ATOM     16  C   UNL     1      -0.130  15.610  18.729  0.00  0.00    +0.000 A 
ATOM     17  C   UNL     1      -0.257  14.264  18.965  0.00  0.00    +0.000 A 
ATOM     18  C   UNL     1      -0.947  13.826  20.096  0.00  0.00    +0.000 A 
ENDROOT
BRANCH   1  19
ATOM     19  C   UNL     1       2.066   7.454  19.759  0.00  0.00    +0.000 C 
BRANCH  19  20
ATOM     20  C   UNL     1       2.348   7.329  18.231  0.00  0.00    +0.000 C 
BRANCH  20  21
ATOM     21  O   UNL     1       3.335   8.284  17.829  0.00  0.00    +0.000 OA
ATOM     22  H   UNL     1       3.746   8.644  18.657  0.00  0.00    +0.000 HD
ENDBRANCH  20  21
BRANCH  20  23
ATOM     23  C   UNL     1       2.871   5.928  17.885  0.00  0.00    +0.000 C 
BRANCH  23  24
ATOM     24  C   UNL     1       1.796   4.853  18.052  0.00  0.00    +0.000 C 
BRANCH  24  25
ATOM     25  C   UNL     1       2.025   3.992  19.260  0.00  0.00    +0.000 A 
ATOM     26  C   UNL     1       3.296   3.444  19.500  0.00  0.00    +0.000 A 
ATOM     27  C   UNL     1       3.519   2.671  20.638  0.00  0.00    +0.000 A 
ATOM     28  C   UNL     1       2.478   2.437  21.534  0.00  0.00    +0.000 A 
ATOM     29  C   UNL     1       1.205   2.960  21.290  0.00  0.00    +0.000 A 
ATOM     30  C   UNL     1       0.980   3.738  20.155  0.00  0.00    +0.000 A 
ENDBRANCH  24  25
ENDBRANCH  23  24
ENDBRANCH  20  23
ENDBRANCH  19  20
ENDBRANCH   1  19
TORSDOF 6
ENDMDL
MODEL 7
REMARK VINA RESULT:      -7.5      7.605     10.747
REMARK  Name = 
REMARK  6 active torsions:
REMARK  status: ('A' for Active; 'I' for Inactive)
REMARK    1  A    between atoms: O_1  and  C_2
REMARK    2  A    between atoms: C_2  and  C_3
REMARK    3  A    between atoms: C_2  and  C_11
REMARK    4  A    between atoms: C_3  and  C_4
REMARK    5  A    between atoms: C_4  and  C_5
REMARK    6  A    between atoms: C_11  and  N_12
REMARK                            x       y       z     vdW  Elec       q    Type
REMARK                         _______ _______ _______ _____ _____    ______ ____
ROOT
ATOM      1  N   UNL     1       1.399  10.562  18.239  0.00  0.00    +0.000 NA
ATOM      2  C   UNL     1       0.121   9.884  18.394  0.00  0.00    +0.000 C 
ATOM      3  C   UNL     1      -0.597  10.166  19.703  0.00  0.00    +0.000 C 
ATOM      4  C   UNL     1      -0.615  11.715  20.022  0.00  0.00    +0.000 C 
ATOM      5  C   UNL     1       0.843  11.941  20.414  0.00  0.00    +0.000 C 
ATOM      6  C   UNL     1       1.687  11.745  19.089  0.00  0.00    +0.000 C 
ATOM      7  O   UNL     1      -0.648  12.533  18.806  0.00  0.00    +0.000 OA
ATOM      8  C   UNL     1      -1.867  12.349  18.143  0.00  0.00    +0.000 C 
ATOM      9  C   UNL     1      -2.730  11.853  19.271  0.00  0.00    +0.000 A 
ATOM     10  C   UNL     1      -2.006  12.142  20.435  0.00  0.00    +0.000 A 
ATOM     11  C   UNL     1      -2.687  13.017  21.262  0.00  0.00    +0.000 A 
ATOM     12  C   UNL     1      -4.030  13.436  20.885  0.00  0.00    +0.000 A 
ATOM     13  C   UNL     1      -4.757  12.884  19.749  0.00  0.00    +0.000 A 
ATOM     14  C   UNL     1      -6.000  13.246  19.147  0.00  0.00    +0.000 A 
ATOM     15  C   UNL     1      -6.448  12.656  17.920  0.00  0.00    +0.000 A 
ATOM     16  C   UNL     1      -5.698  11.671  17.291  0.00  0.00    +0.000 A 
ATOM     17  C   UNL     1      -4.515  11.286  17.870  0.00  0.00    +0.000 A 
ATOM     18  C   UNL     1      -4.071  11.934  19.025  0.00  0.00    +0.000 A 
ENDROOT
BRANCH   1  19
ATOM     19  C   UNL     1       2.543   9.684  18.031  0.00  0.00    +0.000 C 
BRANCH  19  20
ATOM     20  C   UNL     1       2.274   8.150  17.976  0.00  0.00    +0.000 C 
BRANCH  20  21
ATOM     21  O   UNL     1       3.309   7.492  17.239  0.00  0.00    +0.000 OA
ATOM     22  H   UNL     1       2.896   6.714  16.785  0.00  0.00    +0.000 HD
ENDBRANCH  20  21
BRANCH  20  23
ATOM     23  C   UNL     1       2.238   7.550  19.388  0.00  0.00    +0.000 C 
BRANCH  23  24
ATOM     24  C   UNL     1       3.101   6.292  19.502  0.00  0.00    +0.000 C 
BRANCH  24  25
ATOM     25  C   UNL     1       2.284   5.032  19.511  0.00  0.00    +0.000 A 
ATOM     26  C   UNL     1       1.982   4.383  18.302  0.00  0.00    +0.000 A 
ATOM     27  C   UNL     1       1.251   3.197  18.310  0.00  0.00    +0.000 A 
ATOM     28  C   UNL     1       0.816   2.658  19.520  0.00  0.00    +0.000 A 
ATOM     29  C   UNL     1       1.094   3.310  20.725  0.00  0.00    +0.000 A 
ATOM     30  C   UNL     1       1.829   4.494  20.719  0.00  0.00    +0.000 A 
ENDBRANCH  24  25
ENDBRANCH  23  24
ENDBRANCH  20  23
ENDBRANCH  19  20
ENDBRANCH   1  19
TORSDOF 6
ENDMDL
MODEL 8
REMARK VINA RESULT:      -7.5      8.287     11.253
REMARK  Name = 
REMARK  6 active torsions:
REMARK  status: ('A' for Active; 'I' for Inactive)
REMARK    1  A    between atoms: O_1  and  C_2
REMARK    2  A    between atoms: C_2  and  C_3
REMARK    3  A    between atoms: C_2  and  C_11
REMARK    4  A    between atoms: C_3  and  C_4
REMARK    5  A    between atoms: C_4  and  C_5
REMARK    6  A    between atoms: C_11  and  N_12
REMARK                            x       y       z     vdW  Elec       q    Type
REMARK                         _______ _______ _______ _____ _____    ______ ____
ROOT
ATOM      1  N   UNL     1       0.713  10.747  19.420  0.00  0.00    +0.000 NA
ATOM      2  C   UNL     1       0.786  12.141  19.832  0.00  0.00    +0.000 C 
ATOM      3  C   UNL     1      -0.435  12.975  19.480  0.00  0.00    +0.000 C 
ATOM      4  C   UNL     1      -1.770  12.227  19.876  0.00  0.00    +0.000 C 
ATOM      5  C   UNL     1      -1.818  11.143  18.801  0.00  0.00    +0.000 C 
ATOM      6  C   UNL     1      -0.617  10.160  19.121  0.00  0.00    +0.000 C 
ATOM      7  O   UNL     1      -1.600  11.369  21.052  0.00  0.00    +0.000 OA
ATOM      8  C   UNL     1      -1.351  12.156  22.182  0.00  0.00    +0.000 C 
ATOM      9  C   UNL     1      -1.926  13.474  21.741  0.00  0.00    +0.000 A 
ATOM     10  C   UNL     1      -2.695  13.174  20.609  0.00  0.00    +0.000 A 
ATOM     11  C   UNL     1      -4.031  13.478  20.799  0.00  0.00    +0.000 A 
ATOM     12  C   UNL     1      -4.434  14.118  22.043  0.00  0.00    +0.000 A 
ATOM     13  C   UNL     1      -3.492  14.579  23.055  0.00  0.00    +0.000 A 
ATOM     14  C   UNL     1      -3.685  15.098  24.371  0.00  0.00    +0.000 A 
ATOM     15  C   UNL     1      -2.587  15.339  25.259  0.00  0.00    +0.000 A 
ATOM     16  C   UNL     1      -1.279  15.113  24.848  0.00  0.00    +0.000 A 
ATOM     17  C   UNL     1      -1.070  14.645  23.576  0.00  0.00    +0.000 A 
ATOM     18  C   UNL     1      -2.165  14.349  22.763  0.00  0.00    +0.000 A 
ENDROOT
BRANCH   1  19
ATOM     19  C   UNL     1       1.773  10.312  18.521  0.00  0.00    +0.000 C 
BRANCH  19  20
ATOM     20  C   UNL     1       1.768   8.821  18.068  0.00  0.00    +0.000 C 
BRANCH  20  21
ATOM     21  O   UNL     1       2.733   8.615  17.032  0.00  0.00    +0.000 OA
ATOM     22  H   UNL     1       2.300   8.060  16.334  0.00  0.00    +0.000 HD
ENDBRANCH  20  21
BRANCH  20  23
ATOM     23  C   UNL     1       2.120   7.893  19.239  0.00  0.00    +0.000 C 
BRANCH  23  24
ATOM     24  C   UNL     1       2.935   6.679  18.789  0.00  0.00    +0.000 C 
BRANCH  24  25
ATOM     25  C   UNL     1       2.240   5.380  19.077  0.00  0.00    +0.000 A 
ATOM     26  C   UNL     1       1.862   5.064  20.392  0.00  0.00    +0.000 A 
ATOM     27  C   UNL     1       1.188   3.873  20.657  0.00  0.00    +0.000 A 
ATOM     28  C   UNL     1       0.896   2.993  19.616  0.00  0.00    +0.000 A 
ATOM     29  C   UNL     1       1.290   3.292  18.308  0.00  0.00    +0.000 A 
ATOM     30  C   UNL     1       1.959   4.484  18.040  0.00  0.00    +0.000 A 
ENDBRANCH  24  25
ENDBRANCH  23  24
ENDBRANCH  20  23
ENDBRANCH  19  20
ENDBRANCH   1  19
TORSDOF 6
ENDMDL
MODEL 9
REMARK VINA RESULT:      -7.4      6.875      9.898
REMARK  Name = 
REMARK  6 active torsions:
REMARK  status: ('A' for Active; 'I' for Inactive)
REMARK    1  A    between atoms: O_1  and  C_2
REMARK    2  A    between atoms: C_2  and  C_3
REMARK    3  A    between atoms: C_2  and  C_11
REMARK    4  A    between atoms: C_3  and  C_4
REMARK    5  A    between atoms: C_4  and  C_5
REMARK    6  A    between atoms: C_11  and  N_12
REMARK                            x       y       z     vdW  Elec       q    Type
REMARK                         _______ _______ _______ _____ _____    ______ ____
ROOT
ATOM      1  N   UNL     1       1.706   8.750  20.373  0.00  0.00    +0.000 NA
ATOM      2  C   UNL     1       0.905   9.496  19.415  0.00  0.00    +0.000 C 
ATOM      3  C   UNL     1      -0.490   9.860  19.897  0.00  0.00    +0.000 C 
ATOM      4  C   UNL     1      -0.449  10.467  21.356  0.00  0.00    +0.000 C 
ATOM      5  C   UNL     1      -0.158   9.213  22.177  0.00  0.00    +0.000 C 
ATOM      6  C   UNL     1       1.321   8.784  21.806  0.00  0.00    +0.000 C 
ATOM      7  O   UNL     1       0.792  11.200  21.620  0.00  0.00    +0.000 OA
ATOM      8  C   UNL     1       0.847  12.346  20.817  0.00  0.00    +0.000 C 
ATOM      9  C   UNL     1      -0.613  12.543  20.507  0.00  0.00    +0.000 A 
ATOM     10  C   UNL     1      -1.291  11.723  21.418  0.00  0.00    +0.000 A 
ATOM     11  C   UNL     1      -2.115  12.454  22.255  0.00  0.00    +0.000 A 
ATOM     12  C   UNL     1      -2.236  13.889  22.040  0.00  0.00    +0.000 A 
ATOM     13  C   UNL     1      -1.640  14.589  20.908  0.00  0.00    +0.000 A 
ATOM     14  C   UNL     1      -1.532  15.977  20.595  0.00  0.00    +0.000 A 
ATOM     15  C   UNL     1      -0.750  16.447  19.490  0.00  0.00    +0.000 A 
ATOM     16  C   UNL     1      -0.097  15.553  18.652  0.00  0.00    +0.000 A 
ATOM     17  C   UNL     1      -0.214  14.211  18.917  0.00  0.00    +0.000 A 
ATOM     18  C   UNL     1      -0.921  13.791  20.044  0.00  0.00    +0.000 A 
ENDROOT
BRANCH   1  19
ATOM     19  C   UNL     1       2.168   7.448  19.911  0.00  0.00    +0.000 C 
BRANCH  19  20
ATOM     20  C   UNL     1       2.276   7.226  18.371  0.00  0.00    +0.000 C 
BRANCH  20  21
ATOM     21  O   UNL     1       3.444   7.874  17.859  0.00  0.00    +0.000 OA
ATOM     22  H   UNL     1       3.198   8.271  16.985  0.00  0.00    +0.000 HD
ENDBRANCH  20  21
BRANCH  20  23
ATOM     23  C   UNL     1       2.376   5.730  18.041  0.00  0.00    +0.000 C 
BRANCH  23  24
ATOM     24  C   UNL     1       3.453   5.027  18.869  0.00  0.00    +0.000 C 
BRANCH  24  25
ATOM     25  C   UNL     1       4.735   4.842  18.109  0.00  0.00    +0.000 A 
ATOM     26  C   UNL     1       4.702   4.401  16.776  0.00  0.00    +0.000 A 
ATOM     27  C   UNL     1       5.888   4.259  16.059  0.00  0.00    +0.000 A 
ATOM     28  C   UNL     1       7.108   4.548  16.668  0.00  0.00    +0.000 A 
ATOM     29  C   UNL     1       7.149   4.966  18.002  0.00  0.00    +0.000 A 
ATOM     30  C   UNL     1       5.964   5.114  18.720  0.00  0.00    +0.000 A 
ENDBRANCH  24  25
ENDBRANCH  23  24
ENDBRANCH  20  23
ENDBRANCH  19  20
ENDBRANCH   1  19
TORSDOF 6
ENDMDL
