MODEL 1
REMARK VINA RESULT:      -7.8      0.000      0.000
REMARK  Name = 
REMARK  9 active torsions:
REMARK  status: ('A' for Active; 'I' for Inactive)
REMARK    1  A    between atoms: C_2  and  O_3
REMARK    2  A    between atoms: C_2  and  C_4
REMARK    3  A    between atoms: C_5  and  C_6
REMARK    4  A    between atoms: C_9  and  O_10
REMARK    5  A    between atoms: O_10  and  C_11
REMARK    6  A    between atoms: C_11  and  C_12
REMARK    7  A    between atoms: C_16  and  O_17
REMARK    8  A    between atoms: O_17  and  C_18
REMARK    9  A    between atoms: C_18  and  C_19
REMARK                            x       y       z     vdW  Elec       q    Type
REMARK                         _______ _______ _______ _____ _____    ______ ____
ROOT
ATOM      1  C   UNL     1       3.334   3.718  17.087  0.00  0.00    +0.000 C 
ENDROOT
BRANCH   1   2
ATOM      2  C   UNL     1       2.916   3.809  18.539  0.00  0.00    +0.000 A 
ATOM      3  C   UNL     1       3.188   2.741  19.408  0.00  0.00    +0.000 A 
ATOM      4  C   UNL     1       2.748   2.771  20.730  0.00  0.00    +0.000 A 
ATOM      5  C   UNL     1       2.045   3.875  21.209  0.00  0.00    +0.000 A 
ATOM      6  C   UNL     1       1.811   4.970  20.376  0.00  0.00    +0.000 A 
ATOM      7  C   UNL     1       2.225   4.924  19.038  0.00  0.00    +0.000 A 
BRANCH   6   8
ATOM      8  O   UNL     1       1.183   6.122  20.771  0.00  0.00    +0.000 OA
BRANCH   8   9
ATOM      9  C   UNL     1       2.025   7.277  20.862  0.00  0.00    +0.000 C 
BRANCH   9  10
ATOM     10  C   UNL     1       1.432   8.399  20.047  0.00  0.00    +0.000 A 
ATOM     11  C   UNL     1       0.538   9.314  20.619  0.00  0.00    +0.000 A 
ATOM     12  C   UNL     1       0.009  10.353  19.852  0.00  0.00    +0.000 A 
ATOM     13  C   UNL     1       0.376  10.492  18.514  0.00  0.00    +0.000 A 
ATOM     14  C   UNL     1       1.282   9.601  17.943  0.00  0.00    +0.000 A 
ATOM     15  C   UNL     1       1.810   8.562  18.707  0.00  0.00    +0.000 A 
ENDBRANCH   9  10
ENDBRANCH   8   9
ENDBRANCH   6   8
ENDBRANCH   1   2
BRANCH   1  16
ATOM     16  O   UNL     1       4.736   3.449  17.021  0.00  0.00    +0.000 OA
BRANCH  16  20
ATOM     17  C   UNL     1       7.066   6.861  17.612  0.00  0.00    +0.000 A 
ATOM     18  C   UNL     1       5.953   6.864  16.774  0.00  0.00    +0.000 A 
ATOM     19  C   UNL     1       5.208   5.694  16.597  0.00  0.00    +0.000 A 
ATOM     20  C   UNL     1       5.578   4.507  17.234  0.00  0.00    +0.000 A 
ATOM     21  C   UNL     1       6.702   4.503  18.063  0.00  0.00    +0.000 A 
ATOM     22  C   UNL     1       7.445   5.679  18.250  0.00  0.00    +0.000 A 
BRANCH  17  24
ATOM     23  C   UNL     1       8.317   9.138  18.055  0.00  0.00    +0.000 C 
ATOM     24  C   UNL     1       7.781   8.083  17.852  0.00  0.00    +0.000 C 
BRANCH  23  26
ATOM     25  O   UNL     1       9.867  10.560  19.046  0.00  0.00    +0.000 OA
ATOM     26  C   UNL     1       8.916  10.428  18.296  0.00  0.00    +0.000 C 
BRANCH  26  27
ATOM     27  O   UNL     1       8.332  11.440  17.619  0.00  0.00    +0.000 OA
ATOM     28  H   UNL     1       7.654  11.115  16.998  0.00  0.00    +0.000 HD
ENDBRANCH  26  27
ENDBRANCH  23  26
ENDBRANCH  17  24
ENDBRANCH  16  20
ENDBRANCH   1  16
TORSDOF 9
ENDMDL
MODEL 2
REMARK VINA RESULT:      -7.5      2.044      7.275
REMARK  Name = 
REMARK  9 active torsions:
REMARK  status: ('A' for Active; 'I' for Inactive)
REMARK    1  A    between atoms: C_2  and  O_3
REMARK    2  A    between atoms: C_2  and  C_4
REMARK    3  A    between atoms: C_5  and  C_6
REMARK    4  A    between atoms: C_9  and  O_10
REMARK    5  A    between atoms: O_10  and  C_11
REMARK    6  A    between atoms: C_11  and  C_12
REMARK    7  A    between atoms: C_16  and  O_17
REMARK    8  A    between atoms: O_17  and  C_18
REMARK    9  A    between atoms: C_18  and  C_19
REMARK                            x       y       z     vdW  Elec       q    Type
REMARK                         _______ _______ _______ _____ _____    ______ ____
ROOT
ATOM      1  C   UNL     1       4.901   5.441  16.345  0.00  0.00    +0.000 C 
ENDROOT
BRANCH   1   2
ATOM      2  C   UNL     1       6.079   5.904  17.175  0.00  0.00    +0.000 A 
ATOM      3  C   UNL     1       6.699   5.008  18.060  0.00  0.00    +0.000 A 
ATOM      4  C   UNL     1       7.737   5.432  18.889  0.00  0.00    +0.000 A 
ATOM      5  C   UNL     1       8.183   6.751  18.833  0.00  0.00    +0.000 A 
ATOM      6  C   UNL     1       7.616   7.643  17.922  0.00  0.00    +0.000 A 
ATOM      7  C   UNL     1       6.550   7.225  17.114  0.00  0.00    +0.000 A 
BRANCH   6   8
ATOM      8  O   UNL     1       8.024   8.940  17.754  0.00  0.00    +0.000 OA
BRANCH   8   9
ATOM      9  C   UNL     1       8.969   9.413  18.721  0.00  0.00    +0.000 C 
BRANCH   9  10
ATOM     10  C   UNL     1       9.422  10.802  18.347  0.00  0.00    +0.000 A 
ATOM     11  C   UNL     1      10.770  11.174  18.445  0.00  0.00    +0.000 A 
ATOM     12  C   UNL     1      11.172  12.461  18.081  0.00  0.00    +0.000 A 
ATOM     13  C   UNL     1      10.235  13.379  17.609  0.00  0.00    +0.000 A 
ATOM     14  C   UNL     1       8.897  13.011  17.487  0.00  0.00    +0.000 A 
ATOM     15  C   UNL     1       8.494  11.728  17.850  0.00  0.00    +0.000 A 
ENDBRANCH   9  10
ENDBRANCH   8   9
ENDBRANCH   6   8
ENDBRANCH   1   2
BRANCH   1  16
ATOM     16  O   UNL     1       3.976   4.755  17.190  0.00  0.00    +0.000 OA
BRANCH  16  20
ATOM     17  C   UNL     1       2.030   7.165  19.988  0.00  0.00    +0.000 A 
ATOM     18  C   UNL     1       2.372   7.634  18.721  0.00  0.00    +0.000 A 
ATOM     19  C   UNL     1       3.034   6.794  17.819  0.00  0.00    +0.000 A 
ATOM     20  C   UNL     1       3.381   5.490  18.180  0.00  0.00    +0.000 A 
ATOM     21  C   UNL     1       3.050   5.026  19.455  0.00  0.00    +0.000 A 
ATOM     22  C   UNL     1       2.376   5.864  20.357  0.00  0.00    +0.000 A 
BRANCH  17  24
ATOM     23  C   UNL     1       0.709   8.752  21.625  0.00  0.00    +0.000 C 
ATOM     24  C   UNL     1       1.282   8.004  20.881  0.00  0.00    +0.000 C 
BRANCH  23  26
ATOM     25  O   UNL     1      -0.801  10.446  22.131  0.00  0.00    +0.000 OA
ATOM     26  C   UNL     1       0.063   9.680  22.520  0.00  0.00    +0.000 C 
BRANCH  26  27
ATOM     27  O   UNL     1       0.499   9.608  23.796  0.00  0.00    +0.000 OA
ATOM     28  H   UNL     1      -0.203   9.839  24.432  0.00  0.00    +0.000 HD
ENDBRANCH  26  27
ENDBRANCH  23  26
ENDBRANCH  17  24
ENDBRANCH  16  20
ENDBRANCH   1  16
TORSDOF 9
ENDMDL
MODEL 3
REMARK VINA RESULT:      -7.4      2.998      7.427
REMARK  Name = 
REMARK  9 active torsions:
REMARK  status: ('A' for Active; 'I' for Inactive)
REMARK    1  A    between atoms: C_2  and  O_3
REMARK    2  A    between atoms: C_2  and  C_4
REMARK    3  A    between atoms: C_5  and  C_6
REMARK    4  A    between atoms: C_9  and  O_10
REMARK    5  A    between atoms: O_10  and  C_11
REMARK    6  A    between atoms: C_11  and  C_12
REMARK    7  A    between atoms: C_16  and  O_17
REMARK    8  A    between atoms: O_17  and  C_18
REMARK    9  A    between atoms: C_18  and  C_19
REMARK                            x       y       z     vdW  Elec       q    Type
REMARK                         _______ _______ _______ _____ _____    ______ ____
ROOT
ATOM      1  C   UNL     1       3.144   7.752  17.892  0.00  0.00    +0.000 C 
ENDROOT
BRANCH   1   2
ATOM      2  C   UNL     1       4.136   6.626  17.696  0.00  0.00    +0.000 A 
ATOM      3  C   UNL     1       4.851   6.533  16.493  0.00  0.00    +0.000 A 
ATOM      4  C   UNL     1       5.715   5.464  16.260  0.00  0.00    +0.000 A 
ATOM      5  C   UNL     1       5.891   4.482  17.233  0.00  0.00    +0.000 A 
ATOM      6  C   UNL     1       5.230   4.585  18.458  0.00  0.00    +0.000 A 
ATOM      7  C   UNL     1       4.337   5.642  18.677  0.00  0.00    +0.000 A 
BRANCH   6   8
ATOM      8  O   UNL     1       5.383   3.703  19.496  0.00  0.00    +0.000 OA
BRANCH   8   9
ATOM      9  C   UNL     1       4.703   2.451  19.339  0.00  0.00    +0.000 C 
BRANCH   9  10
ATOM     10  C   UNL     1       3.222   2.653  19.542  0.00  0.00    +0.000 A 
ATOM     11  C   UNL     1       2.311   2.410  18.506  0.00  0.00    +0.000 A 
ATOM     12  C   UNL     1       0.942   2.590  18.717  0.00  0.00    +0.000 A 
ATOM     13  C   UNL     1       0.476   3.003  19.964  0.00  0.00    +0.000 A 
ATOM     14  C   UNL     1       1.372   3.226  21.007  0.00  0.00    +0.000 A 
ATOM     15  C   UNL     1       2.738   3.047  20.798  0.00  0.00    +0.000 A 
ENDBRANCH   9  10
ENDBRANCH   8   9
ENDBRANCH   6   8
ENDBRANCH   1   2
BRANCH   1  16
ATOM     16  O   UNL     1       2.161   7.347  18.847  0.00  0.00    +0.000 OA
BRANCH  16  20
ATOM     17  C   UNL     1       0.402  10.430  21.042  0.00  0.00    +0.000 A 
ATOM     18  C   UNL     1       0.598  10.523  19.666  0.00  0.00    +0.000 A 
ATOM     19  C   UNL     1       1.202   9.469  18.973  0.00  0.00    +0.000 A 
ATOM     20  C   UNL     1       1.637   8.325  19.647  0.00  0.00    +0.000 A 
ATOM     21  C   UNL     1       1.452   8.240  21.029  0.00  0.00    +0.000 A 
ATOM     22  C   UNL     1       0.836   9.292  21.725  0.00  0.00    +0.000 A 
BRANCH  17  24
ATOM     23  C   UNL     1      -0.849  12.326  22.378  0.00  0.00    +0.000 C 
ATOM     24  C   UNL     1      -0.289  11.480  21.737  0.00  0.00    +0.000 C 
BRANCH  23  26
ATOM     25  O   UNL     1      -2.728  13.428  23.193  0.00  0.00    +0.000 OA
ATOM     26  C   UNL     1      -1.514  13.315  23.190  0.00  0.00    +0.000 C 
BRANCH  26  27
ATOM     27  O   UNL     1      -0.676  14.075  23.928  0.00  0.00    +0.000 OA
ATOM     28  H   UNL     1       0.075  14.403  23.399  0.00  0.00    +0.000 HD
ENDBRANCH  26  27
ENDBRANCH  23  26
ENDBRANCH  17  24
ENDBRANCH  16  20
ENDBRANCH   1  16
TORSDOF 9
ENDMDL
MODEL 4
REMARK VINA RESULT:      -7.3      2.935      6.505
REMARK  Name = 
REMARK  9 active torsions:
REMARK  status: ('A' for Active; 'I' for Inactive)
REMARK    1  A    between atoms: C_2  and  O_3
REMARK    2  A    between atoms: C_2  and  C_4
REMARK    3  A    between atoms: C_5  and  C_6
REMARK    4  A    between atoms: C_9  and  O_10
REMARK    5  A    between atoms: O_10  and  C_11
REMARK    6  A    between atoms: C_11  and  C_12
REMARK    7  A    between atoms: C_16  and  O_17
REMARK    8  A    between atoms: O_17  and  C_18
REMARK    9  A    between atoms: C_18  and  C_19
REMARK                            x       y       z     vdW  Elec       q    Type
REMARK                         _______ _______ _______ _____ _____    ______ ____
ROOT
ATOM      1  C   UNL     1       1.134   4.772  20.490  0.00  0.00    +0.000 C 
ENDROOT
BRANCH   1   2
ATOM      2  C   UNL     1       2.104   3.967  19.652  0.00  0.00    +0.000 A 
ATOM      3  C   UNL     1       1.612   3.035  18.726  0.00  0.00    +0.000 A 
ATOM      4  C   UNL     1       2.486   2.230  17.996  0.00  0.00    +0.000 A 
ATOM      5  C   UNL     1       3.863   2.356  18.169  0.00  0.00    +0.000 A 
ATOM      6  C   UNL     1       4.373   3.314  19.046  0.00  0.00    +0.000 A 
ATOM      7  C   UNL     1       3.493   4.099  19.803  0.00  0.00    +0.000 A 
BRANCH   6   8
ATOM      8  O   UNL     1       5.709   3.552  19.240  0.00  0.00    +0.000 OA
BRANCH   8   9
ATOM      9  C   UNL     1       6.144   4.880  18.924  0.00  0.00    +0.000 C 
BRANCH   9  10
ATOM     10  C   UNL     1       6.119   5.076  17.429  0.00  0.00    +0.000 A 
ATOM     11  C   UNL     1       6.963   4.337  16.589  0.00  0.00    +0.000 A 
ATOM     12  C   UNL     1       6.917   4.523  15.206  0.00  0.00    +0.000 A 
ATOM     13  C   UNL     1       6.023   5.440  14.653  0.00  0.00    +0.000 A 
ATOM     14  C   UNL     1       5.165   6.163  15.479  0.00  0.00    +0.000 A 
ATOM     15  C   UNL     1       5.210   5.978  16.859  0.00  0.00    +0.000 A 
ENDBRANCH   9  10
ENDBRANCH   8   9
ENDBRANCH   6   8
ENDBRANCH   1   2
BRANCH   1  16
ATOM     16  O   UNL     1       1.817   5.899  21.041  0.00  0.00    +0.000 OA
BRANCH  16  20
ATOM     17  C   UNL     1       1.042   9.723  19.557  0.00  0.00    +0.000 A 
ATOM     18  C   UNL     1       0.558   9.298  20.793  0.00  0.00    +0.000 A 
ATOM     19  C   UNL     1       0.833   8.004  21.245  0.00  0.00    +0.000 A 
ATOM     20  C   UNL     1       1.572   7.114  20.461  0.00  0.00    +0.000 A 
ATOM     21  C   UNL     1       2.045   7.537  19.217  0.00  0.00    +0.000 A 
ATOM     22  C   UNL     1       1.779   8.840  18.766  0.00  0.00    +0.000 A 
BRANCH  17  24
ATOM     23  C   UNL     1       0.633  12.226  18.844  0.00  0.00    +0.000 C 
ATOM     24  C   UNL     1       0.824  11.076  19.132  0.00  0.00    +0.000 C 
BRANCH  23  26
ATOM     25  O   UNL     1       1.250  14.465  18.725  0.00  0.00    +0.000 OA
ATOM     26  C   UNL     1       0.393  13.617  18.547  0.00  0.00    +0.000 C 
BRANCH  26  27
ATOM     27  O   UNL     1      -0.841  13.870  18.060  0.00  0.00    +0.000 OA
ATOM     28  H   UNL     1      -1.027  14.827  18.026  0.00  0.00    +0.000 HD
ENDBRANCH  26  27
ENDBRANCH  23  26
ENDBRANCH  17  24
ENDBRANCH  16  20
ENDBRANCH   1  16
TORSDOF 9
ENDMDL
MODEL 5
REMARK VINA RESULT:      -7.3      2.977      7.608
REMARK  Name = 
REMARK  9 active torsions:
REMARK  status: ('A' for Active; 'I' for Inactive)
REMARK    1  A    between atoms: C_2  and  O_3
REMARK    2  A    between atoms: C_2  and  C_4
REMARK    3  A    between atoms: C_5  and  C_6
REMARK    4  A    between atoms: C_9  and  O_10
REMARK    5  A    between atoms: O_10  and  C_11
REMARK    6  A    between atoms: C_11  and  C_12
REMARK    7  A    between atoms: C_16  and  O_17
REMARK    8  A    between atoms: O_17  and  C_18
REMARK    9  A    between atoms: C_18  and  C_19
REMARK                            x       y       z     vdW  Elec       q    Type
REMARK                         _______ _______ _______ _____ _____    ______ ____
ROOT
ATOM      1  C   UNL     1       3.174   7.715  17.810  0.00  0.00    +0.000 C 
ENDROOT
BRANCH   1   2
ATOM      2  C   UNL     1       4.142   6.570  17.603  0.00  0.00    +0.000 A 
ATOM      3  C   UNL     1       4.834   6.458  16.387  0.00  0.00    +0.000 A 
ATOM      4  C   UNL     1       5.674   5.372  16.145  0.00  0.00    +0.000 A 
ATOM      5  C   UNL     1       5.849   4.392  17.120  0.00  0.00    +0.000 A 
ATOM      6  C   UNL     1       5.212   4.513  18.356  0.00  0.00    +0.000 A 
ATOM      7  C   UNL     1       4.342   5.587  18.585  0.00  0.00    +0.000 A 
BRANCH   6   8
ATOM      8  O   UNL     1       5.367   3.633  19.395  0.00  0.00    +0.000 OA
BRANCH   8   9
ATOM      9  C   UNL     1       4.660   2.395  19.257  0.00  0.00    +0.000 C 
BRANCH   9  10
ATOM     10  C   UNL     1       3.197   2.614  19.554  0.00  0.00    +0.000 A 
ATOM     11  C   UNL     1       2.773   3.038  20.821  0.00  0.00    +0.000 A 
ATOM     12  C   UNL     1       1.416   3.247  21.073  0.00  0.00    +0.000 A 
ATOM     13  C   UNL     1       0.477   3.045  20.062  0.00  0.00    +0.000 A 
ATOM     14  C   UNL     1       0.892   2.646  18.794  0.00  0.00    +0.000 A 
ATOM     15  C   UNL     1       2.246   2.435  18.540  0.00  0.00    +0.000 A 
ENDBRANCH   9  10
ENDBRANCH   8   9
ENDBRANCH   6   8
ENDBRANCH   1   2
BRANCH   1  16
ATOM     16  O   UNL     1       2.492   7.530  19.051  0.00  0.00    +0.000 OA
BRANCH  16  20
ATOM     17  C   UNL     1      -0.250  10.552  19.927  0.00  0.00    +0.000 A 
ATOM     18  C   UNL     1       0.292  10.395  18.653  0.00  0.00    +0.000 A 
ATOM     19  C   UNL     1       1.217   9.374  18.409  0.00  0.00    +0.000 A 
ATOM     20  C   UNL     1       1.626   8.518  19.434  0.00  0.00    +0.000 A 
ATOM     21  C   UNL     1       1.091   8.687  20.713  0.00  0.00    +0.000 A 
ATOM     22  C   UNL     1       0.155   9.704  20.958  0.00  0.00    +0.000 A 
BRANCH  17  24
ATOM     23  C   UNL     1      -2.127  12.368  20.283  0.00  0.00    +0.000 C 
ATOM     24  C   UNL     1      -1.257  11.550  20.154  0.00  0.00    +0.000 C 
BRANCH  23  26
ATOM     25  O   UNL     1      -3.086  14.319  21.109  0.00  0.00    +0.000 OA
ATOM     26  C   UNL     1      -3.187  13.340  20.390  0.00  0.00    +0.000 C 
BRANCH  26  27
ATOM     27  O   UNL     1      -4.266  13.062  19.627  0.00  0.00    +0.000 OA
ATOM     28  H   UNL     1      -4.011  12.759  18.736  0.00  0.00    +0.000 HD
ENDBRANCH  26  27
ENDBRANCH  23  26
ENDBRANCH  17  24
ENDBRANCH  16  20
ENDBRANCH   1  16
TORSDOF 9
ENDMDL
MODEL 6
REMARK VINA RESULT:      -7.3      3.004      7.330
REMARK  Name = 
REMARK  9 active torsions:
REMARK  status: ('A' for Active; 'I' for Inactive)
REMARK    1  A    between atoms: C_2  and  O_3
REMARK    2  A    between atoms: C_2  and  C_4
REMARK    3  A    between atoms: C_5  and  C_6
REMARK    4  A    between atoms: C_9  and  O_10
REMARK    5  A    between atoms: O_10  and  C_11
REMARK    6  A    between atoms: C_11  and  C_12
REMARK    7  A    between atoms: C_16  and  O_17
REMARK    8  A    between atoms: O_17  and  C_18
REMARK    9  A    between atoms: C_18  and  C_19
REMARK                            x       y       z     vdW  Elec       q    Type
REMARK                         _______ _______ _______ _____ _____    ______ ____
ROOT
ATOM      1  C   UNL     1       3.540   7.948  17.642  0.00  0.00    +0.000 C 
ENDROOT
BRANCH   1   2
ATOM      2  C   UNL     1       4.370   6.694  17.471  0.00  0.00    +0.000 A 
ATOM      3  C   UNL     1       4.988   6.435  16.238  0.00  0.00    +0.000 A 
ATOM      4  C   UNL     1       5.696   5.251  16.034  0.00  0.00    +0.000 A 
ATOM      5  C   UNL     1       5.811   4.319  17.062  0.00  0.00    +0.000 A 
ATOM      6  C   UNL     1       5.249   4.582  18.313  0.00  0.00    +0.000 A 
ATOM      7  C   UNL     1       4.510   5.756  18.506  0.00  0.00    +0.000 A 
BRANCH   6   8
ATOM      8  O   UNL     1       5.358   3.755  19.399  0.00  0.00    +0.000 OA
BRANCH   8   9
ATOM      9  C   UNL     1       4.676   2.500  19.283  0.00  0.00    +0.000 C 
BRANCH   9  10
ATOM     10  C   UNL     1       3.203   2.702  19.537  0.00  0.00    +0.000 A 
ATOM     11  C   UNL     1       2.745   3.226  20.753  0.00  0.00    +0.000 A 
ATOM     12  C   UNL     1       1.378   3.418  20.965  0.00  0.00    +0.000 A 
ATOM     13  C   UNL     1       0.463   3.097  19.963  0.00  0.00    +0.000 A 
ATOM     14  C   UNL     1       0.911   2.596  18.743  0.00  0.00    +0.000 A 
ATOM     15  C   UNL     1       2.275   2.404  18.529  0.00  0.00    +0.000 A 
ENDBRANCH   9  10
ENDBRANCH   8   9
ENDBRANCH   6   8
ENDBRANCH   1   2
BRANCH   1  16
ATOM     16  O   UNL     1       2.202   7.579  17.981  0.00  0.00    +0.000 OA
BRANCH  16  20
ATOM     17  C   UNL     1       0.234  10.190  20.576  0.00  0.00    +0.000 A 
ATOM     18  C   UNL     1       0.893   9.051  21.035  0.00  0.00    +0.000 A 
ATOM     19  C   UNL     1       1.529   8.199  20.127  0.00  0.00    +0.000 A 
ATOM     20  C   UNL     1       1.495   8.459  18.755  0.00  0.00    +0.000 A 
ATOM     21  C   UNL     1       0.822   9.594  18.296  0.00  0.00    +0.000 A 
ATOM     22  C   UNL     1       0.192  10.457  19.207  0.00  0.00    +0.000 A 
BRANCH  17  24
ATOM     23  C   UNL     1      -0.800  11.918  22.277  0.00  0.00    +0.000 C 
ATOM     24  C   UNL     1      -0.351  11.103  21.517  0.00  0.00    +0.000 C 
BRANCH  23  26
ATOM     25  O   UNL     1      -0.594  13.829  23.585  0.00  0.00    +0.000 OA
ATOM     26  C   UNL     1      -1.305  12.930  23.171  0.00  0.00    +0.000 C 
BRANCH  26  27
ATOM     27  O   UNL     1      -2.610  12.783  23.487  0.00  0.00    +0.000 OA
ATOM     28  H   UNL     1      -2.814  13.159  24.363  0.00  0.00    +0.000 HD
ENDBRANCH  26  27
ENDBRANCH  23  26
ENDBRANCH  17  24
ENDBRANCH  16  20
ENDBRANCH   1  16
TORSDOF 9
ENDMDL
MODEL 7
REMARK VINA RESULT:      -7.3      2.986      7.686
REMARK  Name = 
REMARK  9 active torsions:
REMARK  status: ('A' for Active; 'I' for Inactive)
REMARK    1  A    between atoms: C_2  and  O_3
REMARK    2  A    between atoms: C_2  and  C_4
REMARK    3  A    between atoms: C_5  and  C_6
REMARK    4  A    between atoms: C_9  and  O_10
REMARK    5  A    between atoms: O_10  and  C_11
REMARK    6  A    between atoms: C_11  and  C_12
REMARK    7  A    between atoms: C_16  and  O_17
REMARK    8  A    between atoms: O_17  and  C_18
REMARK    9  A    between atoms: C_18  and  C_19
REMARK                            x       y       z     vdW  Elec       q    Type
REMARK                         _______ _______ _______ _____ _____    ______ ____
ROOT
ATOM      1  C   UNL     1       3.256   7.784  17.608  0.00  0.00    +0.000 C 
ENDROOT
BRANCH   1   2
ATOM      2  C   UNL     1       4.220   6.623  17.490  0.00  0.00    +0.000 A 
ATOM      3  C   UNL     1       4.960   6.453  16.310  0.00  0.00    +0.000 A 
ATOM      4  C   UNL     1       5.798   5.350  16.150  0.00  0.00    +0.000 A 
ATOM      5  C   UNL     1       5.923   4.412  17.172  0.00  0.00    +0.000 A 
ATOM      6  C   UNL     1       5.237   4.591  18.374  0.00  0.00    +0.000 A 
ATOM      7  C   UNL     1       4.370   5.681  18.521  0.00  0.00    +0.000 A 
BRANCH   6   8
ATOM      8  O   UNL     1       5.341   3.756  19.455  0.00  0.00    +0.000 OA
BRANCH   8   9
ATOM      9  C   UNL     1       4.675   2.494  19.319  0.00  0.00    +0.000 C 
BRANCH   9  10
ATOM     10  C   UNL     1       3.196   2.678  19.548  0.00  0.00    +0.000 A 
ATOM     11  C   UNL     1       2.266   2.382  18.541  0.00  0.00    +0.000 A 
ATOM     12  C   UNL     1       0.900   2.546  18.776  0.00  0.00    +0.000 A 
ATOM     13  C   UNL     1       0.453   2.996  20.018  0.00  0.00    +0.000 A 
ATOM     14  C   UNL     1       1.368   3.272  21.032  0.00  0.00    +0.000 A 
ATOM     15  C   UNL     1       2.732   3.109  20.799  0.00  0.00    +0.000 A 
ENDBRANCH   9  10
ENDBRANCH   8   9
ENDBRANCH   6   8
ENDBRANCH   1   2
BRANCH   1  16
ATOM     16  O   UNL     1       2.588   7.709  18.869  0.00  0.00    +0.000 OA
BRANCH  16  20
ATOM     17  C   UNL     1      -0.329  10.523  19.865  0.00  0.00    +0.000 A 
ATOM     18  C   UNL     1       0.204   9.648  20.809  0.00  0.00    +0.000 A 
ATOM     19  C   UNL     1       1.172   8.713  20.427  0.00  0.00    +0.000 A 
ATOM     20  C   UNL     1       1.599   8.626  19.099  0.00  0.00    +0.000 A 
ATOM     21  C   UNL     1       1.053   9.495  18.152  0.00  0.00    +0.000 A 
ATOM     22  C   UNL     1       0.089  10.442  18.536  0.00  0.00    +0.000 A 
BRANCH  17  24
ATOM     23  C   UNL     1      -2.071  12.376  20.556  0.00  0.00    +0.000 C 
ATOM     24  C   UNL     1      -1.264  11.532  20.276  0.00  0.00    +0.000 C 
BRANCH  23  26
ATOM     25  O   UNL     1      -3.022  14.039  21.873  0.00  0.00    +0.000 OA
ATOM     26  C   UNL     1      -3.055  13.391  20.842  0.00  0.00    +0.000 C 
BRANCH  26  27
ATOM     27  O   UNL     1      -3.982  13.546  19.873  0.00  0.00    +0.000 OA
ATOM     28  H   UNL     1      -3.820  14.348  19.341  0.00  0.00    +0.000 HD
ENDBRANCH  26  27
ENDBRANCH  23  26
ENDBRANCH  17  24
ENDBRANCH  16  20
ENDBRANCH   1  16
TORSDOF 9
ENDMDL
MODEL 8
REMARK VINA RESULT:      -7.2      2.800      7.416
REMARK  Name = 
REMARK  9 active torsions:
REMARK  status: ('A' for Active; 'I' for Inactive)
REMARK    1  A    between atoms: C_2  and  O_3
REMARK    2  A    between atoms: C_2  and  C_4
REMARK    3  A    between atoms: C_5  and  C_6
REMARK    4  A    between atoms: C_9  and  O_10
REMARK    5  A    between atoms: O_10  and  C_11
REMARK    6  A    between atoms: C_11  and  C_12
REMARK    7  A    between atoms: C_16  and  O_17
REMARK    8  A    between atoms: O_17  and  C_18
REMARK    9  A    between atoms: C_18  and  C_19
REMARK                            x       y       z     vdW  Elec       q    Type
REMARK                         _______ _______ _______ _____ _____    ______ ____
ROOT
ATOM      1  C   UNL     1       3.846   7.597  17.331  0.00  0.00    +0.000 C 
ENDROOT
BRANCH   1   2
ATOM      2  C   UNL     1       4.506   6.314  16.873  0.00  0.00    +0.000 A 
ATOM      3  C   UNL     1       5.596   6.371  15.991  0.00  0.00    +0.000 A 
ATOM      4  C   UNL     1       6.173   5.202  15.498  0.00  0.00    +0.000 A 
ATOM      5  C   UNL     1       5.680   3.959  15.891  0.00  0.00    +0.000 A 
ATOM      6  C   UNL     1       4.631   3.880  16.809  0.00  0.00    +0.000 A 
ATOM      7  C   UNL     1       4.031   5.057  17.278  0.00  0.00    +0.000 A 
BRANCH   6   8
ATOM      8  O   UNL     1       4.118   2.708  17.299  0.00  0.00    +0.000 OA
BRANCH   8   9
ATOM      9  C   UNL     1       2.695   2.688  17.467  0.00  0.00    +0.000 C 
BRANCH   9  10
ATOM     10  C   UNL     1       2.356   2.915  18.919  0.00  0.00    +0.000 A 
ATOM     11  C   UNL     1       1.189   3.595  19.291  0.00  0.00    +0.000 A 
ATOM     12  C   UNL     1       0.885   3.784  20.641  0.00  0.00    +0.000 A 
ATOM     13  C   UNL     1       1.739   3.289  21.626  0.00  0.00    +0.000 A 
ATOM     14  C   UNL     1       2.890   2.592  21.266  0.00  0.00    +0.000 A 
ATOM     15  C   UNL     1       3.195   2.402  19.919  0.00  0.00    +0.000 A 
ENDBRANCH   9  10
ENDBRANCH   8   9
ENDBRANCH   6   8
ENDBRANCH   1   2
BRANCH   1  16
ATOM     16  O   UNL     1       3.084   7.335  18.510  0.00  0.00    +0.000 OA
BRANCH  16  20
ATOM     17  C   UNL     1       0.171  10.053  19.754  0.00  0.00    +0.000 A 
ATOM     18  C   UNL     1       0.671   9.067  20.603  0.00  0.00    +0.000 A 
ATOM     19  C   UNL     1       1.638   8.170  20.139  0.00  0.00    +0.000 A 
ATOM     20  C   UNL     1       2.099   8.232  18.821  0.00  0.00    +0.000 A 
ATOM     21  C   UNL     1       1.586   9.212  17.968  0.00  0.00    +0.000 A 
ATOM     22  C   UNL     1       0.622  10.120  18.435  0.00  0.00    +0.000 A 
BRANCH  17  24
ATOM     23  C   UNL     1      -1.582  11.821  20.619  0.00  0.00    +0.000 C 
ATOM     24  C   UNL     1      -0.764  11.019  20.257  0.00  0.00    +0.000 C 
BRANCH  23  26
ATOM     25  O   UNL     1      -3.216  12.662  22.043  0.00  0.00    +0.000 OA
ATOM     26  C   UNL     1      -2.587  12.780  21.006  0.00  0.00    +0.000 C 
BRANCH  26  27
ATOM     27  O   UNL     1      -2.746  13.794  20.129  0.00  0.00    +0.000 OA
ATOM     28  H   UNL     1      -3.384  14.457  20.454  0.00  0.00    +0.000 HD
ENDBRANCH  26  27
ENDBRANCH  23  26
ENDBRANCH  17  24
ENDBRANCH  16  20
ENDBRANCH   1  16
TORSDOF 9
ENDMDL
MODEL 9
REMARK VINA RESULT:      -7.2      3.003      7.434
REMARK  Name = 
REMARK  9 active torsions:
REMARK  status: ('A' for Active; 'I' for Inactive)
REMARK    1  A    between atoms: C_2  and  O_3
REMARK    2  A    between atoms: C_2  and  C_4
REMARK    3  A    between atoms: C_5  and  C_6
REMARK    4  A    between atoms: C_9  and  O_10
REMARK    5  A    between atoms: O_10  and  C_11
REMARK    6  A    between atoms: C_11  and  C_12
REMARK    7  A    between atoms: C_16  and  O_17
REMARK    8  A    between atoms: O_17  and  C_18
REMARK    9  A    between atoms: C_18  and  C_19
REMARK                            x       y       z     vdW  Elec       q    Type
REMARK                         _______ _______ _______ _____ _____    ______ ____
ROOT
ATOM      1  C   UNL     1       3.872   7.599  17.754  0.00  0.00    +0.000 C 
ENDROOT
BRANCH   1   2
ATOM      2  C   UNL     1       4.377   6.364  17.040  0.00  0.00    +0.000 A 
ATOM      3  C   UNL     1       5.280   6.499  15.974  0.00  0.00    +0.000 A 
ATOM      4  C   UNL     1       5.701   5.382  15.254  0.00  0.00    +0.000 A 
ATOM      5  C   UNL     1       5.241   4.113  15.599  0.00  0.00    +0.000 A 
ATOM      6  C   UNL     1       4.385   3.951  16.689  0.00  0.00    +0.000 A 
ATOM      7  C   UNL     1       3.936   5.078  17.390  0.00  0.00    +0.000 A 
BRANCH   6   8
ATOM      8  O   UNL     1       3.926   2.741  17.139  0.00  0.00    +0.000 OA
BRANCH   8   9
ATOM      9  C   UNL     1       4.333   2.390  18.468  0.00  0.00    +0.000 C 
BRANCH   9  10
ATOM     10  C   UNL     1       3.171   2.564  19.413  0.00  0.00    +0.000 A 
ATOM     11  C   UNL     1       3.376   2.716  20.790  0.00  0.00    +0.000 A 
ATOM     12  C   UNL     1       2.288   2.889  21.649  0.00  0.00    +0.000 A 
ATOM     13  C   UNL     1       0.992   2.921  21.137  0.00  0.00    +0.000 A 
ATOM     14  C   UNL     1       0.779   2.793  19.766  0.00  0.00    +0.000 A 
ATOM     15  C   UNL     1       1.863   2.620  18.908  0.00  0.00    +0.000 A 
ENDBRANCH   9  10
ENDBRANCH   8   9
ENDBRANCH   6   8
ENDBRANCH   1   2
BRANCH   1  16
ATOM     16  O   UNL     1       2.445   7.551  17.816  0.00  0.00    +0.000 OA
BRANCH  16  20
ATOM     17  C   UNL     1       0.432   9.807  20.693  0.00  0.00    +0.000 A 
ATOM     18  C   UNL     1       0.511  10.211  19.362  0.00  0.00    +0.000 A 
ATOM     19  C   UNL     1       1.206   9.428  18.435  0.00  0.00    +0.000 A 
ATOM     20  C   UNL     1       1.847   8.251  18.829  0.00  0.00    +0.000 A 
ATOM     21  C   UNL     1       1.779   7.855  20.166  0.00  0.00    +0.000 A 
ATOM     22  C   UNL     1       1.072   8.634  21.097  0.00  0.00    +0.000 A 
BRANCH  17  24
ATOM     23  C   UNL     1      -1.033  11.241  22.350  0.00  0.00    +0.000 C 
ATOM     24  C   UNL     1      -0.348  10.571  21.625  0.00  0.00    +0.000 C 
BRANCH  23  26
ATOM     25  O   UNL     1      -2.958  11.683  23.576  0.00  0.00    +0.000 OA
ATOM     26  C   UNL     1      -1.873  12.069  23.179  0.00  0.00    +0.000 C 
BRANCH  26  27
ATOM     27  O   UNL     1      -1.342  13.278  23.466  0.00  0.00    +0.000 OA
ATOM     28  H   UNL     1      -0.417  13.346  23.165  0.00  0.00    +0.000 HD
ENDBRANCH  26  27
ENDBRANCH  23  26
ENDBRANCH  17  24
ENDBRANCH  16  20
ENDBRANCH   1  16
TORSDOF 9
ENDMDL
