MODEL 1
REMARK VINA RESULT:      -8.2      0.000      0.000
REMARK  Name = 
REMARK  6 active torsions:
REMARK  status: ('A' for Active; 'I' for Inactive)
REMARK    1  A    between atoms: C_2  and  O_3
REMARK    2  A    between atoms: C_2  and  C_4
REMARK    3  A    between atoms: C_4  and  N_5
REMARK    4  A    between atoms: C_6  and  C_7
REMARK    5  A    between atoms: C_18  and  C_19
REMARK    6  A    between atoms: C_25  and  C_26
REMARK                            x       y       z     vdW  Elec       q    Type
REMARK                         _______ _______ _______ _____ _____    ______ ____
ROOT
ATOM      1  N   UNL     1       2.194   7.188  19.878  0.00  0.00    +0.000 N 
ATOM      2  C   UNL     1       2.551   7.059  18.529  0.00  0.00    +0.000 A 
ATOM      3  C   UNL     1       2.131   8.238  17.927  0.00  0.00    +0.000 A 
ATOM      4  C   UNL     1       1.379   9.015  18.850  0.00  0.00    +0.000 A 
ATOM      5  C   UNL     1       1.432   8.344  20.066  0.00  0.00    +0.000 A 
ENDROOT
BRANCH   2   6
ATOM      6  C   UNL     1       3.222   5.885  17.895  0.00  0.00    +0.000 A 
ATOM      7  C   UNL     1       2.480   4.706  17.709  0.00  0.00    +0.000 A 
ATOM      8  C   UNL     1       2.989   3.618  17.009  0.00  0.00    +0.000 A 
ATOM      9  C   UNL     1       4.296   3.647  16.546  0.00  0.00    +0.000 A 
ATOM     10  C   UNL     1       5.117   4.750  16.798  0.00  0.00    +0.000 A 
ATOM     11  C   UNL     1       6.457   4.697  16.377  0.00  0.00    +0.000 A 
ATOM     12  C   UNL     1       7.331   5.751  16.622  0.00  0.00    +0.000 A 
ATOM     13  C   UNL     1       6.862   6.886  17.261  0.00  0.00    +0.000 A 
ATOM     14  C   UNL     1       5.519   6.964  17.650  0.00  0.00    +0.000 A 
ATOM     15  C   UNL     1       4.599   5.898  17.463  0.00  0.00    +0.000 A 
ENDBRANCH   2   6
BRANCH   4  16
ATOM     16  C   UNL     1       0.656  10.258  18.571  0.00  0.00    +0.000 A 
ATOM     17  C   UNL     1      -0.684  10.211  18.157  0.00  0.00    +0.000 A 
ATOM     18  C   UNL     1      -1.408  11.389  17.933  0.00  0.00    +0.000 A 
ATOM     19  C   UNL     1      -0.805  12.628  18.136  0.00  0.00    +0.000 A 
ATOM     20  C   UNL     1       0.529  12.689  18.534  0.00  0.00    +0.000 A 
ATOM     21  C   UNL     1       1.259  11.514  18.722  0.00  0.00    +0.000 A 
ENDBRANCH   4  16
BRANCH   5  22
ATOM     22  C   UNL     1       0.839   8.692  21.334  0.00  0.00    +0.000 A 
ATOM     23  C   UNL     1      -0.473   8.573  21.761  0.00  0.00    +0.000 A 
ATOM     24  C   UNL     1      -0.548   9.115  23.067  0.00  0.00    +0.000 A 
ATOM     25  C   UNL     1       0.730   9.495  23.389  0.00  0.00    +0.000 A 
ATOM     26  O   UNL     1       1.571   9.257  22.351  0.00  0.00    +0.000 OA
ENDBRANCH   5  22
BRANCH   1  27
ATOM     27  C   UNL     1       2.441   6.199  20.934  0.00  0.00    +0.000 C 
BRANCH  27  29
ATOM     28  O   UNL     1       0.468   4.916  20.437  0.00  0.00    +0.000 OA
ATOM     29  C   UNL     1       1.634   4.922  20.825  0.00  0.00    +0.000 C 
BRANCH  29  30
ATOM     30  O   UNL     1       2.239   3.771  21.194  0.00  0.00    +0.000 OA
ATOM     31  H   UNL     1       2.190   3.560  22.146  0.00  0.00    +0.000 HD
ENDBRANCH  29  30
ENDBRANCH  27  29
ENDBRANCH   1  27
TORSDOF 6
ENDMDL
MODEL 2
REMARK VINA RESULT:      -7.8      1.595      6.998
REMARK  Name = 
REMARK  6 active torsions:
REMARK  status: ('A' for Active; 'I' for Inactive)
REMARK    1  A    between atoms: C_2  and  O_3
REMARK    2  A    between atoms: C_2  and  C_4
REMARK    3  A    between atoms: C_4  and  N_5
REMARK    4  A    between atoms: C_6  and  C_7
REMARK    5  A    between atoms: C_18  and  C_19
REMARK    6  A    between atoms: C_25  and  C_26
REMARK                            x       y       z     vdW  Elec       q    Type
REMARK                         _______ _______ _______ _____ _____    ______ ____
ROOT
ATOM      1  N   UNL     1       2.017   5.872  19.337  0.00  0.00    +0.000 N 
ATOM      2  C   UNL     1       2.206   7.261  19.334  0.00  0.00    +0.000 A 
ATOM      3  C   UNL     1       3.236   7.486  18.430  0.00  0.00    +0.000 A 
ATOM      4  C   UNL     1       3.789   6.248  18.003  0.00  0.00    +0.000 A 
ATOM      5  C   UNL     1       3.011   5.249  18.578  0.00  0.00    +0.000 A 
ENDROOT
BRANCH   2   6
ATOM      6  C   UNL     1       1.459   8.263  20.152  0.00  0.00    +0.000 A 
ATOM      7  C   UNL     1       1.607   8.234  21.549  0.00  0.00    +0.000 A 
ATOM      8  C   UNL     1       1.054   9.211  22.369  0.00  0.00    +0.000 A 
ATOM      9  C   UNL     1       0.258  10.203  21.817  0.00  0.00    +0.000 A 
ATOM     10  C   UNL     1      -0.014  10.217  20.446  0.00  0.00    +0.000 A 
ATOM     11  C   UNL     1      -0.891  11.198  19.949  0.00  0.00    +0.000 A 
ATOM     12  C   UNL     1      -1.223  11.248  18.599  0.00  0.00    +0.000 A 
ATOM     13  C   UNL     1      -0.652  10.338  17.726  0.00  0.00    +0.000 A 
ATOM     14  C   UNL     1       0.252   9.381  18.206  0.00  0.00    +0.000 A 
ATOM     15  C   UNL     1       0.588   9.261  19.581  0.00  0.00    +0.000 A 
ENDBRANCH   2   6
BRANCH   4  16
ATOM     16  C   UNL     1       4.968   6.054  17.156  0.00  0.00    +0.000 A 
ATOM     17  C   UNL     1       6.241   6.396  17.639  0.00  0.00    +0.000 A 
ATOM     18  C   UNL     1       7.386   6.173  16.865  0.00  0.00    +0.000 A 
ATOM     19  C   UNL     1       7.274   5.591  15.604  0.00  0.00    +0.000 A 
ATOM     20  C   UNL     1       6.015   5.259  15.107  0.00  0.00    +0.000 A 
ATOM     21  C   UNL     1       4.872   5.515  15.867  0.00  0.00    +0.000 A 
ENDBRANCH   4  16
BRANCH   5  22
ATOM     22  C   UNL     1       3.133   3.815  18.475  0.00  0.00    +0.000 A 
ATOM     23  C   UNL     1       2.481   2.931  17.632  0.00  0.00    +0.000 A 
ATOM     24  C   UNL     1       2.908   1.624  17.974  0.00  0.00    +0.000 A 
ATOM     25  C   UNL     1       3.832   1.782  18.975  0.00  0.00    +0.000 A 
ATOM     26  O   UNL     1       3.967   3.093  19.294  0.00  0.00    +0.000 OA
ENDBRANCH   5  22
BRANCH   1  27
ATOM     27  C   UNL     1       1.022   5.140  20.128  0.00  0.00    +0.000 C 
BRANCH  27  29
ATOM     28  O   UNL     1       1.099   3.020  21.262  0.00  0.00    +0.000 OA
ATOM     29  C   UNL     1       1.590   4.136  21.111  0.00  0.00    +0.000 C 
BRANCH  29  30
ATOM     30  O   UNL     1       2.658   4.520  21.844  0.00  0.00    +0.000 OA
ATOM     31  H   UNL     1       3.524   4.422  21.403  0.00  0.00    +0.000 HD
ENDBRANCH  29  30
ENDBRANCH  27  29
ENDBRANCH   1  27
TORSDOF 6
ENDMDL
MODEL 3
REMARK VINA RESULT:      -7.6      1.616      6.999
REMARK  Name = 
REMARK  6 active torsions:
REMARK  status: ('A' for Active; 'I' for Inactive)
REMARK    1  A    between atoms: C_2  and  O_3
REMARK    2  A    between atoms: C_2  and  C_4
REMARK    3  A    between atoms: C_4  and  N_5
REMARK    4  A    between atoms: C_6  and  C_7
REMARK    5  A    between atoms: C_18  and  C_19
REMARK    6  A    between atoms: C_25  and  C_26
REMARK                            x       y       z     vdW  Elec       q    Type
REMARK                         _______ _______ _______ _____ _____    ______ ____
ROOT
ATOM      1  N   UNL     1       1.957   5.842  19.332  0.00  0.00    +0.000 N 
ATOM      2  C   UNL     1       2.210   7.219  19.368  0.00  0.00    +0.000 A 
ATOM      3  C   UNL     1       3.271   7.418  18.494  0.00  0.00    +0.000 A 
ATOM      4  C   UNL     1       3.775   6.166  18.048  0.00  0.00    +0.000 A 
ATOM      5  C   UNL     1       2.939   5.192  18.580  0.00  0.00    +0.000 A 
ENDROOT
BRANCH   2   6
ATOM      6  C   UNL     1       1.491   8.235  20.195  0.00  0.00    +0.000 A 
ATOM      7  C   UNL     1       1.651   8.201  21.591  0.00  0.00    +0.000 A 
ATOM      8  C   UNL     1       1.125   9.188  22.417  0.00  0.00    +0.000 A 
ATOM      9  C   UNL     1       0.345  10.197  21.873  0.00  0.00    +0.000 A 
ATOM     10  C   UNL     1       0.060  10.219  20.505  0.00  0.00    +0.000 A 
ATOM     11  C   UNL     1      -0.801  11.217  20.017  0.00  0.00    +0.000 A 
ATOM     12  C   UNL     1      -1.143  11.276  18.670  0.00  0.00    +0.000 A 
ATOM     13  C   UNL     1      -0.599  10.357  17.791  0.00  0.00    +0.000 A 
ATOM     14  C   UNL     1       0.289   9.381  18.261  0.00  0.00    +0.000 A 
ATOM     15  C   UNL     1       0.636   9.252  19.633  0.00  0.00    +0.000 A 
ENDBRANCH   2   6
BRANCH   4  16
ATOM     16  C   UNL     1       4.965   5.938  17.224  0.00  0.00    +0.000 A 
ATOM     17  C   UNL     1       4.836   5.353  15.954  0.00  0.00    +0.000 A 
ATOM     18  C   UNL     1       5.953   5.172  15.131  0.00  0.00    +0.000 A 
ATOM     19  C   UNL     1       7.212   5.587  15.560  0.00  0.00    +0.000 A 
ATOM     20  C   UNL     1       7.356   6.156  16.824  0.00  0.00    +0.000 A 
ATOM     21  C   UNL     1       6.245   6.304  17.658  0.00  0.00    +0.000 A 
ENDBRANCH   4  16
BRANCH   5  22
ATOM     22  C   UNL     1       2.996   3.757  18.443  0.00  0.00    +0.000 A 
ATOM     23  C   UNL     1       3.964   2.865  18.875  0.00  0.00    +0.000 A 
ATOM     24  C   UNL     1       3.580   1.574  18.437  0.00  0.00    +0.000 A 
ATOM     25  C   UNL     1       2.376   1.737  17.801  0.00  0.00    +0.000 A 
ATOM     26  O   UNL     1       2.020   3.047  17.788  0.00  0.00    +0.000 OA
ENDBRANCH   5  22
BRANCH   1  27
ATOM     27  C   UNL     1       0.911   5.137  20.081  0.00  0.00    +0.000 C 
BRANCH  27  29
ATOM     28  O   UNL     1       2.307   4.197  21.799  0.00  0.00    +0.000 OA
ATOM     29  C   UNL     1       1.401   4.027  20.988  0.00  0.00    +0.000 C 
BRANCH  29  30
ATOM     30  O   UNL     1       0.815   2.816  20.859  0.00  0.00    +0.000 OA
ATOM     31  H   UNL     1       0.636   2.347  21.697  0.00  0.00    +0.000 HD
ENDBRANCH  29  30
ENDBRANCH  27  29
ENDBRANCH   1  27
TORSDOF 6
ENDMDL
MODEL 4
REMARK VINA RESULT:      -7.4      0.793      2.204
REMARK  Name = 
REMARK  6 active torsions:
REMARK  status: ('A' for Active; 'I' for Inactive)
REMARK    1  A    between atoms: C_2  and  O_3
REMARK    2  A    between atoms: C_2  and  C_4
REMARK    3  A    between atoms: C_4  and  N_5
REMARK    4  A    between atoms: C_6  and  C_7
REMARK    5  A    between atoms: C_18  and  C_19
REMARK    6  A    between atoms: C_25  and  C_26
REMARK                            x       y       z     vdW  Elec       q    Type
REMARK                         _______ _______ _______ _____ _____    ______ ____
ROOT
ATOM      1  N   UNL     1       2.313   7.555  19.675  0.00  0.00    +0.000 N 
ATOM      2  C   UNL     1       2.637   7.445  18.316  0.00  0.00    +0.000 A 
ATOM      3  C   UNL     1       1.967   8.490  17.694  0.00  0.00    +0.000 A 
ATOM      4  C   UNL     1       1.110   9.140  18.624  0.00  0.00    +0.000 A 
ATOM      5  C   UNL     1       1.341   8.544  19.858  0.00  0.00    +0.000 A 
ENDROOT
BRANCH   2   6
ATOM      6  C   UNL     1       3.506   6.402  17.691  0.00  0.00    +0.000 A 
ATOM      7  C   UNL     1       4.722   6.801  17.110  0.00  0.00    +0.000 A 
ATOM      8  C   UNL     1       5.645   5.880  16.628  0.00  0.00    +0.000 A 
ATOM      9  C   UNL     1       5.337   4.528  16.635  0.00  0.00    +0.000 A 
ATOM     10  C   UNL     1       4.097   4.083  17.099  0.00  0.00    +0.000 A 
ATOM     11  C   UNL     1       3.803   2.710  17.011  0.00  0.00    +0.000 A 
ATOM     12  C   UNL     1       2.575   2.209  17.432  0.00  0.00    +0.000 A 
ATOM     13  C   UNL     1       1.641   3.072  17.978  0.00  0.00    +0.000 A 
ATOM     14  C   UNL     1       1.939   4.435  18.105  0.00  0.00    +0.000 A 
ATOM     15  C   UNL     1       3.160   5.003  17.650  0.00  0.00    +0.000 A 
ENDBRANCH   2   6
BRANCH   4  16
ATOM     16  C   UNL     1       0.142  10.201  18.337  0.00  0.00    +0.000 A 
ATOM     17  C   UNL     1      -1.065   9.893  17.689  0.00  0.00    +0.000 A 
ATOM     18  C   UNL     1      -2.024  10.884  17.450  0.00  0.00    +0.000 A 
ATOM     19  C   UNL     1      -1.796  12.192  17.870  0.00  0.00    +0.000 A 
ATOM     20  C   UNL     1      -0.597  12.515  18.502  0.00  0.00    +0.000 A 
ATOM     21  C   UNL     1       0.374  11.532  18.708  0.00  0.00    +0.000 A 
ENDBRANCH   4  16
BRANCH   5  22
ATOM     22  C   UNL     1       0.739   8.819  21.140  0.00  0.00    +0.000 A 
ATOM     23  C   UNL     1      -0.530   8.517  21.604  0.00  0.00    +0.000 A 
ATOM     24  C   UNL     1      -0.647   9.060  22.907  0.00  0.00    +0.000 A 
ATOM     25  C   UNL     1       0.571   9.625  23.188  0.00  0.00    +0.000 A 
ATOM     26  O   UNL     1       1.408   9.498  22.129  0.00  0.00    +0.000 OA
ENDBRANCH   5  22
BRANCH   1  27
ATOM     27  C   UNL     1       2.792   6.681  20.750  0.00  0.00    +0.000 C 
BRANCH  27  29
ATOM     28  O   UNL     1       0.772   5.379  20.661  0.00  0.00    +0.000 OA
ATOM     29  C   UNL     1       1.949   5.448  21.006  0.00  0.00    +0.000 C 
BRANCH  29  30
ATOM     30  O   UNL     1       2.536   4.418  21.654  0.00  0.00    +0.000 OA
ATOM     31  H   UNL     1       2.996   4.653  22.483  0.00  0.00    +0.000 HD
ENDBRANCH  29  30
ENDBRANCH  27  29
ENDBRANCH   1  27
TORSDOF 6
ENDMDL
MODEL 5
REMARK VINA RESULT:      -7.3      1.851      6.870
REMARK  Name = 
REMARK  6 active torsions:
REMARK  status: ('A' for Active; 'I' for Inactive)
REMARK    1  A    between atoms: C_2  and  O_3
REMARK    2  A    between atoms: C_2  and  C_4
REMARK    3  A    between atoms: C_4  and  N_5
REMARK    4  A    between atoms: C_6  and  C_7
REMARK    5  A    between atoms: C_18  and  C_19
REMARK    6  A    between atoms: C_25  and  C_26
REMARK                            x       y       z     vdW  Elec       q    Type
REMARK                         _______ _______ _______ _____ _____    ______ ____
ROOT
ATOM      1  N   UNL     1       2.547   5.478  19.635  0.00  0.00    +0.000 N 
ATOM      2  C   UNL     1       2.475   6.824  19.253  0.00  0.00    +0.000 A 
ATOM      3  C   UNL     1       3.259   6.921  18.111  0.00  0.00    +0.000 A 
ATOM      4  C   UNL     1       3.939   5.694  17.880  0.00  0.00    +0.000 A 
ATOM      5  C   UNL     1       3.478   4.802  18.842  0.00  0.00    +0.000 A 
ENDROOT
BRANCH   2   6
ATOM      6  C   UNL     1       1.724   7.909  19.953  0.00  0.00    +0.000 A 
ATOM      7  C   UNL     1       1.068   7.602  21.157  0.00  0.00    +0.000 A 
ATOM      8  C   UNL     1       0.461   8.582  21.936  0.00  0.00    +0.000 A 
ATOM      9  C   UNL     1       0.419   9.892  21.484  0.00  0.00    +0.000 A 
ATOM     10  C   UNL     1       0.959  10.235  20.242  0.00  0.00    +0.000 A 
ATOM     11  C   UNL     1       0.820  11.561  19.795  0.00  0.00    +0.000 A 
ATOM     12  C   UNL     1       1.313  11.958  18.555  0.00  0.00    +0.000 A 
ATOM     13  C   UNL     1       1.981  11.039  17.765  0.00  0.00    +0.000 A 
ATOM     14  C   UNL     1       2.157   9.725  18.218  0.00  0.00    +0.000 A 
ATOM     15  C   UNL     1       1.635   9.260  19.455  0.00  0.00    +0.000 A 
ENDBRANCH   2   6
BRANCH   4  16
ATOM     16  C   UNL     1       4.954   5.426  16.859  0.00  0.00    +0.000 A 
ATOM     17  C   UNL     1       6.238   5.979  16.986  0.00  0.00    +0.000 A 
ATOM     18  C   UNL     1       7.238   5.696  16.047  0.00  0.00    +0.000 A 
ATOM     19  C   UNL     1       6.969   4.844  14.978  0.00  0.00    +0.000 A 
ATOM     20  C   UNL     1       5.695   4.301  14.832  0.00  0.00    +0.000 A 
ATOM     21  C   UNL     1       4.689   4.612  15.750  0.00  0.00    +0.000 A 
ENDBRANCH   4  16
BRANCH   5  22
ATOM     22  C   UNL     1       3.838   3.422  19.064  0.00  0.00    +0.000 A 
ATOM     23  C   UNL     1       3.472   2.288  18.359  0.00  0.00    +0.000 A 
ATOM     24  C   UNL     1       4.042   1.173  19.020  0.00  0.00    +0.000 A 
ATOM     25  C   UNL     1       4.764   1.687  20.067  0.00  0.00    +0.000 A 
ATOM     26  O   UNL     1       4.640   3.037  20.111  0.00  0.00    +0.000 OA
ENDBRANCH   5  22
BRANCH   1  27
ATOM     27  C   UNL     1       1.869   4.871  20.785  0.00  0.00    +0.000 C 
BRANCH  27  29
ATOM     28  O   UNL     1       0.369   3.576  19.420  0.00  0.00    +0.000 OA
ATOM     29  C   UNL     1       1.008   3.665  20.466  0.00  0.00    +0.000 C 
BRANCH  29  30
ATOM     30  O   UNL     1       0.948   2.682  21.391  0.00  0.00    +0.000 OA
ATOM     31  H   UNL     1       0.047   2.399  21.642  0.00  0.00    +0.000 HD
ENDBRANCH  29  30
ENDBRANCH  27  29
ENDBRANCH   1  27
TORSDOF 6
ENDMDL
MODEL 6
REMARK VINA RESULT:      -7.1      4.107      9.507
REMARK  Name = 
REMARK  6 active torsions:
REMARK  status: ('A' for Active; 'I' for Inactive)
REMARK    1  A    between atoms: C_2  and  O_3
REMARK    2  A    between atoms: C_2  and  C_4
REMARK    3  A    between atoms: C_4  and  N_5
REMARK    4  A    between atoms: C_6  and  C_7
REMARK    5  A    between atoms: C_18  and  C_19
REMARK    6  A    between atoms: C_25  and  C_26
REMARK                            x       y       z     vdW  Elec       q    Type
REMARK                         _______ _______ _______ _____ _____    ______ ____
ROOT
ATOM      1  N   UNL     1      -0.681  12.924  21.264  0.00  0.00    +0.000 N 
ATOM      2  C   UNL     1      -1.657  12.003  21.670  0.00  0.00    +0.000 A 
ATOM      3  C   UNL     1      -1.169  10.761  21.286  0.00  0.00    +0.000 A 
ATOM      4  C   UNL     1       0.012  10.920  20.510  0.00  0.00    +0.000 A 
ATOM      5  C   UNL     1       0.303  12.279  20.509  0.00  0.00    +0.000 A 
ENDROOT
BRANCH   2   6
ATOM      6  C   UNL     1      -2.949  12.319  22.350  0.00  0.00    +0.000 A 
ATOM      7  C   UNL     1      -3.005  12.245  23.753  0.00  0.00    +0.000 A 
ATOM      8  C   UNL     1      -4.128  12.650  24.467  0.00  0.00    +0.000 A 
ATOM      9  C   UNL     1      -5.265  13.061  23.788  0.00  0.00    +0.000 A 
ATOM     10  C   UNL     1      -5.303  13.050  22.391  0.00  0.00    +0.000 A 
ATOM     11  C   UNL     1      -6.506  13.400  21.752  0.00  0.00    +0.000 A 
ATOM     12  C   UNL     1      -6.616  13.382  20.365  0.00  0.00    +0.000 A 
ATOM     13  C   UNL     1      -5.512  13.047  19.602  0.00  0.00    +0.000 A 
ATOM     14  C   UNL     1      -4.298  12.733  20.227  0.00  0.00    +0.000 A 
ATOM     15  C   UNL     1      -4.147  12.694  21.640  0.00  0.00    +0.000 A 
ENDBRANCH   2   6
BRANCH   4  16
ATOM     16  C   UNL     1       0.756   9.869  19.812  0.00  0.00    +0.000 A 
ATOM     17  C   UNL     1       0.988   9.973  18.432  0.00  0.00    +0.000 A 
ATOM     18  C   UNL     1       1.739   9.005  17.755  0.00  0.00    +0.000 A 
ATOM     19  C   UNL     1       2.281   7.928  18.453  0.00  0.00    +0.000 A 
ATOM     20  C   UNL     1       2.047   7.805  19.822  0.00  0.00    +0.000 A 
ATOM     21  C   UNL     1       1.268   8.754  20.488  0.00  0.00    +0.000 A 
ENDBRANCH   4  16
BRANCH   5  22
ATOM     22  C   UNL     1       1.389  12.986  19.874  0.00  0.00    +0.000 A 
ATOM     23  C   UNL     1       1.543  13.367  18.552  0.00  0.00    +0.000 A 
ATOM     24  C   UNL     1       2.814  13.980  18.431  0.00  0.00    +0.000 A 
ATOM     25  C   UNL     1       3.350  13.984  19.693  0.00  0.00    +0.000 A 
ATOM     26  O   UNL     1       2.508  13.379  20.567  0.00  0.00    +0.000 OA
ENDBRANCH   5  22
BRANCH   1  27
ATOM     27  C   UNL     1      -0.731  14.376  21.460  0.00  0.00    +0.000 C 
BRANCH  27  29
ATOM     28  O   UNL     1      -0.598  14.949  23.793  0.00  0.00    +0.000 OA
ATOM     29  C   UNL     1      -0.032  14.885  22.704  0.00  0.00    +0.000 C 
BRANCH  29  30
ATOM     30  O   UNL     1       1.250  15.294  22.573  0.00  0.00    +0.000 OA
ATOM     31  H   UNL     1       1.436  15.836  21.781  0.00  0.00    +0.000 HD
ENDBRANCH  29  30
ENDBRANCH  27  29
ENDBRANCH   1  27
TORSDOF 6
ENDMDL
MODEL 7
REMARK VINA RESULT:      -7.0      1.125      6.972
REMARK  Name = 
REMARK  6 active torsions:
REMARK  status: ('A' for Active; 'I' for Inactive)
REMARK    1  A    between atoms: C_2  and  O_3
REMARK    2  A    between atoms: C_2  and  C_4
REMARK    3  A    between atoms: C_4  and  N_5
REMARK    4  A    between atoms: C_6  and  C_7
REMARK    5  A    between atoms: C_18  and  C_19
REMARK    6  A    between atoms: C_25  and  C_26
REMARK                            x       y       z     vdW  Elec       q    Type
REMARK                         _______ _______ _______ _____ _____    ______ ____
ROOT
ATOM      1  N   UNL     1       1.254   7.787  19.685  0.00  0.00    +0.000 N 
ATOM      2  C   UNL     1       1.592   8.861  18.850  0.00  0.00    +0.000 A 
ATOM      3  C   UNL     1       2.472   8.333  17.915  0.00  0.00    +0.000 A 
ATOM      4  C   UNL     1       2.804   6.995  18.260  0.00  0.00    +0.000 A 
ATOM      5  C   UNL     1       2.031   6.669  19.367  0.00  0.00    +0.000 A 
ENDROOT
BRANCH   2   6
ATOM      6  C   UNL     1       1.110  10.269  18.974  0.00  0.00    +0.000 A 
ATOM      7  C   UNL     1       1.989  11.238  19.487  0.00  0.00    +0.000 A 
ATOM      8  C   UNL     1       1.664  12.590  19.509  0.00  0.00    +0.000 A 
ATOM      9  C   UNL     1       0.406  13.003  19.096  0.00  0.00    +0.000 A 
ATOM     10  C   UNL     1      -0.548  12.071  18.680  0.00  0.00    +0.000 A 
ATOM     11  C   UNL     1      -1.834  12.533  18.347  0.00  0.00    +0.000 A 
ATOM     12  C   UNL     1      -2.835  11.651  17.952  0.00  0.00    +0.000 A 
ATOM     13  C   UNL     1      -2.550  10.301  17.851  0.00  0.00    +0.000 A 
ATOM     14  C   UNL     1      -1.261   9.835  18.144  0.00  0.00    +0.000 A 
ATOM     15  C   UNL     1      -0.218  10.688  18.594  0.00  0.00    +0.000 A 
ENDBRANCH   2   6
BRANCH   4  16
ATOM     16  C   UNL     1       3.794   6.136  17.606  0.00  0.00    +0.000 A 
ATOM     17  C   UNL     1       3.504   4.782  17.373  0.00  0.00    +0.000 A 
ATOM     18  C   UNL     1       4.416   3.956  16.706  0.00  0.00    +0.000 A 
ATOM     19  C   UNL     1       5.624   4.477  16.249  0.00  0.00    +0.000 A 
ATOM     20  C   UNL     1       5.932   5.816  16.485  0.00  0.00    +0.000 A 
ATOM     21  C   UNL     1       5.035   6.629  17.182  0.00  0.00    +0.000 A 
ENDBRANCH   4  16
BRANCH   5  22
ATOM     22  C   UNL     1       1.974   5.440  20.120  0.00  0.00    +0.000 A 
ATOM     23  C   UNL     1       1.073   4.391  20.036  0.00  0.00    +0.000 A 
ATOM     24  C   UNL     1       1.419   3.451  21.037  0.00  0.00    +0.000 A 
ATOM     25  C   UNL     1       2.539   3.951  21.650  0.00  0.00    +0.000 A 
ATOM     26  O   UNL     1       2.876   5.152  21.116  0.00  0.00    +0.000 OA
ENDBRANCH   5  22
BRANCH   1  27
ATOM     27  C   UNL     1       0.334   7.838  20.826  0.00  0.00    +0.000 C 
BRANCH  27  29
ATOM     28  O   UNL     1      -0.061   9.550  22.469  0.00  0.00    +0.000 OA
ATOM     29  C   UNL     1       0.738   8.780  21.941  0.00  0.00    +0.000 C 
BRANCH  29  30
ATOM     30  O   UNL     1       2.032   8.763  22.331  0.00  0.00    +0.000 OA
ATOM     31  H   UNL     1       2.295   7.992  22.871  0.00  0.00    +0.000 HD
ENDBRANCH  29  30
ENDBRANCH  27  29
ENDBRANCH   1  27
TORSDOF 6
ENDMDL
MODEL 8
REMARK VINA RESULT:      -7.0      8.064     11.055
REMARK  Name = 
REMARK  6 active torsions:
REMARK  status: ('A' for Active; 'I' for Inactive)
REMARK    1  A    between atoms: C_2  and  O_3
REMARK    2  A    between atoms: C_2  and  C_4
REMARK    3  A    between atoms: C_4  and  N_5
REMARK    4  A    between atoms: C_6  and  C_7
REMARK    5  A    between atoms: C_18  and  C_19
REMARK    6  A    between atoms: C_25  and  C_26
REMARK                            x       y       z     vdW  Elec       q    Type
REMARK                         _______ _______ _______ _____ _____    ______ ____
ROOT
ATOM      1  N   UNL     1       7.550  13.980  22.467  0.00  0.00    +0.000 N 
ATOM      2  C   UNL     1       7.868  12.843  23.221  0.00  0.00    +0.000 A 
ATOM      3  C   UNL     1       8.863  12.195  22.502  0.00  0.00    +0.000 A 
ATOM      4  C   UNL     1       9.045  12.828  21.242  0.00  0.00    +0.000 A 
ATOM      5  C   UNL     1       8.218  13.945  21.239  0.00  0.00    +0.000 A 
ENDROOT
BRANCH   2   6
ATOM      6  C   UNL     1       7.242  12.428  24.512  0.00  0.00    +0.000 A 
ATOM      7  C   UNL     1       6.162  11.528  24.477  0.00  0.00    +0.000 A 
ATOM      8  C   UNL     1       5.612  10.992  25.636  0.00  0.00    +0.000 A 
ATOM      9  C   UNL     1       6.074  11.410  26.874  0.00  0.00    +0.000 A 
ATOM     10  C   UNL     1       7.070  12.385  26.971  0.00  0.00    +0.000 A 
ATOM     11  C   UNL     1       7.446  12.832  28.251  0.00  0.00    +0.000 A 
ATOM     12  C   UNL     1       8.412  13.820  28.412  0.00  0.00    +0.000 A 
ATOM     13  C   UNL     1       9.038  14.346  27.295  0.00  0.00    +0.000 A 
ATOM     14  C   UNL     1       8.698  13.880  26.019  0.00  0.00    +0.000 A 
ATOM     15  C   UNL     1       7.687  12.906  25.799  0.00  0.00    +0.000 A 
ENDBRANCH   2   6
BRANCH   4  16
ATOM     16  C   UNL     1       9.903  12.377  20.144  0.00  0.00    +0.000 A 
ATOM     17  C   UNL     1      11.295  12.332  20.315  0.00  0.00    +0.000 A 
ATOM     18  C   UNL     1      12.129  11.857  19.295  0.00  0.00    +0.000 A 
ATOM     19  C   UNL     1      11.579  11.408  18.097  0.00  0.00    +0.000 A 
ATOM     20  C   UNL     1      10.200  11.461  17.908  0.00  0.00    +0.000 A 
ATOM     21  C   UNL     1       9.373  11.967  18.913  0.00  0.00    +0.000 A 
ENDBRANCH   4  16
BRANCH   5  22
ATOM     22  C   UNL     1       8.013  14.936  20.210  0.00  0.00    +0.000 A 
ATOM     23  C   UNL     1       8.773  16.048  19.889  0.00  0.00    +0.000 A 
ATOM     24  C   UNL     1       8.109  16.729  18.841  0.00  0.00    +0.000 A 
ATOM     25  C   UNL     1       7.003  15.974  18.544  0.00  0.00    +0.000 A 
ATOM     26  O   UNL     1       6.928  14.900  19.369  0.00  0.00    +0.000 OA
ENDBRANCH   5  22
BRANCH   1  27
ATOM     27  C   UNL     1       6.557  15.000  22.821  0.00  0.00    +0.000 C 
BRANCH  27  29
ATOM     28  O   UNL     1       4.310  14.419  23.454  0.00  0.00    +0.000 OA
ATOM     29  C   UNL     1       5.115  14.620  22.548  0.00  0.00    +0.000 C 
BRANCH  29  30
ATOM     30  O   UNL     1       4.742  14.487  21.257  0.00  0.00    +0.000 OA
ATOM     31  H   UNL     1       5.470  14.514  20.606  0.00  0.00    +0.000 HD
ENDBRANCH  29  30
ENDBRANCH  27  29
ENDBRANCH   1  27
TORSDOF 6
ENDMDL
MODEL 9
REMARK VINA RESULT:      -7.0      4.349      9.634
REMARK  Name = 
REMARK  6 active torsions:
REMARK  status: ('A' for Active; 'I' for Inactive)
REMARK    1  A    between atoms: C_2  and  O_3
REMARK    2  A    between atoms: C_2  and  C_4
REMARK    3  A    between atoms: C_4  and  N_5
REMARK    4  A    between atoms: C_6  and  C_7
REMARK    5  A    between atoms: C_18  and  C_19
REMARK    6  A    between atoms: C_25  and  C_26
REMARK                            x       y       z     vdW  Elec       q    Type
REMARK                         _______ _______ _______ _____ _____    ______ ____
ROOT
ATOM      1  N   UNL     1      -0.703  13.076  21.323  0.00  0.00    +0.000 N 
ATOM      2  C   UNL     1      -1.663  12.125  21.693  0.00  0.00    +0.000 A 
ATOM      3  C   UNL     1      -1.138  10.902  21.296  0.00  0.00    +0.000 A 
ATOM      4  C   UNL     1       0.052  11.104  20.544  0.00  0.00    +0.000 A 
ATOM      5  C   UNL     1       0.310  12.469  20.574  0.00  0.00    +0.000 A 
ENDROOT
BRANCH   2   6
ATOM      6  C   UNL     1      -2.974  12.397  22.356  0.00  0.00    +0.000 A 
ATOM      7  C   UNL     1      -3.036  12.366  23.760  0.00  0.00    +0.000 A 
ATOM      8  C   UNL     1      -4.183  12.737  24.454  0.00  0.00    +0.000 A 
ATOM      9  C   UNL     1      -5.334  13.067  23.755  0.00  0.00    +0.000 A 
ATOM     10  C   UNL     1      -5.363  13.008  22.360  0.00  0.00    +0.000 A 
ATOM     11  C   UNL     1      -6.577  13.275  21.703  0.00  0.00    +0.000 A 
ATOM     12  C   UNL     1      -6.676  13.206  20.317  0.00  0.00    +0.000 A 
ATOM     13  C   UNL     1      -5.551  12.903  19.571  0.00  0.00    +0.000 A 
ATOM     14  C   UNL     1      -4.327  12.672  20.213  0.00  0.00    +0.000 A 
ATOM     15  C   UNL     1      -4.185  12.687  21.627  0.00  0.00    +0.000 A 
ENDBRANCH   2   6
BRANCH   4  16
ATOM     16  C   UNL     1       0.834  10.084  19.841  0.00  0.00    +0.000 A 
ATOM     17  C   UNL     1       1.212   8.908  20.507  0.00  0.00    +0.000 A 
ATOM     18  C   UNL     1       1.917   7.900  19.839  0.00  0.00    +0.000 A 
ATOM     19  C   UNL     1       2.239   8.049  18.492  0.00  0.00    +0.000 A 
ATOM     20  C   UNL     1       1.882   9.217  17.822  0.00  0.00    +0.000 A 
ATOM     21  C   UNL     1       1.209  10.237  18.500  0.00  0.00    +0.000 A 
ENDBRANCH   4  16
BRANCH   5  22
ATOM     22  C   UNL     1       1.389  13.214  19.972  0.00  0.00    +0.000 A 
ATOM     23  C   UNL     1       2.651  13.501  20.468  0.00  0.00    +0.000 A 
ATOM     24  C   UNL     1       3.307  14.316  19.514  0.00  0.00    +0.000 A 
ATOM     25  C   UNL     1       2.432  14.447  18.467  0.00  0.00    +0.000 A 
ATOM     26  O   UNL     1       1.271  13.799  18.735  0.00  0.00    +0.000 OA
ENDBRANCH   5  22
BRANCH   1  27
ATOM     27  C   UNL     1      -0.791  14.523  21.544  0.00  0.00    +0.000 C 
BRANCH  27  29
ATOM     28  O   UNL     1      -2.732  15.761  20.847  0.00  0.00    +0.000 OA
ATOM     29  C   UNL     1      -1.643  15.279  20.545  0.00  0.00    +0.000 C 
BRANCH  29  30
ATOM     30  O   UNL     1      -1.170  15.391  19.285  0.00  0.00    +0.000 OA
ATOM     31  H   UNL     1      -1.799  15.143  18.579  0.00  0.00    +0.000 HD
ENDBRANCH  29  30
ENDBRANCH  27  29
ENDBRANCH   1  27
TORSDOF 6
ENDMDL
