MODEL 1
REMARK VINA RESULT:      -7.7      0.000      0.000
REMARK  Name = 
REMARK  11 active torsions:
REMARK  status: ('A' for Active; 'I' for Inactive)
REMARK    1  A    between atoms: C_1  and  C_2
REMARK    2  A    between atoms: C_2  and  O_3
REMARK    3  A    between atoms: O_3  and  C_4
REMARK    4  A    between atoms: C_4  and  C_6
REMARK    5  A    between atoms: C_6  and  N_7
REMARK    6  A    between atoms: N_8  and  C_9
REMARK    7  A    between atoms: C_10  and  C_11
REMARK    8  A    between atoms: N_12  and  C_13
REMARK    9  A    between atoms: N_14  and  C_15
REMARK   10  A    between atoms: C_23  and  O_24
REMARK   11  A    between atoms: C_23  and  C_25
REMARK                            x       y       z     vdW  Elec       q    Type
REMARK                         _______ _______ _______ _____ _____    ______ ____
ROOT
ATOM      1  N   UNL     1       1.711   8.267  19.558  0.00  0.00    +0.000 NA
ATOM      2  N   UNL     1       1.867   7.217  20.208  0.00  0.00    +0.000 NA
ENDROOT
BRANCH   2   3
ATOM      3  C   UNL     1       2.586   6.227  19.598  0.00  0.00    +0.000 A 
ATOM      4  C   UNL     1       2.757   4.950  19.998  0.00  0.00    +0.000 A 
ATOM      5  C   UNL     1       2.216   4.354  21.256  0.00  0.00    +0.000 C 
ATOM      6  N   UNL     1       3.504   4.199  19.089  0.00  0.00    +0.000 N 
ATOM      7  C   UNL     1       4.259   2.989  19.387  0.00  0.00    +0.000 C 
ATOM      8  N   UNL     1       3.951   5.095  18.094  0.00  0.00    +0.000 N 
ATOM      9  C   UNL     1       3.480   6.380  18.400  0.00  0.00    +0.000 A 
ATOM     10  O   UNL     1       3.723   7.433  17.834  0.00  0.00    +0.000 OA
BRANCH   8  11
ATOM     11  C   UNL     1       5.006   4.783  17.223  0.00  0.00    +0.000 A 
ATOM     12  C   UNL     1       4.762   4.271  15.945  0.00  0.00    +0.000 A 
ATOM     13  C   UNL     1       5.830   3.986  15.091  0.00  0.00    +0.000 A 
ATOM     14  C   UNL     1       7.143   4.165  15.528  0.00  0.00    +0.000 A 
ATOM     15  C   UNL     1       7.391   4.650  16.811  0.00  0.00    +0.000 A 
ATOM     16  C   UNL     1       6.326   4.978  17.650  0.00  0.00    +0.000 A 
ENDBRANCH   8  11
ENDBRANCH   2   3
BRANCH   1  17
ATOM     17  C   UNL     1       1.035   9.336  20.121  0.00  0.00    +0.000 C 
ATOM     18  C   UNL     1       0.498  10.252  19.280  0.00  0.00    +0.000 C 
BRANCH  18  19
ATOM     19  C   UNL     1      -0.224  11.488  19.651  0.00  0.00    +0.000 A 
ATOM     20  C   UNL     1       0.484  12.613  20.089  0.00  0.00    +0.000 A 
ATOM     21  C   UNL     1      -0.190  13.798  20.412  0.00  0.00    +0.000 A 
ATOM     22  C   UNL     1      -1.578  13.863  20.294  0.00  0.00    +0.000 A 
ATOM     23  C   UNL     1      -2.290  12.752  19.853  0.00  0.00    +0.000 A 
ATOM     24  C   UNL     1      -1.619  11.571  19.526  0.00  0.00    +0.000 A 
ENDBRANCH  18  19
BRANCH  17  25
ATOM     25  C   UNL     1       0.884   9.527  21.610  0.00  0.00    +0.000 C 
ATOM     26  O   UNL     1       1.792   9.770  22.388  0.00  0.00    +0.000 OA
BRANCH  25  27
ATOM     27  O   UNL     1      -0.409   9.318  21.985  0.00  0.00    +0.000 OA
BRANCH  27  29
ATOM     28  C   UNL     1      -1.361  11.270  23.115  0.00  0.00    +0.000 C 
ATOM     29  C   UNL     1      -0.809   9.863  23.248  0.00  0.00    +0.000 C 
ENDBRANCH  27  29
ENDBRANCH  25  27
ENDBRANCH  17  25
BRANCH  18  30
ATOM     30  O   UNL     1       0.630  10.135  17.900  0.00  0.00    +0.000 OA
ATOM     31  H   UNL     1      -0.079  10.662  17.485  0.00  0.00    +0.000 HD
ENDBRANCH  18  30
ENDBRANCH   1  17
TORSDOF 8
ENDMDL
MODEL 2
REMARK VINA RESULT:      -7.7      0.083      1.249
REMARK  Name = 
REMARK  11 active torsions:
REMARK  status: ('A' for Active; 'I' for Inactive)
REMARK    1  A    between atoms: C_1  and  C_2
REMARK    2  A    between atoms: C_2  and  O_3
REMARK    3  A    between atoms: O_3  and  C_4
REMARK    4  A    between atoms: C_4  and  C_6
REMARK    5  A    between atoms: C_6  and  N_7
REMARK    6  A    between atoms: N_8  and  C_9
REMARK    7  A    between atoms: C_10  and  C_11
REMARK    8  A    between atoms: N_12  and  C_13
REMARK    9  A    between atoms: N_14  and  C_15
REMARK   10  A    between atoms: C_23  and  O_24
REMARK   11  A    between atoms: C_23  and  C_25
REMARK                            x       y       z     vdW  Elec       q    Type
REMARK                         _______ _______ _______ _____ _____    ______ ____
ROOT
ATOM      1  N   UNL     1       1.768   8.314  19.568  0.00  0.00    +0.000 NA
ATOM      2  N   UNL     1       1.752   7.203  20.129  0.00  0.00    +0.000 NA
ENDROOT
BRANCH   2   3
ATOM      3  C   UNL     1       2.518   6.224  19.560  0.00  0.00    +0.000 A 
ATOM      4  C   UNL     1       2.732   4.966  20.000  0.00  0.00    +0.000 A 
ATOM      5  C   UNL     1       2.195   4.388  21.268  0.00  0.00    +0.000 C 
ATOM      6  N   UNL     1       3.521   4.219  19.125  0.00  0.00    +0.000 N 
ATOM      7  C   UNL     1       4.316   3.048  19.470  0.00  0.00    +0.000 C 
ATOM      8  N   UNL     1       3.948   5.102  18.110  0.00  0.00    +0.000 N 
ATOM      9  C   UNL     1       3.423   6.375  18.370  0.00  0.00    +0.000 A 
ATOM     10  O   UNL     1       3.634   7.421  17.776  0.00  0.00    +0.000 OA
BRANCH   8  11
ATOM     11  C   UNL     1       5.027   4.805  17.263  0.00  0.00    +0.000 A 
ATOM     12  C   UNL     1       6.345   5.051  17.658  0.00  0.00    +0.000 A 
ATOM     13  C   UNL     1       7.402   4.729  16.804  0.00  0.00    +0.000 A 
ATOM     14  C   UNL     1       7.144   4.205  15.537  0.00  0.00    +0.000 A 
ATOM     15  C   UNL     1       5.829   3.982  15.129  0.00  0.00    +0.000 A 
ATOM     16  C   UNL     1       4.774   4.262  15.997  0.00  0.00    +0.000 A 
ENDBRANCH   8  11
ENDBRANCH   2   3
BRANCH   1  17
ATOM     17  C   UNL     1       1.058   9.372  20.106  0.00  0.00    +0.000 C 
ATOM     18  C   UNL     1       0.502  10.258  19.246  0.00  0.00    +0.000 C 
BRANCH  18  19
ATOM     19  C   UNL     1      -0.257  11.480  19.590  0.00  0.00    +0.000 A 
ATOM     20  C   UNL     1      -1.651  11.502  19.468  0.00  0.00    +0.000 A 
ATOM     21  C   UNL     1      -2.379  12.645  19.823  0.00  0.00    +0.000 A 
ATOM     22  C   UNL     1      -1.715  13.771  20.305  0.00  0.00    +0.000 A 
ATOM     23  C   UNL     1      -0.329  13.757  20.437  0.00  0.00    +0.000 A 
ATOM     24  C   UNL     1       0.398  12.616  20.088  0.00  0.00    +0.000 A 
ENDBRANCH  18  19
BRANCH  17  25
ATOM     25  C   UNL     1       0.888   9.584  21.591  0.00  0.00    +0.000 C 
ATOM     26  O   UNL     1       1.783   9.865  22.372  0.00  0.00    +0.000 OA
BRANCH  25  27
ATOM     27  O   UNL     1      -0.401   9.346  21.959  0.00  0.00    +0.000 OA
BRANCH  27  29
ATOM     28  C   UNL     1      -1.435  11.225  23.140  0.00  0.00    +0.000 C 
ATOM     29  C   UNL     1      -0.809   9.847  23.238  0.00  0.00    +0.000 C 
ENDBRANCH  27  29
ENDBRANCH  25  27
ENDBRANCH  17  25
BRANCH  18  30
ATOM     30  O   UNL     1       0.649  10.122  17.869  0.00  0.00    +0.000 OA
ATOM     31  H   UNL     1       1.247  10.828  17.561  0.00  0.00    +0.000 HD
ENDBRANCH  18  30
ENDBRANCH   1  17
TORSDOF 8
ENDMDL
MODEL 3
REMARK VINA RESULT:      -7.6      2.079      8.871
REMARK  Name = 
REMARK  11 active torsions:
REMARK  status: ('A' for Active; 'I' for Inactive)
REMARK    1  A    between atoms: C_1  and  C_2
REMARK    2  A    between atoms: C_2  and  O_3
REMARK    3  A    between atoms: O_3  and  C_4
REMARK    4  A    between atoms: C_4  and  C_6
REMARK    5  A    between atoms: C_6  and  N_7
REMARK    6  A    between atoms: N_8  and  C_9
REMARK    7  A    between atoms: C_10  and  C_11
REMARK    8  A    between atoms: N_12  and  C_13
REMARK    9  A    between atoms: N_14  and  C_15
REMARK   10  A    between atoms: C_23  and  O_24
REMARK   11  A    between atoms: C_23  and  C_25
REMARK                            x       y       z     vdW  Elec       q    Type
REMARK                         _______ _______ _______ _____ _____    ______ ____
ROOT
ATOM      1  N   UNL     1       4.345   6.429  17.828  0.00  0.00    +0.000 NA
ATOM      2  N   UNL     1       3.102   6.365  17.851  0.00  0.00    +0.000 NA
ENDROOT
BRANCH   2   3
ATOM      3  C   UNL     1       2.463   7.256  18.668  0.00  0.00    +0.000 A 
ATOM      4  C   UNL     1       2.000   7.059  19.920  0.00  0.00    +0.000 A 
ATOM      5  C   UNL     1       2.051   5.770  20.673  0.00  0.00    +0.000 C 
ATOM      6  N   UNL     1       1.458   8.217  20.479  0.00  0.00    +0.000 N 
ATOM      7  C   UNL     1       0.484   8.277  21.561  0.00  0.00    +0.000 C 
ATOM      8  N   UNL     1       1.461   9.197  19.463  0.00  0.00    +0.000 N 
ATOM      9  C   UNL     1       1.998   8.636  18.297  0.00  0.00    +0.000 A 
ATOM     10  O   UNL     1       2.089   9.132  17.185  0.00  0.00    +0.000 OA
BRANCH   8  11
ATOM     11  C   UNL     1       0.680  10.361  19.542  0.00  0.00    +0.000 A 
ATOM     12  C   UNL     1       1.134  11.492  20.226  0.00  0.00    +0.000 A 
ATOM     13  C   UNL     1       0.345  12.643  20.274  0.00  0.00    +0.000 A 
ATOM     14  C   UNL     1      -0.918  12.652  19.679  0.00  0.00    +0.000 A 
ATOM     15  C   UNL     1      -1.384  11.517  19.018  0.00  0.00    +0.000 A 
ATOM     16  C   UNL     1      -0.580  10.380  18.931  0.00  0.00    +0.000 A 
ENDBRANCH   8  11
ENDBRANCH   2   3
BRANCH   1  17
ATOM     17  C   UNL     1       5.067   5.595  16.993  0.00  0.00    +0.000 C 
ATOM     18  C   UNL     1       5.210   5.971  15.700  0.00  0.00    +0.000 C 
BRANCH  18  19
ATOM     19  C   UNL     1       5.896   5.223  14.624  0.00  0.00    +0.000 A 
ATOM     20  C   UNL     1       5.206   4.252  13.890  0.00  0.00    +0.000 A 
ATOM     21  C   UNL     1       5.841   3.562  12.849  0.00  0.00    +0.000 A 
ATOM     22  C   UNL     1       7.169   3.845  12.535  0.00  0.00    +0.000 A 
ATOM     23  C   UNL     1       7.861   4.815  13.254  0.00  0.00    +0.000 A 
ATOM     24  C   UNL     1       7.229   5.507  14.290  0.00  0.00    +0.000 A 
ENDBRANCH  18  19
BRANCH  17  25
ATOM     25  C   UNL     1       5.683   4.296  17.454  0.00  0.00    +0.000 C 
ATOM     26  O   UNL     1       6.808   4.170  17.909  0.00  0.00    +0.000 OA
BRANCH  25  27
ATOM     27  O   UNL     1       4.830   3.260  17.224  0.00  0.00    +0.000 OA
BRANCH  27  29
ATOM     28  C   UNL     1       2.540   2.634  17.823  0.00  0.00    +0.000 C 
ATOM     29  C   UNL     1       3.956   2.895  18.300  0.00  0.00    +0.000 C 
ENDBRANCH  27  29
ENDBRANCH  25  27
ENDBRANCH  17  25
BRANCH  18  30
ATOM     30  O   UNL     1       4.640   7.146  15.220  0.00  0.00    +0.000 OA
ATOM     31  H   UNL     1       4.472   7.029  14.265  0.00  0.00    +0.000 HD
ENDBRANCH  18  30
ENDBRANCH   1  17
TORSDOF 8
ENDMDL
MODEL 4
REMARK VINA RESULT:      -7.5      2.107      8.953
REMARK  Name = 
REMARK  11 active torsions:
REMARK  status: ('A' for Active; 'I' for Inactive)
REMARK    1  A    between atoms: C_1  and  C_2
REMARK    2  A    between atoms: C_2  and  O_3
REMARK    3  A    between atoms: O_3  and  C_4
REMARK    4  A    between atoms: C_4  and  C_6
REMARK    5  A    between atoms: C_6  and  N_7
REMARK    6  A    between atoms: N_8  and  C_9
REMARK    7  A    between atoms: C_10  and  C_11
REMARK    8  A    between atoms: N_12  and  C_13
REMARK    9  A    between atoms: N_14  and  C_15
REMARK   10  A    between atoms: C_23  and  O_24
REMARK   11  A    between atoms: C_23  and  C_25
REMARK                            x       y       z     vdW  Elec       q    Type
REMARK                         _______ _______ _______ _____ _____    ______ ____
ROOT
ATOM      1  N   UNL     1       4.217   6.416  17.835  0.00  0.00    +0.000 NA
ATOM      2  N   UNL     1       2.974   6.377  17.886  0.00  0.00    +0.000 NA
ENDROOT
BRANCH   2   3
ATOM      3  C   UNL     1       2.372   7.294  18.702  0.00  0.00    +0.000 A 
ATOM      4  C   UNL     1       1.923   7.124  19.964  0.00  0.00    +0.000 A 
ATOM      5  C   UNL     1       1.952   5.843  20.730  0.00  0.00    +0.000 C 
ATOM      6  N   UNL     1       1.420   8.302  20.517  0.00  0.00    +0.000 N 
ATOM      7  C   UNL     1       0.465   8.401  21.613  0.00  0.00    +0.000 C 
ATOM      8  N   UNL     1       1.433   9.270  19.489  0.00  0.00    +0.000 N 
ATOM      9  C   UNL     1       1.937   8.681  18.321  0.00  0.00    +0.000 A 
ATOM     10  O   UNL     1       2.023   9.162  17.203  0.00  0.00    +0.000 OA
BRANCH   8  11
ATOM     11  C   UNL     1       0.684  10.455  19.565  0.00  0.00    +0.000 A 
ATOM     12  C   UNL     1       1.196  11.596  20.190  0.00  0.00    +0.000 A 
ATOM     13  C   UNL     1       0.437  12.767  20.236  0.00  0.00    +0.000 A 
ATOM     14  C   UNL     1      -0.852  12.788  19.702  0.00  0.00    +0.000 A 
ATOM     15  C   UNL     1      -1.376  11.644  19.101  0.00  0.00    +0.000 A 
ATOM     16  C   UNL     1      -0.603  10.486  19.015  0.00  0.00    +0.000 A 
ENDBRANCH   8  11
ENDBRANCH   2   3
BRANCH   1  17
ATOM     17  C   UNL     1       4.903   5.553  16.998  0.00  0.00    +0.000 C 
ATOM     18  C   UNL     1       5.169   5.978  15.740  0.00  0.00    +0.000 C 
BRANCH  18  19
ATOM     19  C   UNL     1       5.844   5.217  14.666  0.00  0.00    +0.000 A 
ATOM     20  C   UNL     1       5.138   4.261  13.928  0.00  0.00    +0.000 A 
ATOM     21  C   UNL     1       5.763   3.560  12.889  0.00  0.00    +0.000 A 
ATOM     22  C   UNL     1       7.098   3.816  12.580  0.00  0.00    +0.000 A 
ATOM     23  C   UNL     1       7.807   4.771  13.304  0.00  0.00    +0.000 A 
ATOM     24  C   UNL     1       7.184   5.474  14.338  0.00  0.00    +0.000 A 
ENDBRANCH  18  19
BRANCH  17  25
ATOM     25  C   UNL     1       5.352   4.175  17.420  0.00  0.00    +0.000 C 
ATOM     26  O   UNL     1       4.892   3.124  17.005  0.00  0.00    +0.000 OA
BRANCH  25  27
ATOM     27  O   UNL     1       6.302   4.264  18.391  0.00  0.00    +0.000 OA
BRANCH  27  29
ATOM     28  C   UNL     1       7.900   6.053  18.883  0.00  0.00    +0.000 C 
ATOM     29  C   UNL     1       7.552   4.858  18.017  0.00  0.00    +0.000 C 
ENDBRANCH  27  29
ENDBRANCH  25  27
ENDBRANCH  17  25
BRANCH  18  30
ATOM     30  O   UNL     1       4.755   7.229  15.295  0.00  0.00    +0.000 OA
ATOM     31  H   UNL     1       5.152   7.380  14.416  0.00  0.00    +0.000 HD
ENDBRANCH  18  30
ENDBRANCH   1  17
TORSDOF 8
ENDMDL
MODEL 5
REMARK VINA RESULT:      -7.4      2.100      8.789
REMARK  Name = 
REMARK  11 active torsions:
REMARK  status: ('A' for Active; 'I' for Inactive)
REMARK    1  A    between atoms: C_1  and  C_2
REMARK    2  A    between atoms: C_2  and  O_3
REMARK    3  A    between atoms: O_3  and  C_4
REMARK    4  A    between atoms: C_4  and  C_6
REMARK    5  A    between atoms: C_6  and  N_7
REMARK    6  A    between atoms: N_8  and  C_9
REMARK    7  A    between atoms: C_10  and  C_11
REMARK    8  A    between atoms: N_12  and  C_13
REMARK    9  A    between atoms: N_14  and  C_15
REMARK   10  A    between atoms: C_23  and  O_24
REMARK   11  A    between atoms: C_23  and  C_25
REMARK                            x       y       z     vdW  Elec       q    Type
REMARK                         _______ _______ _______ _____ _____    ______ ____
ROOT
ATOM      1  N   UNL     1       4.297   6.480  17.807  0.00  0.00    +0.000 NA
ATOM      2  N   UNL     1       3.053   6.456  17.800  0.00  0.00    +0.000 NA
ENDROOT
BRANCH   2   3
ATOM      3  C   UNL     1       2.424   7.342  18.628  0.00  0.00    +0.000 A 
ATOM      4  C   UNL     1       2.009   7.150  19.898  0.00  0.00    +0.000 A 
ATOM      5  C   UNL     1       2.114   5.871  20.662  0.00  0.00    +0.000 C 
ATOM      6  N   UNL     1       1.461   8.303  20.463  0.00  0.00    +0.000 N 
ATOM      7  C   UNL     1       0.525   8.354  21.578  0.00  0.00    +0.000 C 
ATOM      8  N   UNL     1       1.408   9.271  19.437  0.00  0.00    +0.000 N 
ATOM      9  C   UNL     1       1.916   8.708  18.259  0.00  0.00    +0.000 A 
ATOM     10  O   UNL     1       1.957   9.193  17.140  0.00  0.00    +0.000 OA
BRANCH   8  11
ATOM     11  C   UNL     1       0.605  10.418  19.531  0.00  0.00    +0.000 A 
ATOM     12  C   UNL     1      -0.697  10.434  19.021  0.00  0.00    +0.000 A 
ATOM     13  C   UNL     1      -1.482  11.583  19.143  0.00  0.00    +0.000 A 
ATOM     14  C   UNL     1      -0.953  12.732  19.731  0.00  0.00    +0.000 A 
ATOM     15  C   UNL     1       0.353  12.729  20.218  0.00  0.00    +0.000 A 
ATOM     16  C   UNL     1       1.124  11.569  20.136  0.00  0.00    +0.000 A 
ENDBRANCH   8  11
ENDBRANCH   2   3
BRANCH   1  17
ATOM     17  C   UNL     1       5.012   5.648  16.963  0.00  0.00    +0.000 C 
ATOM     18  C   UNL     1       5.177   6.047  15.680  0.00  0.00    +0.000 C 
BRANCH  18  19
ATOM     19  C   UNL     1       5.860   5.306  14.597  0.00  0.00    +0.000 A 
ATOM     20  C   UNL     1       7.187   5.604  14.268  0.00  0.00    +0.000 A 
ATOM     21  C   UNL     1       7.850   4.885  13.265  0.00  0.00    +0.000 A 
ATOM     22  C   UNL     1       7.188   3.861  12.588  0.00  0.00    +0.000 A 
ATOM     23  C   UNL     1       5.870   3.553  12.913  0.00  0.00    +0.000 A 
ATOM     24  C   UNL     1       5.208   4.266  13.916  0.00  0.00    +0.000 A 
ENDBRANCH  18  19
BRANCH  17  25
ATOM     25  C   UNL     1       5.597   4.328  17.405  0.00  0.00    +0.000 C 
ATOM     26  O   UNL     1       6.694   4.178  17.918  0.00  0.00    +0.000 OA
BRANCH  25  27
ATOM     27  O   UNL     1       4.756   3.307  17.084  0.00  0.00    +0.000 OA
BRANCH  27  29
ATOM     28  C   UNL     1       2.403   2.890  17.620  0.00  0.00    +0.000 C 
ATOM     29  C   UNL     1       3.841   2.883  18.103  0.00  0.00    +0.000 C 
ENDBRANCH  27  29
ENDBRANCH  25  27
ENDBRANCH  17  25
BRANCH  18  30
ATOM     30  O   UNL     1       4.636   7.242  15.217  0.00  0.00    +0.000 OA
ATOM     31  H   UNL     1       3.704   7.279  15.501  0.00  0.00    +0.000 HD
ENDBRANCH  18  30
ENDBRANCH   1  17
TORSDOF 8
ENDMDL
MODEL 6
REMARK VINA RESULT:      -7.2      1.339      2.691
REMARK  Name = 
REMARK  11 active torsions:
REMARK  status: ('A' for Active; 'I' for Inactive)
REMARK    1  A    between atoms: C_1  and  C_2
REMARK    2  A    between atoms: C_2  and  O_3
REMARK    3  A    between atoms: O_3  and  C_4
REMARK    4  A    between atoms: C_4  and  C_6
REMARK    5  A    between atoms: C_6  and  N_7
REMARK    6  A    between atoms: N_8  and  C_9
REMARK    7  A    between atoms: C_10  and  C_11
REMARK    8  A    between atoms: N_12  and  C_13
REMARK    9  A    between atoms: N_14  and  C_15
REMARK   10  A    between atoms: C_23  and  O_24
REMARK   11  A    between atoms: C_23  and  C_25
REMARK                            x       y       z     vdW  Elec       q    Type
REMARK                         _______ _______ _______ _____ _____    ______ ____
ROOT
ATOM      1  N   UNL     1       1.456   8.949  19.324  0.00  0.00    +0.000 NA
ATOM      2  N   UNL     1       1.350   7.807  19.806  0.00  0.00    +0.000 NA
ENDROOT
BRANCH   2   3
ATOM      3  C   UNL     1       2.211   6.862  19.321  0.00  0.00    +0.000 A 
ATOM      4  C   UNL     1       2.500   5.649  19.838  0.00  0.00    +0.000 A 
ATOM      5  C   UNL     1       1.958   5.098  21.116  0.00  0.00    +0.000 C 
ATOM      6  N   UNL     1       3.379   4.920  19.036  0.00  0.00    +0.000 N 
ATOM      7  C   UNL     1       4.246   3.835  19.475  0.00  0.00    +0.000 C 
ATOM      8  N   UNL     1       3.779   5.779  17.989  0.00  0.00    +0.000 N 
ATOM      9  C   UNL     1       3.150   7.019  18.158  0.00  0.00    +0.000 A 
ATOM     10  O   UNL     1       3.305   8.045  17.515  0.00  0.00    +0.000 OA
BRANCH   8  11
ATOM     11  C   UNL     1       4.912   5.522  17.201  0.00  0.00    +0.000 A 
ATOM     12  C   UNL     1       6.134   6.146  17.466  0.00  0.00    +0.000 A 
ATOM     13  C   UNL     1       7.251   5.859  16.678  0.00  0.00    +0.000 A 
ATOM     14  C   UNL     1       7.138   4.985  15.595  0.00  0.00    +0.000 A 
ATOM     15  C   UNL     1       5.914   4.381  15.312  0.00  0.00    +0.000 A 
ATOM     16  C   UNL     1       4.808   4.632  16.125  0.00  0.00    +0.000 A 
ENDBRANCH   8  11
ENDBRANCH   2   3
BRANCH   1  17
ATOM     17  C   UNL     1       0.655   9.976  19.793  0.00  0.00    +0.000 C 
ATOM     18  C   UNL     1       0.730  10.279  21.111  0.00  0.00    +0.000 C 
BRANCH  18  19
ATOM     19  C   UNL     1      -0.057  11.299  21.837  0.00  0.00    +0.000 A 
ATOM     20  C   UNL     1       0.249  12.657  21.699  0.00  0.00    +0.000 A 
ATOM     21  C   UNL     1      -0.512  13.630  22.359  0.00  0.00    +0.000 A 
ATOM     22  C   UNL     1      -1.588  13.247  23.159  0.00  0.00    +0.000 A 
ATOM     23  C   UNL     1      -1.905  11.899  23.298  0.00  0.00    +0.000 A 
ATOM     24  C   UNL     1      -1.150  10.928  22.636  0.00  0.00    +0.000 A 
ENDBRANCH  18  19
BRANCH  17  25
ATOM     25  C   UNL     1      -0.293  10.753  18.912  0.00  0.00    +0.000 C 
ATOM     26  O   UNL     1      -0.076  11.858  18.442  0.00  0.00    +0.000 OA
BRANCH  25  27
ATOM     27  O   UNL     1      -1.467  10.078  18.769  0.00  0.00    +0.000 OA
BRANCH  27  29
ATOM     28  C   UNL     1      -3.416  10.256  17.298  0.00  0.00    +0.000 C 
ATOM     29  C   UNL     1      -1.948   9.899  17.431  0.00  0.00    +0.000 C 
ENDBRANCH  27  29
ENDBRANCH  25  27
ENDBRANCH  17  25
BRANCH  18  30
ATOM     30  O   UNL     1       1.569   9.577  21.969  0.00  0.00    +0.000 OA
ATOM     31  H   UNL     1       1.028   9.239  22.708  0.00  0.00    +0.000 HD
ENDBRANCH  18  30
ENDBRANCH   1  17
TORSDOF 8
ENDMDL
MODEL 7
REMARK VINA RESULT:      -7.1      2.038      8.839
REMARK  Name = 
REMARK  11 active torsions:
REMARK  status: ('A' for Active; 'I' for Inactive)
REMARK    1  A    between atoms: C_1  and  C_2
REMARK    2  A    between atoms: C_2  and  O_3
REMARK    3  A    between atoms: O_3  and  C_4
REMARK    4  A    between atoms: C_4  and  C_6
REMARK    5  A    between atoms: C_6  and  N_7
REMARK    6  A    between atoms: N_8  and  C_9
REMARK    7  A    between atoms: C_10  and  C_11
REMARK    8  A    between atoms: N_12  and  C_13
REMARK    9  A    between atoms: N_14  and  C_15
REMARK   10  A    between atoms: C_23  and  O_24
REMARK   11  A    between atoms: C_23  and  C_25
REMARK                            x       y       z     vdW  Elec       q    Type
REMARK                         _______ _______ _______ _____ _____    ______ ____
ROOT
ATOM      1  N   UNL     1       4.064   6.390  18.108  0.00  0.00    +0.000 NA
ATOM      2  N   UNL     1       2.873   6.670  17.880  0.00  0.00    +0.000 NA
ENDROOT
BRANCH   2   3
ATOM      3  C   UNL     1       2.273   7.529  18.758  0.00  0.00    +0.000 A 
ATOM      4  C   UNL     1       1.817   7.271  20.002  0.00  0.00    +0.000 A 
ATOM      5  C   UNL     1       1.834   5.936  20.673  0.00  0.00    +0.000 C 
ATOM      6  N   UNL     1       1.320   8.409  20.638  0.00  0.00    +0.000 N 
ATOM      7  C   UNL     1       0.361   8.433  21.735  0.00  0.00    +0.000 C 
ATOM      8  N   UNL     1       1.344   9.449  19.684  0.00  0.00    +0.000 N 
ATOM      9  C   UNL     1       1.849   8.944  18.479  0.00  0.00    +0.000 A 
ATOM     10  O   UNL     1       1.944   9.504  17.399  0.00  0.00    +0.000 OA
BRANCH   8  11
ATOM     11  C   UNL     1       0.602  10.630  19.845  0.00  0.00    +0.000 A 
ATOM     12  C   UNL     1      -0.691  10.748  19.328  0.00  0.00    +0.000 A 
ATOM     13  C   UNL     1      -1.415  11.927  19.517  0.00  0.00    +0.000 A 
ATOM     14  C   UNL     1      -0.831  13.008  20.180  0.00  0.00    +0.000 A 
ATOM     15  C   UNL     1       0.468  12.903  20.675  0.00  0.00    +0.000 A 
ATOM     16  C   UNL     1       1.176  11.711  20.525  0.00  0.00    +0.000 A 
ENDBRANCH   8  11
ENDBRANCH   2   3
BRANCH   1  17
ATOM     17  C   UNL     1       4.760   5.565  17.242  0.00  0.00    +0.000 C 
ATOM     18  C   UNL     1       4.993   6.023  15.989  0.00  0.00    +0.000 C 
BRANCH  18  19
ATOM     19  C   UNL     1       5.672   5.305  14.889  0.00  0.00    +0.000 A 
ATOM     20  C   UNL     1       7.018   5.559  14.605  0.00  0.00    +0.000 A 
ATOM     21  C   UNL     1       7.675   4.859  13.585  0.00  0.00    +0.000 A 
ATOM     22  C   UNL     1       6.988   3.898  12.846  0.00  0.00    +0.000 A 
ATOM     23  C   UNL     1       5.650   3.633  13.125  0.00  0.00    +0.000 A 
ATOM     24  C   UNL     1       4.994   4.326  14.145  0.00  0.00    +0.000 A 
ENDBRANCH  18  19
BRANCH  17  25
ATOM     25  C   UNL     1       5.252   4.191  17.627  0.00  0.00    +0.000 C 
ATOM     26  O   UNL     1       4.793   3.136  17.221  0.00  0.00    +0.000 OA
BRANCH  25  27
ATOM     27  O   UNL     1       6.245   4.287  18.553  0.00  0.00    +0.000 OA
BRANCH  27  29
ATOM     28  C   UNL     1       7.849   6.116  18.832  0.00  0.00    +0.000 C 
ATOM     29  C   UNL     1       7.492   4.833  18.107  0.00  0.00    +0.000 C 
ENDBRANCH  27  29
ENDBRANCH  25  27
ENDBRANCH  17  25
BRANCH  18  30
ATOM     30  O   UNL     1       4.539   7.272  15.578  0.00  0.00    +0.000 OA
ATOM     31  H   UNL     1       4.047   7.152  14.743  0.00  0.00    +0.000 HD
ENDBRANCH  18  30
ENDBRANCH   1  17
TORSDOF 8
ENDMDL
MODEL 8
REMARK VINA RESULT:      -7.1      1.286      1.595
REMARK  Name = 
REMARK  11 active torsions:
REMARK  status: ('A' for Active; 'I' for Inactive)
REMARK    1  A    between atoms: C_1  and  C_2
REMARK    2  A    between atoms: C_2  and  O_3
REMARK    3  A    between atoms: O_3  and  C_4
REMARK    4  A    between atoms: C_4  and  C_6
REMARK    5  A    between atoms: C_6  and  N_7
REMARK    6  A    between atoms: N_8  and  C_9
REMARK    7  A    between atoms: C_10  and  C_11
REMARK    8  A    between atoms: N_12  and  C_13
REMARK    9  A    between atoms: N_14  and  C_15
REMARK   10  A    between atoms: C_23  and  O_24
REMARK   11  A    between atoms: C_23  and  C_25
REMARK                            x       y       z     vdW  Elec       q    Type
REMARK                         _______ _______ _______ _____ _____    ______ ____
ROOT
ATOM      1  N   UNL     1       1.507   8.989  18.725  0.00  0.00    +0.000 NA
ATOM      2  N   UNL     1       1.921   8.162  19.558  0.00  0.00    +0.000 NA
ENDROOT
BRANCH   2   3
ATOM      3  C   UNL     1       2.514   7.038  19.055  0.00  0.00    +0.000 A 
ATOM      4  C   UNL     1       2.396   5.765  19.487  0.00  0.00    +0.000 A 
ATOM      5  C   UNL     1       1.606   5.320  20.674  0.00  0.00    +0.000 C 
ATOM      6  N   UNL     1       3.097   4.861  18.689  0.00  0.00    +0.000 N 
ATOM      7  C   UNL     1       3.574   3.544  19.092  0.00  0.00    +0.000 C 
ATOM      8  N   UNL     1       3.820   5.626  17.748  0.00  0.00    +0.000 N 
ATOM      9  C   UNL     1       3.560   6.984  17.977  0.00  0.00    +0.000 A 
ATOM     10  O   UNL     1       4.060   7.957  17.435  0.00  0.00    +0.000 OA
BRANCH   8  11
ATOM     11  C   UNL     1       4.897   5.098  17.020  0.00  0.00    +0.000 A 
ATOM     12  C   UNL     1       4.703   4.498  15.773  0.00  0.00    +0.000 A 
ATOM     13  C   UNL     1       5.795   3.996  15.061  0.00  0.00    +0.000 A 
ATOM     14  C   UNL     1       7.075   4.050  15.614  0.00  0.00    +0.000 A 
ATOM     15  C   UNL     1       7.269   4.624  16.869  0.00  0.00    +0.000 A 
ATOM     16  C   UNL     1       6.187   5.165  17.562  0.00  0.00    +0.000 A 
ENDBRANCH   8  11
ENDBRANCH   2   3
BRANCH   1  17
ATOM     17  C   UNL     1       0.936  10.175  19.150  0.00  0.00    +0.000 C 
ATOM     18  C   UNL     1       1.458  11.331  18.674  0.00  0.00    +0.000 C 
BRANCH  18  19
ATOM     19  C   UNL     1       1.043  12.707  19.021  0.00  0.00    +0.000 A 
ATOM     20  C   UNL     1       1.794  13.463  19.928  0.00  0.00    +0.000 A 
ATOM     21  C   UNL     1       1.424  14.778  20.237  0.00  0.00    +0.000 A 
ATOM     22  C   UNL     1       0.301  15.345  19.635  0.00  0.00    +0.000 A 
ATOM     23  C   UNL     1      -0.447  14.604  18.725  0.00  0.00    +0.000 A 
ATOM     24  C   UNL     1      -0.078  13.293  18.413  0.00  0.00    +0.000 A 
ENDBRANCH  18  19
BRANCH  17  25
ATOM     25  C   UNL     1      -0.222  10.235  20.117  0.00  0.00    +0.000 C 
ATOM     26  O   UNL     1      -1.402  10.205  19.810  0.00  0.00    +0.000 OA
BRANCH  25  27
ATOM     27  O   UNL     1       0.233  10.401  21.390  0.00  0.00    +0.000 OA
BRANCH  27  29
ATOM     28  C   UNL     1      -0.746  12.406  22.399  0.00  0.00    +0.000 C 
ATOM     29  C   UNL     1      -0.710  10.890  22.352  0.00  0.00    +0.000 C 
ENDBRANCH  27  29
ENDBRANCH  25  27
ENDBRANCH  17  25
BRANCH  18  30
ATOM     30  O   UNL     1       2.541  11.331  17.800  0.00  0.00    +0.000 OA
ATOM     31  H   UNL     1       3.157  12.031  18.087  0.00  0.00    +0.000 HD
ENDBRANCH  18  30
ENDBRANCH   1  17
TORSDOF 8
ENDMDL
MODEL 9
REMARK VINA RESULT:      -7.1      1.309      2.629
REMARK  Name = 
REMARK  11 active torsions:
REMARK  status: ('A' for Active; 'I' for Inactive)
REMARK    1  A    between atoms: C_1  and  C_2
REMARK    2  A    between atoms: C_2  and  O_3
REMARK    3  A    between atoms: O_3  and  C_4
REMARK    4  A    between atoms: C_4  and  C_6
REMARK    5  A    between atoms: C_6  and  N_7
REMARK    6  A    between atoms: N_8  and  C_9
REMARK    7  A    between atoms: C_10  and  C_11
REMARK    8  A    between atoms: N_12  and  C_13
REMARK    9  A    between atoms: N_14  and  C_15
REMARK   10  A    between atoms: C_23  and  O_24
REMARK   11  A    between atoms: C_23  and  C_25
REMARK                            x       y       z     vdW  Elec       q    Type
REMARK                         _______ _______ _______ _____ _____    ______ ____
ROOT
ATOM      1  N   UNL     1       1.417   8.874  19.236  0.00  0.00    +0.000 NA
ATOM      2  N   UNL     1       1.403   7.776  19.822  0.00  0.00    +0.000 NA
ENDROOT
BRANCH   2   3
ATOM      3  C   UNL     1       2.240   6.814  19.329  0.00  0.00    +0.000 A 
ATOM      4  C   UNL     1       2.509   5.596  19.842  0.00  0.00    +0.000 A 
ATOM      5  C   UNL     1       1.965   5.053  21.123  0.00  0.00    +0.000 C 
ATOM      6  N   UNL     1       3.367   4.850  19.032  0.00  0.00    +0.000 N 
ATOM      7  C   UNL     1       4.216   3.747  19.462  0.00  0.00    +0.000 C 
ATOM      8  N   UNL     1       3.777   5.702  17.984  0.00  0.00    +0.000 N 
ATOM      9  C   UNL     1       3.174   6.955  18.159  0.00  0.00    +0.000 A 
ATOM     10  O   UNL     1       3.345   7.979  17.517  0.00  0.00    +0.000 OA
BRANCH   8  11
ATOM     11  C   UNL     1       4.898   5.424  17.187  0.00  0.00    +0.000 A 
ATOM     12  C   UNL     1       4.834   4.491  16.148  0.00  0.00    +0.000 A 
ATOM     13  C   UNL     1       5.959   4.246  15.358  0.00  0.00    +0.000 A 
ATOM     14  C   UNL     1       7.163   4.896  15.633  0.00  0.00    +0.000 A 
ATOM     15  C   UNL     1       7.238   5.809  16.684  0.00  0.00    +0.000 A 
ATOM     16  C   UNL     1       6.103   6.088  17.447  0.00  0.00    +0.000 A 
ENDBRANCH   8  11
ENDBRANCH   2   3
BRANCH   1  17
ATOM     17  C   UNL     1       0.634   9.916  19.700  0.00  0.00    +0.000 C 
ATOM     18  C   UNL     1       0.760  10.266  21.002  0.00  0.00    +0.000 C 
BRANCH  18  19
ATOM     19  C   UNL     1       0.001  11.311  21.723  0.00  0.00    +0.000 A 
ATOM     20  C   UNL     1      -1.039  10.956  22.589  0.00  0.00    +0.000 A 
ATOM     21  C   UNL     1      -1.741  11.938  23.299  0.00  0.00    +0.000 A 
ATOM     22  C   UNL     1      -1.402  13.282  23.149  0.00  0.00    +0.000 A 
ATOM     23  C   UNL     1      -0.364  13.645  22.296  0.00  0.00    +0.000 A 
ATOM     24  C   UNL     1       0.341  12.666  21.590  0.00  0.00    +0.000 A 
ENDBRANCH  18  19
BRANCH  17  25
ATOM     25  C   UNL     1      -0.350  10.662  18.831  0.00  0.00    +0.000 C 
ATOM     26  O   UNL     1      -0.159  11.757  18.328  0.00  0.00    +0.000 OA
BRANCH  25  27
ATOM     27  O   UNL     1      -1.519   9.972  18.740  0.00  0.00    +0.000 OA
BRANCH  27  29
ATOM     28  C   UNL     1      -3.556  10.519  17.495  0.00  0.00    +0.000 C 
ATOM     29  C   UNL     1      -2.153   9.943  17.455  0.00  0.00    +0.000 C 
ENDBRANCH  27  29
ENDBRANCH  25  27
ENDBRANCH  17  25
BRANCH  18  30
ATOM     30  O   UNL     1       1.634   9.595  21.851  0.00  0.00    +0.000 OA
ATOM     31  H   UNL     1       2.390   9.283  21.318  0.00  0.00    +0.000 HD
ENDBRANCH  18  30
ENDBRANCH   1  17
TORSDOF 8
ENDMDL
