MODEL 1
REMARK VINA RESULT:      -7.8      0.000      0.000
REMARK  Name = 
REMARK  4 active torsions:
REMARK  status: ('A' for Active; 'I' for Inactive)
REMARK    1  A    between atoms: C_4  and  C_5
REMARK    2  A    between atoms: C_9  and  O_10
REMARK    3  A    between atoms: C_11  and  O_12
REMARK    4  A    between atoms: C_17  and  O_18
REMARK                            x       y       z     vdW  Elec       q    Type
REMARK                         _______ _______ _______ _____ _____    ______ ____
ROOT
ATOM      1  O   UNL     1       3.749   2.150  18.182  0.00  0.00    +0.000 OA
ATOM      2  C   UNL     1       4.026   3.202  17.620  0.00  0.00    +0.000 A 
ATOM      3  C   UNL     1       4.788   3.210  16.364  0.00  0.00    +0.000 A 
ATOM      4  C   UNL     1       5.062   4.385  15.780  0.00  0.00    +0.000 A 
ATOM      5  O   UNL     1       4.670   5.623  16.259  0.00  0.00    +0.000 OA
ATOM      6  C   UNL     1       3.956   5.659  17.432  0.00  0.00    +0.000 A 
ATOM      7  C   UNL     1       3.562   6.912  17.906  0.00  0.00    +0.000 A 
ATOM      8  C   UNL     1       2.822   7.010  19.090  0.00  0.00    +0.000 A 
ATOM      9  C   UNL     1       2.491   5.852  19.792  0.00  0.00    +0.000 A 
ATOM     10  C   UNL     1       2.881   4.600  19.331  0.00  0.00    +0.000 A 
ATOM     11  C   UNL     1       3.613   4.511  18.146  0.00  0.00    +0.000 A 
ENDROOT
BRANCH   4  12
ATOM     12  C   UNL     1       5.848   4.417  14.541  0.00  0.00    +0.000 A 
ATOM     13  C   UNL     1       5.461   3.633  13.444  0.00  0.00    +0.000 A 
ATOM     14  C   UNL     1       6.239   3.601  12.279  0.00  0.00    +0.000 A 
ATOM     15  C   UNL     1       7.412   4.354  12.195  0.00  0.00    +0.000 A 
ATOM     16  C   UNL     1       7.792   5.137  13.278  0.00  0.00    +0.000 A 
ATOM     17  C   UNL     1       7.021   5.171  14.441  0.00  0.00    +0.000 A 
BRANCH  16  18
ATOM     18  O   UNL     1       8.936   5.889  13.253  0.00  0.00    +0.000 OA
ATOM     19  H   UNL     1       9.047   6.302  14.126  0.00  0.00    +0.000 HD
ENDBRANCH  16  18
BRANCH  17  20
ATOM     20  O   UNL     1       7.446   5.944  15.488  0.00  0.00    +0.000 OA
ATOM     21  H   UNL     1       7.201   6.857  15.241  0.00  0.00    +0.000 HD
ENDBRANCH  17  20
ENDBRANCH   4  12
BRANCH   9  22
ATOM     22  O   UNL     1       1.773   5.904  20.949  0.00  0.00    +0.000 OA
ATOM     23  H   UNL     1       0.853   6.136  20.744  0.00  0.00    +0.000 HD
ENDBRANCH   9  22
TORSDOF 4
ENDMDL
MODEL 2
REMARK VINA RESULT:      -7.6      4.170      5.895
REMARK  Name = 
REMARK  4 active torsions:
REMARK  status: ('A' for Active; 'I' for Inactive)
REMARK    1  A    between atoms: C_4  and  C_5
REMARK    2  A    between atoms: C_9  and  O_10
REMARK    3  A    between atoms: C_11  and  O_12
REMARK    4  A    between atoms: C_17  and  O_18
REMARK                            x       y       z     vdW  Elec       q    Type
REMARK                         _______ _______ _______ _____ _____    ______ ____
ROOT
ATOM      1  O   UNL     1       1.872   9.865  17.387  0.00  0.00    +0.000 OA
ATOM      2  C   UNL     1       1.872   8.977  18.231  0.00  0.00    +0.000 A 
ATOM      3  C   UNL     1       2.335   7.622  17.903  0.00  0.00    +0.000 A 
ATOM      4  C   UNL     1       2.324   6.684  18.859  0.00  0.00    +0.000 A 
ATOM      5  O   UNL     1       1.919   6.885  20.167  0.00  0.00    +0.000 OA
ATOM      6  C   UNL     1       1.478   8.140  20.516  0.00  0.00    +0.000 A 
ATOM      7  C   UNL     1       1.075   8.335  21.838  0.00  0.00    +0.000 A 
ATOM      8  C   UNL     1       0.628   9.594  22.254  0.00  0.00    +0.000 A 
ATOM      9  C   UNL     1       0.582  10.644  21.338  0.00  0.00    +0.000 A 
ATOM     10  C   UNL     1       0.977  10.460  20.019  0.00  0.00    +0.000 A 
ATOM     11  C   UNL     1       1.429   9.203  19.614  0.00  0.00    +0.000 A 
ENDROOT
BRANCH   4  12
ATOM     12  C   UNL     1       2.753   5.317  18.544  0.00  0.00    +0.000 A 
ATOM     13  C   UNL     1       1.956   4.501  17.727  0.00  0.00    +0.000 A 
ATOM     14  C   UNL     1       2.319   3.172  17.473  0.00  0.00    +0.000 A 
ATOM     15  C   UNL     1       3.483   2.641  18.032  0.00  0.00    +0.000 A 
ATOM     16  C   UNL     1       4.277   3.449  18.836  0.00  0.00    +0.000 A 
ATOM     17  C   UNL     1       3.919   4.774  19.092  0.00  0.00    +0.000 A 
BRANCH  16  18
ATOM     18  O   UNL     1       5.425   2.978  19.415  0.00  0.00    +0.000 OA
ATOM     19  H   UNL     1       6.144   3.047  18.764  0.00  0.00    +0.000 HD
ENDBRANCH  16  18
BRANCH  17  20
ATOM     20  O   UNL     1       4.725   5.526  19.905  0.00  0.00    +0.000 OA
ATOM     21  H   UNL     1       4.951   6.315  19.374  0.00  0.00    +0.000 HD
ENDBRANCH  17  20
ENDBRANCH   4  12
BRANCH   9  22
ATOM     22  O   UNL     1       0.151  11.885  21.702  0.00  0.00    +0.000 OA
ATOM     23  H   UNL     1       0.241  12.488  20.946  0.00  0.00    +0.000 HD
ENDBRANCH   9  22
TORSDOF 4
ENDMDL
MODEL 3
REMARK VINA RESULT:      -7.6      1.444      1.808
REMARK  Name = 
REMARK  4 active torsions:
REMARK  status: ('A' for Active; 'I' for Inactive)
REMARK    1  A    between atoms: C_4  and  C_5
REMARK    2  A    between atoms: C_9  and  O_10
REMARK    3  A    between atoms: C_11  and  O_12
REMARK    4  A    between atoms: C_17  and  O_18
REMARK                            x       y       z     vdW  Elec       q    Type
REMARK                         _______ _______ _______ _____ _____    ______ ____
ROOT
ATOM      1  O   UNL     1       6.220   4.780  19.637  0.00  0.00    +0.000 OA
ATOM      2  C   UNL     1       5.555   4.578  18.629  0.00  0.00    +0.000 A 
ATOM      3  C   UNL     1       6.177   4.585  17.298  0.00  0.00    +0.000 A 
ATOM      4  C   UNL     1       5.411   4.351  16.224  0.00  0.00    +0.000 A 
ATOM      5  O   UNL     1       4.054   4.083  16.256  0.00  0.00    +0.000 OA
ATOM      6  C   UNL     1       3.433   4.067  17.482  0.00  0.00    +0.000 A 
ATOM      7  C   UNL     1       2.065   3.793  17.506  0.00  0.00    +0.000 A 
ATOM      8  C   UNL     1       1.381   3.752  18.727  0.00  0.00    +0.000 A 
ATOM      9  C   UNL     1       2.074   3.995  19.911  0.00  0.00    +0.000 A 
ATOM     10  C   UNL     1       3.436   4.273  19.899  0.00  0.00    +0.000 A 
ATOM     11  C   UNL     1       4.111   4.305  18.678  0.00  0.00    +0.000 A 
ENDROOT
BRANCH   4  12
ATOM     12  C   UNL     1       6.007   4.384  14.883  0.00  0.00    +0.000 A 
ATOM     13  C   UNL     1       5.499   3.558  13.869  0.00  0.00    +0.000 A 
ATOM     14  C   UNL     1       6.100   3.528  12.604  0.00  0.00    +0.000 A 
ATOM     15  C   UNL     1       7.216   4.324  12.335  0.00  0.00    +0.000 A 
ATOM     16  C   UNL     1       7.716   5.147  13.337  0.00  0.00    +0.000 A 
ATOM     17  C   UNL     1       7.120   5.180  14.599  0.00  0.00    +0.000 A 
BRANCH  16  18
ATOM     18  O   UNL     1       8.811   5.942  13.131  0.00  0.00    +0.000 OA
ATOM     19  H   UNL     1       8.934   6.500  13.918  0.00  0.00    +0.000 HD
ENDBRANCH  16  18
BRANCH  17  20
ATOM     20  O   UNL     1       7.660   5.994  15.559  0.00  0.00    +0.000 OA
ATOM     21  H   UNL     1       8.626   5.935  15.423  0.00  0.00    +0.000 HD
ENDBRANCH  17  20
ENDBRANCH   4  12
BRANCH   9  22
ATOM     22  O   UNL     1       1.446   3.967  21.120  0.00  0.00    +0.000 OA
ATOM     23  H   UNL     1       1.410   3.050  21.440  0.00  0.00    +0.000 HD
ENDBRANCH   9  22
TORSDOF 4
ENDMDL
MODEL 4
REMARK VINA RESULT:      -7.5      3.258      6.988
REMARK  Name = 
REMARK  4 active torsions:
REMARK  status: ('A' for Active; 'I' for Inactive)
REMARK    1  A    between atoms: C_4  and  C_5
REMARK    2  A    between atoms: C_9  and  O_10
REMARK    3  A    between atoms: C_11  and  O_12
REMARK    4  A    between atoms: C_17  and  O_18
REMARK                            x       y       z     vdW  Elec       q    Type
REMARK                         _______ _______ _______ _____ _____    ______ ____
ROOT
ATOM      1  O   UNL     1       5.081   5.459  16.756  0.00  0.00    +0.000 OA
ATOM      2  C   UNL     1       4.130   5.534  17.525  0.00  0.00    +0.000 A 
ATOM      3  C   UNL     1       3.521   6.831  17.848  0.00  0.00    +0.000 A 
ATOM      4  C   UNL     1       2.478   6.865  18.688  0.00  0.00    +0.000 A 
ATOM      5  O   UNL     1       1.898   5.758  19.283  0.00  0.00    +0.000 OA
ATOM      6  C   UNL     1       2.438   4.525  19.006  0.00  0.00    +0.000 A 
ATOM      7  C   UNL     1       1.845   3.414  19.608  0.00  0.00    +0.000 A 
ATOM      8  C   UNL     1       2.345   2.132  19.354  0.00  0.00    +0.000 A 
ATOM      9  C   UNL     1       3.440   1.977  18.506  0.00  0.00    +0.000 A 
ATOM     10  C   UNL     1       4.041   3.076  17.905  0.00  0.00    +0.000 A 
ATOM     11  C   UNL     1       3.531   4.351  18.158  0.00  0.00    +0.000 A 
ENDROOT
BRANCH   4  12
ATOM     12  C   UNL     1       1.874   8.153  19.049  0.00  0.00    +0.000 A 
ATOM     13  C   UNL     1       1.617   9.111  18.056  0.00  0.00    +0.000 A 
ATOM     14  C   UNL     1       1.104  10.370  18.393  0.00  0.00    +0.000 A 
ATOM     15  C   UNL     1       0.840  10.689  19.727  0.00  0.00    +0.000 A 
ATOM     16  C   UNL     1       1.088   9.739  20.711  0.00  0.00    +0.000 A 
ATOM     17  C   UNL     1       1.599   8.483  20.379  0.00  0.00    +0.000 A 
BRANCH  16  18
ATOM     18  O   UNL     1       0.854  10.000  22.034  0.00  0.00    +0.000 OA
ATOM     19  H   UNL     1       0.394   9.234  22.418  0.00  0.00    +0.000 HD
ENDBRANCH  16  18
BRANCH  17  20
ATOM     20  O   UNL     1       1.843   7.587  21.386  0.00  0.00    +0.000 OA
ATOM     21  H   UNL     1       2.818   7.543  21.452  0.00  0.00    +0.000 HD
ENDBRANCH  17  20
ENDBRANCH   4  12
BRANCH   9  22
ATOM     22  O   UNL     1       3.958   0.746  18.234  0.00  0.00    +0.000 OA
ATOM     23  H   UNL     1       4.389   0.766  17.363  0.00  0.00    +0.000 HD
ENDBRANCH   9  22
TORSDOF 4
ENDMDL
MODEL 5
REMARK VINA RESULT:      -7.5      2.763      6.952
REMARK  Name = 
REMARK  4 active torsions:
REMARK  status: ('A' for Active; 'I' for Inactive)
REMARK    1  A    between atoms: C_4  and  C_5
REMARK    2  A    between atoms: C_9  and  O_10
REMARK    3  A    between atoms: C_11  and  O_12
REMARK    4  A    between atoms: C_17  and  O_18
REMARK                            x       y       z     vdW  Elec       q    Type
REMARK                         _______ _______ _______ _____ _____    ______ ____
ROOT
ATOM      1  O   UNL     1       2.641   3.490  18.981  0.00  0.00    +0.000 OA
ATOM      2  C   UNL     1       2.905   4.631  18.622  0.00  0.00    +0.000 A 
ATOM      3  C   UNL     1       2.233   5.788  19.227  0.00  0.00    +0.000 A 
ATOM      4  C   UNL     1       2.558   7.018  18.808  0.00  0.00    +0.000 A 
ATOM      5  O   UNL     1       3.504   7.305  17.840  0.00  0.00    +0.000 OA
ATOM      6  C   UNL     1       4.156   6.250  17.247  0.00  0.00    +0.000 A 
ATOM      7  C   UNL     1       5.111   6.549  16.275  0.00  0.00    +0.000 A 
ATOM      8  C   UNL     1       5.815   5.516  15.645  0.00  0.00    +0.000 A 
ATOM      9  C   UNL     1       5.548   4.192  15.992  0.00  0.00    +0.000 A 
ATOM     10  C   UNL     1       4.597   3.883  16.956  0.00  0.00    +0.000 A 
ATOM     11  C   UNL     1       3.904   4.920  17.584  0.00  0.00    +0.000 A 
ENDROOT
BRANCH   4  12
ATOM     12  C   UNL     1       1.877   8.186  19.378  0.00  0.00    +0.000 A 
ATOM     13  C   UNL     1       1.497   8.188  20.729  0.00  0.00    +0.000 A 
ATOM     14  C   UNL     1       0.787   9.267  21.270  0.00  0.00    +0.000 A 
ATOM     15  C   UNL     1       0.448  10.360  20.469  0.00  0.00    +0.000 A 
ATOM     16  C   UNL     1       0.829  10.363  19.133  0.00  0.00    +0.000 A 
ATOM     17  C   UNL     1       1.537   9.289  18.589  0.00  0.00    +0.000 A 
BRANCH  16  18
ATOM     18  O   UNL     1       0.517  11.404  18.300  0.00  0.00    +0.000 OA
ATOM     19  H   UNL     1      -0.452  11.472  18.249  0.00  0.00    +0.000 HD
ENDBRANCH  16  18
BRANCH  17  20
ATOM     20  O   UNL     1       1.875   9.330  17.263  0.00  0.00    +0.000 OA
ATOM     21  H   UNL     1       2.171   8.423  17.051  0.00  0.00    +0.000 HD
ENDBRANCH  17  20
ENDBRANCH   4  12
BRANCH   9  22
ATOM     22  O   UNL     1       6.210   3.157  15.402  0.00  0.00    +0.000 OA
ATOM     23  H   UNL     1       5.574   2.458  15.178  0.00  0.00    +0.000 HD
ENDBRANCH   9  22
TORSDOF 4
ENDMDL
MODEL 6
REMARK VINA RESULT:      -7.4      2.132      6.847
REMARK  Name = 
REMARK  4 active torsions:
REMARK  status: ('A' for Active; 'I' for Inactive)
REMARK    1  A    between atoms: C_4  and  C_5
REMARK    2  A    between atoms: C_9  and  O_10
REMARK    3  A    between atoms: C_11  and  O_12
REMARK    4  A    between atoms: C_17  and  O_18
REMARK                            x       y       z     vdW  Elec       q    Type
REMARK                         _______ _______ _______ _____ _____    ______ ____
ROOT
ATOM      1  O   UNL     1       7.381   5.964  18.748  0.00  0.00    +0.000 OA
ATOM      2  C   UNL     1       6.443   5.325  18.287  0.00  0.00    +0.000 A 
ATOM      3  C   UNL     1       5.347   4.863  19.150  0.00  0.00    +0.000 A 
ATOM      4  C   UNL     1       4.338   4.174  18.601  0.00  0.00    +0.000 A 
ATOM      5  O   UNL     1       4.224   3.862  17.258  0.00  0.00    +0.000 OA
ATOM      6  C   UNL     1       5.228   4.276  16.416  0.00  0.00    +0.000 A 
ATOM      7  C   UNL     1       5.104   3.960  15.063  0.00  0.00    +0.000 A 
ATOM      8  C   UNL     1       6.090   4.365  14.157  0.00  0.00    +0.000 A 
ATOM      9  C   UNL     1       7.197   5.077  14.618  0.00  0.00    +0.000 A 
ATOM     10  C   UNL     1       7.333   5.394  15.964  0.00  0.00    +0.000 A 
ATOM     11  C   UNL     1       6.341   4.992  16.860  0.00  0.00    +0.000 A 
ENDROOT
BRANCH   4  12
ATOM     12  C   UNL     1       3.249   3.677  19.450  0.00  0.00    +0.000 A 
ATOM     13  C   UNL     1       3.484   3.401  20.805  0.00  0.00    +0.000 A 
ATOM     14  C   UNL     1       2.473   2.863  21.611  0.00  0.00    +0.000 A 
ATOM     15  C   UNL     1       1.212   2.593  21.073  0.00  0.00    +0.000 A 
ATOM     16  C   UNL     1       0.976   2.871  19.733  0.00  0.00    +0.000 A 
ATOM     17  C   UNL     1       1.981   3.408  18.926  0.00  0.00    +0.000 A 
BRANCH  16  18
ATOM     18  O   UNL     1      -0.238   2.620  19.152  0.00  0.00    +0.000 OA
ATOM     19  H   UNL     1      -0.614   3.466  18.855  0.00  0.00    +0.000 HD
ENDBRANCH  16  18
BRANCH  17  20
ATOM     20  O   UNL     1       1.705   3.648  17.606  0.00  0.00    +0.000 OA
ATOM     21  H   UNL     1       2.551   3.955  17.225  0.00  0.00    +0.000 HD
ENDBRANCH  17  20
ENDBRANCH   4  12
BRANCH   9  22
ATOM     22  O   UNL     1       8.180   5.489  13.769  0.00  0.00    +0.000 OA
ATOM     23  H   UNL     1       8.558   4.716  13.319  0.00  0.00    +0.000 HD
ENDBRANCH   9  22
TORSDOF 4
ENDMDL
MODEL 7
REMARK VINA RESULT:      -7.3      0.945      1.018
REMARK  Name = 
REMARK  4 active torsions:
REMARK  status: ('A' for Active; 'I' for Inactive)
REMARK    1  A    between atoms: C_4  and  C_5
REMARK    2  A    between atoms: C_9  and  O_10
REMARK    3  A    between atoms: C_11  and  O_12
REMARK    4  A    between atoms: C_17  and  O_18
REMARK                            x       y       z     vdW  Elec       q    Type
REMARK                         _______ _______ _______ _____ _____    ______ ____
ROOT
ATOM      1  O   UNL     1       4.418   3.405  19.490  0.00  0.00    +0.000 OA
ATOM      2  C   UNL     1       4.379   4.245  18.600  0.00  0.00    +0.000 A 
ATOM      3  C   UNL     1       5.065   4.024  17.320  0.00  0.00    +0.000 A 
ATOM      4  C   UNL     1       4.989   4.968  16.373  0.00  0.00    +0.000 A 
ATOM      5  O   UNL     1       4.292   6.158  16.488  0.00  0.00    +0.000 OA
ATOM      6  C   UNL     1       3.635   6.404  17.670  0.00  0.00    +0.000 A 
ATOM      7  C   UNL     1       2.932   7.605  17.777  0.00  0.00    +0.000 A 
ATOM      8  C   UNL     1       2.235   7.905  18.953  0.00  0.00    +0.000 A 
ATOM      9  C   UNL     1       2.256   7.001  20.013  0.00  0.00    +0.000 A 
ATOM     10  C   UNL     1       2.956   5.804  19.920  0.00  0.00    +0.000 A 
ATOM     11  C   UNL     1       3.643   5.510  18.741  0.00  0.00    +0.000 A 
ENDROOT
BRANCH   4  12
ATOM     12  C   UNL     1       5.693   4.781  15.099  0.00  0.00    +0.000 A 
ATOM     13  C   UNL     1       5.141   3.957  14.106  0.00  0.00    +0.000 A 
ATOM     14  C   UNL     1       5.833   3.714  12.913  0.00  0.00    +0.000 A 
ATOM     15  C   UNL     1       7.085   4.293  12.695  0.00  0.00    +0.000 A 
ATOM     16  C   UNL     1       7.630   5.114  13.674  0.00  0.00    +0.000 A 
ATOM     17  C   UNL     1       6.944   5.358  14.865  0.00  0.00    +0.000 A 
BRANCH  16  18
ATOM     18  O   UNL     1       8.857   5.701  13.516  0.00  0.00    +0.000 OA
ATOM     19  H   UNL     1       9.536   5.008  13.582  0.00  0.00    +0.000 HD
ENDBRANCH  16  18
BRANCH  17  20
ATOM     20  O   UNL     1       7.530   6.161  15.807  0.00  0.00    +0.000 OA
ATOM     21  H   UNL     1       8.468   5.886  15.822  0.00  0.00    +0.000 HD
ENDBRANCH  17  20
ENDBRANCH   4  12
BRANCH   9  22
ATOM     22  O   UNL     1       1.592   7.255  21.176  0.00  0.00    +0.000 OA
ATOM     23  H   UNL     1       2.205   7.657  21.813  0.00  0.00    +0.000 HD
ENDBRANCH   9  22
TORSDOF 4
ENDMDL
MODEL 8
REMARK VINA RESULT:      -7.3      2.026      6.878
REMARK  Name = 
REMARK  4 active torsions:
REMARK  status: ('A' for Active; 'I' for Inactive)
REMARK    1  A    between atoms: C_4  and  C_5
REMARK    2  A    between atoms: C_9  and  O_10
REMARK    3  A    between atoms: C_11  and  O_12
REMARK    4  A    between atoms: C_17  and  O_18
REMARK                            x       y       z     vdW  Elec       q    Type
REMARK                         _______ _______ _______ _____ _____    ______ ____
ROOT
ATOM      1  O   UNL     1       7.462   6.253  18.539  0.00  0.00    +0.000 OA
ATOM      2  C   UNL     1       6.517   5.585  18.139  0.00  0.00    +0.000 A 
ATOM      3  C   UNL     1       5.432   5.190  19.048  0.00  0.00    +0.000 A 
ATOM      4  C   UNL     1       4.414   4.465  18.565  0.00  0.00    +0.000 A 
ATOM      5  O   UNL     1       4.281   4.056  17.249  0.00  0.00    +0.000 OA
ATOM      6  C   UNL     1       5.275   4.404  16.366  0.00  0.00    +0.000 A 
ATOM      7  C   UNL     1       5.132   3.990  15.041  0.00  0.00    +0.000 A 
ATOM      8  C   UNL     1       6.106   4.325  14.095  0.00  0.00    +0.000 A 
ATOM      9  C   UNL     1       7.220   5.066  14.488  0.00  0.00    +0.000 A 
ATOM     10  C   UNL     1       7.375   5.481  15.805  0.00  0.00    +0.000 A 
ATOM     11  C   UNL     1       6.394   5.148  16.741  0.00  0.00    +0.000 A 
ENDROOT
BRANCH   4  12
ATOM     12  C   UNL     1       3.336   4.034  19.462  0.00  0.00    +0.000 A 
ATOM     13  C   UNL     1       2.091   4.679  19.424  0.00  0.00    +0.000 A 
ATOM     14  C   UNL     1       1.074   4.325  20.320  0.00  0.00    +0.000 A 
ATOM     15  C   UNL     1       1.289   3.320  21.266  0.00  0.00    +0.000 A 
ATOM     16  C   UNL     1       2.519   2.676  21.301  0.00  0.00    +0.000 A 
ATOM     17  C   UNL     1       3.535   3.026  20.410  0.00  0.00    +0.000 A 
BRANCH  16  18
ATOM     18  O   UNL     1       2.786   1.689  22.212  0.00  0.00    +0.000 OA
ATOM     19  H   UNL     1       2.187   0.943  22.036  0.00  0.00    +0.000 HD
ENDBRANCH  16  18
BRANCH  17  20
ATOM     20  O   UNL     1       4.736   2.374  20.495  0.00  0.00    +0.000 OA
ATOM     21  H   UNL     1       5.159   2.733  21.300  0.00  0.00    +0.000 HD
ENDBRANCH  17  20
ENDBRANCH   4  12
BRANCH   9  22
ATOM     22  O   UNL     1       8.192   5.412  13.598  0.00  0.00    +0.000 OA
ATOM     23  H   UNL     1       8.674   6.185  13.936  0.00  0.00    +0.000 HD
ENDBRANCH   9  22
TORSDOF 4
ENDMDL
MODEL 9
REMARK VINA RESULT:      -7.3      1.747      6.823
REMARK  Name = 
REMARK  4 active torsions:
REMARK  status: ('A' for Active; 'I' for Inactive)
REMARK    1  A    between atoms: C_4  and  C_5
REMARK    2  A    between atoms: C_9  and  O_10
REMARK    3  A    between atoms: C_11  and  O_12
REMARK    4  A    between atoms: C_17  and  O_18
REMARK                            x       y       z     vdW  Elec       q    Type
REMARK                         _______ _______ _______ _____ _____    ______ ____
ROOT
ATOM      1  O   UNL     1       6.472   7.449  17.389  0.00  0.00    +0.000 OA
ATOM      2  C   UNL     1       5.813   6.439  17.176  0.00  0.00    +0.000 A 
ATOM      3  C   UNL     1       4.749   6.023  18.100  0.00  0.00    +0.000 A 
ATOM      4  C   UNL     1       4.048   4.914  17.823  0.00  0.00    +0.000 A 
ATOM      5  O   UNL     1       4.232   4.113  16.710  0.00  0.00    +0.000 OA
ATOM      6  C   UNL     1       5.218   4.467  15.821  0.00  0.00    +0.000 A 
ATOM      7  C   UNL     1       5.395   3.656  14.699  0.00  0.00    +0.000 A 
ATOM      8  C   UNL     1       6.376   3.974  13.754  0.00  0.00    +0.000 A 
ATOM      9  C   UNL     1       7.176   5.098  13.945  0.00  0.00    +0.000 A 
ATOM     10  C   UNL     1       7.012   5.912  15.060  0.00  0.00    +0.000 A 
ATOM     11  C   UNL     1       6.027   5.591  15.995  0.00  0.00    +0.000 A 
ENDROOT
BRANCH   4  12
ATOM     12  C   UNL     1       3.002   4.464  18.748  0.00  0.00    +0.000 A 
ATOM     13  C   UNL     1       3.004   4.906  20.080  0.00  0.00    +0.000 A 
ATOM     14  C   UNL     1       2.052   4.432  20.991  0.00  0.00    +0.000 A 
ATOM     15  C   UNL     1       1.084   3.511  20.584  0.00  0.00    +0.000 A 
ATOM     16  C   UNL     1       1.077   3.078  19.264  0.00  0.00    +0.000 A 
ATOM     17  C   UNL     1       2.024   3.547  18.352  0.00  0.00    +0.000 A 
BRANCH  16  18
ATOM     18  O   UNL     1       0.156   2.171  18.812  0.00  0.00    +0.000 OA
ATOM     19  H   UNL     1       0.458   1.833  17.951  0.00  0.00    +0.000 HD
ENDBRANCH  16  18
BRANCH  17  20
ATOM     20  O   UNL     1       1.987   3.077  17.066  0.00  0.00    +0.000 OA
ATOM     21  H   UNL     1       2.709   2.420  17.019  0.00  0.00    +0.000 HD
ENDBRANCH  17  20
ENDBRANCH   4  12
BRANCH   9  22
ATOM     22  O   UNL     1       8.144   5.442  13.049  0.00  0.00    +0.000 OA
ATOM     23  H   UNL     1       9.007   5.442  13.495  0.00  0.00    +0.000 HD
ENDBRANCH   9  22
TORSDOF 4
ENDMDL
