MODEL 1
REMARK VINA RESULT:      -7.8      0.000      0.000
REMARK  Name = 
REMARK  8 active torsions:
REMARK  status: ('A' for Active; 'I' for Inactive)
REMARK    1  A    between atoms: C_1  and  C_2
REMARK    2  A    between atoms: C_2  and  N_3
REMARK    3  A    between atoms: C_5  and  C_6
REMARK    4  A    between atoms: C_6  and  N_7
REMARK    5  A    between atoms: N_10  and  C_11
REMARK    6  A    between atoms: N_10  and  C_12
REMARK    7  A    between atoms: C_12  and  C_13
REMARK    8  A    between atoms: C_16  and  C_17
REMARK                            x       y       z     vdW  Elec       q    Type
REMARK                         _______ _______ _______ _____ _____    ______ ____
ROOT
ATOM      1  N   UNL     1       8.147   8.146  18.371  0.00  0.00    +0.000 N 
ATOM      2  C   UNL     1       7.875   6.983  17.705  0.00  0.00    +0.000 C 
ATOM      3  O   UNL     1       7.654   6.981  16.494  0.00  0.00    +0.000 OA
ATOM      4  N   UNL     1       7.885   5.830  18.467  0.00  0.00    +0.000 N 
ATOM      5  C   UNL     1       8.000   5.737  19.919  0.00  0.00    +0.000 C 
ATOM      6  H   UNL     1       8.564   8.087  19.281  0.00  0.00    +0.000 HD
ENDROOT
BRANCH   1   7
ATOM      7  C   UNL     1       8.209   9.440  17.717  0.00  0.00    +0.000 C 
BRANCH   7  10
ATOM      8  N   UNL     1       9.777  12.560  18.932  0.00  0.00    +0.000 N 
ATOM      9  C   UNL     1       8.976  11.876  17.946  0.00  0.00    +0.000 C 
ATOM     10  C   UNL     1       8.584  10.587  18.652  0.00  0.00    +0.000 C 
ATOM     11  C   UNL     1       9.780  10.304  19.570  0.00  0.00    +0.000 C 
ATOM     12  C   UNL     1      10.354  11.674  19.831  0.00  0.00    +0.000 C 
ATOM     13  O   UNL     1      11.218  11.923  20.658  0.00  0.00    +0.000 OA
BRANCH   8  15
ATOM     14  C   UNL     1       9.664  14.895  19.727  0.00  0.00    +0.000 C 
ATOM     15  C   UNL     1      10.256  13.915  18.727  0.00  0.00    +0.000 C 
ENDBRANCH   8  15
ENDBRANCH   7  10
ENDBRANCH   1   7
BRANCH   4  16
ATOM     16  C   UNL     1       7.602   4.568  17.782  0.00  0.00    +0.000 C 
BRANCH  16  17
ATOM     17  C   UNL     1       6.125   4.317  17.702  0.00  0.00    +0.000 A 
ATOM     18  C   UNL     1       5.369   4.321  16.546  0.00  0.00    +0.000 A 
ATOM     19  S   UNL     1       3.748   3.920  16.896  0.00  0.00    +0.000 S 
ATOM     20  C   UNL     1       4.144   3.766  18.570  0.00  0.00    +0.000 A 
ATOM     21  N   UNL     1       5.408   4.023  18.860  0.00  0.00    +0.000 NA
BRANCH  20  22
ATOM     22  C   UNL     1       3.098   3.445  19.559  0.00  0.00    +0.000 A 
ATOM     23  C   UNL     1       3.398   2.978  20.851  0.00  0.00    +0.000 A 
ATOM     24  C   UNL     1       2.380   2.623  21.743  0.00  0.00    +0.000 A 
ATOM     25  C   UNL     1       1.047   2.739  21.361  0.00  0.00    +0.000 A 
ATOM     26  C   UNL     1       0.728   3.232  20.097  0.00  0.00    +0.000 A 
ATOM     27  C   UNL     1       1.747   3.590  19.208  0.00  0.00    +0.000 A 
ENDBRANCH  20  22
ENDBRANCH  16  17
ENDBRANCH   4  16
TORSDOF 6
ENDMDL
MODEL 2
REMARK VINA RESULT:      -7.5      5.632      8.002
REMARK  Name = 
REMARK  8 active torsions:
REMARK  status: ('A' for Active; 'I' for Inactive)
REMARK    1  A    between atoms: C_1  and  C_2
REMARK    2  A    between atoms: C_2  and  N_3
REMARK    3  A    between atoms: C_5  and  C_6
REMARK    4  A    between atoms: C_6  and  N_7
REMARK    5  A    between atoms: N_10  and  C_11
REMARK    6  A    between atoms: N_10  and  C_12
REMARK    7  A    between atoms: C_12  and  C_13
REMARK    8  A    between atoms: C_16  and  C_17
REMARK                            x       y       z     vdW  Elec       q    Type
REMARK                         _______ _______ _______ _____ _____    ______ ____
ROOT
ATOM      1  N   UNL     1       2.198   7.102  20.011  0.00  0.00    +0.000 N 
ATOM      2  C   UNL     1       2.448   6.205  19.011  0.00  0.00    +0.000 C 
ATOM      3  O   UNL     1       2.410   6.544  17.828  0.00  0.00    +0.000 OA
ATOM      4  N   UNL     1       2.762   4.920  19.411  0.00  0.00    +0.000 N 
ATOM      5  C   UNL     1       2.703   4.383  20.767  0.00  0.00    +0.000 C 
ATOM      6  H   UNL     1       2.480   6.866  20.945  0.00  0.00    +0.000 HD
ENDROOT
BRANCH   1   7
ATOM      7  C   UNL     1       1.887   8.499  19.767  0.00  0.00    +0.000 C 
BRANCH   7  10
ATOM      8  N   UNL     1      -0.651  10.818  21.126  0.00  0.00    +0.000 N 
ATOM      9  C   UNL     1       0.090  10.314  19.995  0.00  0.00    +0.000 C 
ATOM     10  C   UNL     1       0.648   8.995  20.508  0.00  0.00    +0.000 C 
ATOM     11  C   UNL     1       0.854   9.251  22.006  0.00  0.00    +0.000 C 
ATOM     12  C   UNL     1      -0.170  10.313  22.324  0.00  0.00    +0.000 C 
ATOM     13  O   UNL     1      -0.464  10.683  23.450  0.00  0.00    +0.000 OA
BRANCH   8  15
ATOM     14  C   UNL     1      -2.029  12.225  19.636  0.00  0.00    +0.000 C 
ATOM     15  C   UNL     1      -1.473  12.012  21.034  0.00  0.00    +0.000 C 
ENDBRANCH   8  15
ENDBRANCH   7  10
ENDBRANCH   1   7
BRANCH   4  16
ATOM     16  C   UNL     1       3.040   3.937  18.364  0.00  0.00    +0.000 C 
BRANCH  16  17
ATOM     17  C   UNL     1       4.366   4.203  17.713  0.00  0.00    +0.000 A 
ATOM     18  C   UNL     1       5.541   4.505  18.374  0.00  0.00    +0.000 A 
ATOM     19  S   UNL     1       6.823   4.662  17.259  0.00  0.00    +0.000 S 
ATOM     20  C   UNL     1       5.740   4.321  15.958  0.00  0.00    +0.000 A 
ATOM     21  N   UNL     1       4.486   4.124  16.327  0.00  0.00    +0.000 NA
BRANCH  20  22
ATOM     22  C   UNL     1       6.220   4.335  14.563  0.00  0.00    +0.000 A 
ATOM     23  C   UNL     1       5.657   3.522  13.563  0.00  0.00    +0.000 A 
ATOM     24  C   UNL     1       6.177   3.514  12.264  0.00  0.00    +0.000 A 
ATOM     25  C   UNL     1       7.260   4.327  11.943  0.00  0.00    +0.000 A 
ATOM     26  C   UNL     1       7.809   5.165  12.910  0.00  0.00    +0.000 A 
ATOM     27  C   UNL     1       7.287   5.175  14.208  0.00  0.00    +0.000 A 
ENDBRANCH  20  22
ENDBRANCH  16  17
ENDBRANCH   4  16
TORSDOF 6
ENDMDL
MODEL 3
REMARK VINA RESULT:      -7.5      7.439     10.100
REMARK  Name = 
REMARK  8 active torsions:
REMARK  status: ('A' for Active; 'I' for Inactive)
REMARK    1  A    between atoms: C_1  and  C_2
REMARK    2  A    between atoms: C_2  and  N_3
REMARK    3  A    between atoms: C_5  and  C_6
REMARK    4  A    between atoms: C_6  and  N_7
REMARK    5  A    between atoms: N_10  and  C_11
REMARK    6  A    between atoms: N_10  and  C_12
REMARK    7  A    between atoms: C_12  and  C_13
REMARK    8  A    between atoms: C_16  and  C_17
REMARK                            x       y       z     vdW  Elec       q    Type
REMARK                         _______ _______ _______ _____ _____    ______ ____
ROOT
ATOM      1  N   UNL     1       2.387   7.826  18.693  0.00  0.00    +0.000 N 
ATOM      2  C   UNL     1       1.846   9.050  18.410  0.00  0.00    +0.000 C 
ATOM      3  O   UNL     1       2.140   9.651  17.377  0.00  0.00    +0.000 OA
ATOM      4  N   UNL     1       0.948   9.546  19.336  0.00  0.00    +0.000 N 
ATOM      5  C   UNL     1       0.635   8.983  20.646  0.00  0.00    +0.000 C 
ATOM      6  H   UNL     1       1.945   7.261  19.395  0.00  0.00    +0.000 HD
ENDROOT
BRANCH   1   7
ATOM      7  C   UNL     1       3.319   7.146  17.813  0.00  0.00    +0.000 C 
BRANCH   7  10
ATOM      8  N   UNL     1       2.854   3.829  19.378  0.00  0.00    +0.000 N 
ATOM      9  C   UNL     1       2.295   5.088  18.947  0.00  0.00    +0.000 C 
ATOM     10  C   UNL     1       3.354   5.632  18.001  0.00  0.00    +0.000 C 
ATOM     11  C   UNL     1       4.666   5.086  18.580  0.00  0.00    +0.000 C 
ATOM     12  C   UNL     1       4.238   3.822  19.286  0.00  0.00    +0.000 C 
ATOM     13  O   UNL     1       5.002   2.984  19.738  0.00  0.00    +0.000 OA
BRANCH   8  15
ATOM     14  C   UNL     1       2.053   3.320  21.657  0.00  0.00    +0.000 C 
ATOM     15  C   UNL     1       2.104   2.896  20.198  0.00  0.00    +0.000 C 
ENDBRANCH   8  15
ENDBRANCH   7  10
ENDBRANCH   1   7
BRANCH   4  16
ATOM     16  C   UNL     1       0.348  10.852  19.059  0.00  0.00    +0.000 C 
BRANCH  16  17
ATOM     17  C   UNL     1      -1.010  10.701  18.440  0.00  0.00    +0.000 A 
ATOM     18  C   UNL     1      -1.325   9.873  17.380  0.00  0.00    +0.000 A 
ATOM     19  S   UNL     1      -2.995   9.955  17.040  0.00  0.00    +0.000 S 
ATOM     20  C   UNL     1      -3.205  11.091  18.323  0.00  0.00    +0.000 A 
ATOM     21  N   UNL     1      -2.090  11.413  18.957  0.00  0.00    +0.000 NA
BRANCH  20  22
ATOM     22  C   UNL     1      -4.532  11.675  18.594  0.00  0.00    +0.000 A 
ATOM     23  C   UNL     1      -4.765  12.556  19.665  0.00  0.00    +0.000 A 
ATOM     24  C   UNL     1      -6.049  13.043  19.932  0.00  0.00    +0.000 A 
ATOM     25  C   UNL     1      -7.118  12.665  19.125  0.00  0.00    +0.000 A 
ATOM     26  C   UNL     1      -6.903  11.821  18.038  0.00  0.00    +0.000 A 
ATOM     27  C   UNL     1      -5.617  11.337  17.771  0.00  0.00    +0.000 A 
ENDBRANCH  20  22
ENDBRANCH  16  17
ENDBRANCH   4  16
TORSDOF 6
ENDMDL
MODEL 4
REMARK VINA RESULT:      -7.4      5.836      8.153
REMARK  Name = 
REMARK  8 active torsions:
REMARK  status: ('A' for Active; 'I' for Inactive)
REMARK    1  A    between atoms: C_1  and  C_2
REMARK    2  A    between atoms: C_2  and  N_3
REMARK    3  A    between atoms: C_5  and  C_6
REMARK    4  A    between atoms: C_6  and  N_7
REMARK    5  A    between atoms: N_10  and  C_11
REMARK    6  A    between atoms: N_10  and  C_12
REMARK    7  A    between atoms: C_12  and  C_13
REMARK    8  A    between atoms: C_16  and  C_17
REMARK                            x       y       z     vdW  Elec       q    Type
REMARK                         _______ _______ _______ _____ _____    ______ ____
ROOT
ATOM      1  N   UNL     1       1.803   7.358  20.398  0.00  0.00    +0.000 N 
ATOM      2  C   UNL     1       2.242   6.097  20.107  0.00  0.00    +0.000 C 
ATOM      3  O   UNL     1       2.242   5.210  20.962  0.00  0.00    +0.000 OA
ATOM      4  N   UNL     1       2.659   5.883  18.807  0.00  0.00    +0.000 N 
ATOM      5  C   UNL     1       2.827   6.888  17.762  0.00  0.00    +0.000 C 
ATOM      6  H   UNL     1       1.580   7.972  19.637  0.00  0.00    +0.000 HD
ENDROOT
BRANCH   1   7
ATOM      7  C   UNL     1       1.299   7.743  21.704  0.00  0.00    +0.000 C 
BRANCH   7  10
ATOM      8  N   UNL     1      -0.373  11.005  21.222  0.00  0.00    +0.000 N 
ATOM      9  C   UNL     1       0.461   9.949  20.701  0.00  0.00    +0.000 C 
ATOM     10  C   UNL     1       0.193   8.794  21.654  0.00  0.00    +0.000 C 
ATOM     11  C   UNL     1      -0.092   9.491  22.990  0.00  0.00    +0.000 C 
ATOM     12  C   UNL     1      -0.629  10.839  22.575  0.00  0.00    +0.000 C 
ATOM     13  O   UNL     1      -1.145  11.647  23.331  0.00  0.00    +0.000 OA
BRANCH   8  15
ATOM     14  C   UNL     1      -1.026  12.088  19.101  0.00  0.00    +0.000 C 
ATOM     15  C   UNL     1      -0.534  12.270  20.528  0.00  0.00    +0.000 C 
ENDBRANCH   8  15
ENDBRANCH   7  10
ENDBRANCH   1   7
BRANCH   4  16
ATOM     16  C   UNL     1       3.131   4.541  18.463  0.00  0.00    +0.000 C 
BRANCH  16  17
ATOM     17  C   UNL     1       4.466   4.597  17.781  0.00  0.00    +0.000 A 
ATOM     18  C   UNL     1       5.688   4.727  18.413  0.00  0.00    +0.000 A 
ATOM     19  S   UNL     1       6.954   4.677  17.270  0.00  0.00    +0.000 S 
ATOM     20  C   UNL     1       5.803   4.488  15.997  0.00  0.00    +0.000 A 
ATOM     21  N   UNL     1       4.542   4.487  16.394  0.00  0.00    +0.000 NA
BRANCH  20  22
ATOM     22  C   UNL     1       6.247   4.415  14.592  0.00  0.00    +0.000 A 
ATOM     23  C   UNL     1       5.642   3.562  13.652  0.00  0.00    +0.000 A 
ATOM     24  C   UNL     1       6.128   3.470  12.344  0.00  0.00    +0.000 A 
ATOM     25  C   UNL     1       7.221   4.238  11.952  0.00  0.00    +0.000 A 
ATOM     26  C   UNL     1       7.814   5.115  12.858  0.00  0.00    +0.000 A 
ATOM     27  C   UNL     1       7.324   5.208  14.165  0.00  0.00    +0.000 A 
ENDBRANCH  20  22
ENDBRANCH  16  17
ENDBRANCH   4  16
TORSDOF 6
ENDMDL
MODEL 5
REMARK VINA RESULT:      -7.3      7.893     10.622
REMARK  Name = 
REMARK  8 active torsions:
REMARK  status: ('A' for Active; 'I' for Inactive)
REMARK    1  A    between atoms: C_1  and  C_2
REMARK    2  A    between atoms: C_2  and  N_3
REMARK    3  A    between atoms: C_5  and  C_6
REMARK    4  A    between atoms: C_6  and  N_7
REMARK    5  A    between atoms: N_10  and  C_11
REMARK    6  A    between atoms: N_10  and  C_12
REMARK    7  A    between atoms: C_12  and  C_13
REMARK    8  A    between atoms: C_16  and  C_17
REMARK                            x       y       z     vdW  Elec       q    Type
REMARK                         _______ _______ _______ _____ _____    ______ ____
ROOT
ATOM      1  N   UNL     1       1.871   8.087  19.336  0.00  0.00    +0.000 N 
ATOM      2  C   UNL     1       1.418   9.203  18.689  0.00  0.00    +0.000 C 
ATOM      3  O   UNL     1       1.767   9.455  17.536  0.00  0.00    +0.000 OA
ATOM      4  N   UNL     1       0.542  10.003  19.398  0.00  0.00    +0.000 N 
ATOM      5  C   UNL     1       0.172   9.871  20.804  0.00  0.00    +0.000 C 
ATOM      6  H   UNL     1       1.383   7.782  20.158  0.00  0.00    +0.000 HD
ENDROOT
BRANCH   1   7
ATOM      7  C   UNL     1       2.769   7.124  18.726  0.00  0.00    +0.000 C 
BRANCH   7  10
ATOM      8  N   UNL     1       3.242   3.622  19.813  0.00  0.00    +0.000 N 
ATOM      9  C   UNL     1       3.529   4.680  18.874  0.00  0.00    +0.000 C 
ATOM     10  C   UNL     1       3.098   5.932  19.621  0.00  0.00    +0.000 C 
ATOM     11  C   UNL     1       1.935   5.445  20.496  0.00  0.00    +0.000 C 
ATOM     12  C   UNL     1       2.243   3.982  20.705  0.00  0.00    +0.000 C 
ATOM     13  O   UNL     1       1.659   3.252  21.491  0.00  0.00    +0.000 OA
BRANCH   8  15
ATOM     14  C   UNL     1       3.289   1.799  18.148  0.00  0.00    +0.000 C 
ATOM     15  C   UNL     1       3.629   2.246  19.561  0.00  0.00    +0.000 C 
ENDBRANCH   8  15
ENDBRANCH   7  10
ENDBRANCH   1   7
BRANCH   4  16
ATOM     16  C   UNL     1       0.035  11.203  18.731  0.00  0.00    +0.000 C 
BRANCH  16  17
ATOM     17  C   UNL     1      -1.348  10.978  18.194  0.00  0.00    +0.000 A 
ATOM     18  C   UNL     1      -1.692  10.074  17.207  0.00  0.00    +0.000 A 
ATOM     19  S   UNL     1      -3.378  10.092  16.949  0.00  0.00    +0.000 S 
ATOM     20  C   UNL     1      -3.556  11.305  18.165  0.00  0.00    +0.000 A 
ATOM     21  N   UNL     1      -2.420  11.696  18.719  0.00  0.00    +0.000 NA
BRANCH  20  22
ATOM     22  C   UNL     1      -4.883  11.874  18.465  0.00  0.00    +0.000 A 
ATOM     23  C   UNL     1      -5.931  11.881  17.527  0.00  0.00    +0.000 A 
ATOM     24  C   UNL     1      -7.159  12.484  17.823  0.00  0.00    +0.000 A 
ATOM     25  C   UNL     1      -7.360  13.080  19.064  0.00  0.00    +0.000 A 
ATOM     26  C   UNL     1      -6.347  13.052  20.020  0.00  0.00    +0.000 A 
ATOM     27  C   UNL     1      -5.122  12.447  19.724  0.00  0.00    +0.000 A 
ENDBRANCH  20  22
ENDBRANCH  16  17
ENDBRANCH   4  16
TORSDOF 6
ENDMDL
MODEL 6
REMARK VINA RESULT:      -7.3      7.650     10.289
REMARK  Name = 
REMARK  8 active torsions:
REMARK  status: ('A' for Active; 'I' for Inactive)
REMARK    1  A    between atoms: C_1  and  C_2
REMARK    2  A    between atoms: C_2  and  N_3
REMARK    3  A    between atoms: C_5  and  C_6
REMARK    4  A    between atoms: C_6  and  N_7
REMARK    5  A    between atoms: N_10  and  C_11
REMARK    6  A    between atoms: N_10  and  C_12
REMARK    7  A    between atoms: C_12  and  C_13
REMARK    8  A    between atoms: C_16  and  C_17
REMARK                            x       y       z     vdW  Elec       q    Type
REMARK                         _______ _______ _______ _____ _____    ______ ____
ROOT
ATOM      1  N   UNL     1       2.284   8.112  18.691  0.00  0.00    +0.000 N 
ATOM      2  C   UNL     1       1.709   9.320  18.410  0.00  0.00    +0.000 C 
ATOM      3  O   UNL     1       2.026   9.956  17.404  0.00  0.00    +0.000 OA
ATOM      4  N   UNL     1       0.752   9.761  19.304  0.00  0.00    +0.000 N 
ATOM      5  C   UNL     1       0.402   9.157  20.586  0.00  0.00    +0.000 C 
ATOM      6  H   UNL     1       1.834   7.515  19.361  0.00  0.00    +0.000 HD
ENDROOT
BRANCH   1   7
ATOM      7  C   UNL     1       3.281   7.489  17.841  0.00  0.00    +0.000 C 
BRANCH   7  10
ATOM      8  N   UNL     1       2.964   4.123  19.337  0.00  0.00    +0.000 N 
ATOM      9  C   UNL     1       2.359   5.381  18.972  0.00  0.00    +0.000 C 
ATOM     10  C   UNL     1       3.355   5.971  17.986  0.00  0.00    +0.000 C 
ATOM     11  C   UNL     1       4.706   5.437  18.478  0.00  0.00    +0.000 C 
ATOM     12  C   UNL     1       4.341   4.147  19.171  0.00  0.00    +0.000 C 
ATOM     13  O   UNL     1       5.144   3.312  19.558  0.00  0.00    +0.000 OA
BRANCH   8  15
ATOM     14  C   UNL     1       1.169   2.430  19.424  0.00  0.00    +0.000 C 
ATOM     15  C   UNL     1       2.277   3.154  20.171  0.00  0.00    +0.000 C 
ENDBRANCH   8  15
ENDBRANCH   7  10
ENDBRANCH   1   7
BRANCH   4  16
ATOM     16  C   UNL     1       0.114  11.049  19.028  0.00  0.00    +0.000 C 
BRANCH  16  17
ATOM     17  C   UNL     1      -1.232  10.859  18.394  0.00  0.00    +0.000 A 
ATOM     18  C   UNL     1      -1.521   9.990  17.360  0.00  0.00    +0.000 A 
ATOM     19  S   UNL     1      -3.186  10.039  16.991  0.00  0.00    +0.000 S 
ATOM     20  C   UNL     1      -3.430  11.218  18.229  0.00  0.00    +0.000 A 
ATOM     21  N   UNL     1      -2.329  11.576  18.868  0.00  0.00    +0.000 NA
BRANCH  20  22
ATOM     22  C   UNL     1      -4.767  11.795  18.458  0.00  0.00    +0.000 A 
ATOM     23  C   UNL     1      -5.777  11.772  17.480  0.00  0.00    +0.000 A 
ATOM     24  C   UNL     1      -7.015  12.383  17.707  0.00  0.00    +0.000 A 
ATOM     25  C   UNL     1      -7.265  13.019  18.920  0.00  0.00    +0.000 A 
ATOM     26  C   UNL     1      -6.290  13.023  19.915  0.00  0.00    +0.000 A 
ATOM     27  C   UNL     1      -5.054  12.409  19.688  0.00  0.00    +0.000 A 
ENDBRANCH  20  22
ENDBRANCH  16  17
ENDBRANCH   4  16
TORSDOF 6
ENDMDL
MODEL 7
REMARK VINA RESULT:      -7.3      2.708      3.151
REMARK  Name = 
REMARK  8 active torsions:
REMARK  status: ('A' for Active; 'I' for Inactive)
REMARK    1  A    between atoms: C_1  and  C_2
REMARK    2  A    between atoms: C_2  and  N_3
REMARK    3  A    between atoms: C_5  and  C_6
REMARK    4  A    between atoms: C_6  and  N_7
REMARK    5  A    between atoms: N_10  and  C_11
REMARK    6  A    between atoms: N_10  and  C_12
REMARK    7  A    between atoms: C_12  and  C_13
REMARK    8  A    between atoms: C_16  and  C_17
REMARK                            x       y       z     vdW  Elec       q    Type
REMARK                         _______ _______ _______ _____ _____    ______ ____
ROOT
ATOM      1  N   UNL     1       8.209   8.172  18.242  0.00  0.00    +0.000 N 
ATOM      2  C   UNL     1       7.416   7.222  17.661  0.00  0.00    +0.000 C 
ATOM      3  O   UNL     1       6.824   7.448  16.605  0.00  0.00    +0.000 OA
ATOM      4  N   UNL     1       7.344   6.008  18.315  0.00  0.00    +0.000 N 
ATOM      5  C   UNL     1       7.891   5.683  19.629  0.00  0.00    +0.000 C 
ATOM      6  H   UNL     1       8.864   7.881  18.944  0.00  0.00    +0.000 HD
ENDROOT
BRANCH   1   7
ATOM      7  C   UNL     1       8.423   9.489  17.669  0.00  0.00    +0.000 C 
BRANCH   7  10
ATOM      8  N   UNL     1       9.805  11.757  20.241  0.00  0.00    +0.000 N 
ATOM      9  C   UNL     1       9.089  10.549  19.906  0.00  0.00    +0.000 C 
ATOM     10  C   UNL     1       9.429  10.341  18.439  0.00  0.00    +0.000 C 
ATOM     11  C   UNL     1       9.603  11.769  17.905  0.00  0.00    +0.000 C 
ATOM     12  C   UNL     1      10.028  12.549  19.124  0.00  0.00    +0.000 C 
ATOM     13  O   UNL     1      10.441  13.698  19.108  0.00  0.00    +0.000 OA
BRANCH   8  15
ATOM     14  C   UNL     1       8.653  13.085  21.975  0.00  0.00    +0.000 C 
ATOM     15  C   UNL     1       9.872  12.257  21.602  0.00  0.00    +0.000 C 
ENDBRANCH   8  15
ENDBRANCH   7  10
ENDBRANCH   1   7
BRANCH   4  16
ATOM     16  C   UNL     1       6.506   4.968  17.715  0.00  0.00    +0.000 C 
BRANCH  16  17
ATOM     17  C   UNL     1       5.110   5.018  18.262  0.00  0.00    +0.000 A 
ATOM     18  C   UNL     1       4.335   3.923  18.593  0.00  0.00    +0.000 A 
ATOM     19  S   UNL     1       2.842   4.429  19.244  0.00  0.00    +0.000 S 
ATOM     20  C   UNL     1       3.310   6.079  19.046  0.00  0.00    +0.000 A 
ATOM     21  N   UNL     1       4.503   6.249  18.502  0.00  0.00    +0.000 NA
BRANCH  20  22
ATOM     22  C   UNL     1       2.380   7.167  19.404  0.00  0.00    +0.000 A 
ATOM     23  C   UNL     1       2.116   8.248  18.545  0.00  0.00    +0.000 A 
ATOM     24  C   UNL     1       1.278   9.296  18.941  0.00  0.00    +0.000 A 
ATOM     25  C   UNL     1       0.682   9.273  20.199  0.00  0.00    +0.000 A 
ATOM     26  C   UNL     1       0.904   8.194  21.051  0.00  0.00    +0.000 A 
ATOM     27  C   UNL     1       1.740   7.146  20.653  0.00  0.00    +0.000 A 
ENDBRANCH  20  22
ENDBRANCH  16  17
ENDBRANCH   4  16
TORSDOF 6
ENDMDL
MODEL 8
REMARK VINA RESULT:      -7.3      6.008      8.178
REMARK  Name = 
REMARK  8 active torsions:
REMARK  status: ('A' for Active; 'I' for Inactive)
REMARK    1  A    between atoms: C_1  and  C_2
REMARK    2  A    between atoms: C_2  and  N_3
REMARK    3  A    between atoms: C_5  and  C_6
REMARK    4  A    between atoms: C_6  and  N_7
REMARK    5  A    between atoms: N_10  and  C_11
REMARK    6  A    between atoms: N_10  and  C_12
REMARK    7  A    between atoms: C_12  and  C_13
REMARK    8  A    between atoms: C_16  and  C_17
REMARK                            x       y       z     vdW  Elec       q    Type
REMARK                         _______ _______ _______ _____ _____    ______ ____
ROOT
ATOM      1  N   UNL     1       1.803   8.089  20.270  0.00  0.00    +0.000 N 
ATOM      2  C   UNL     1       2.099   6.807  19.901  0.00  0.00    +0.000 C 
ATOM      3  O   UNL     1       1.887   5.862  20.661  0.00  0.00    +0.000 OA
ATOM      4  N   UNL     1       2.624   6.645  18.633  0.00  0.00    +0.000 N 
ATOM      5  C   UNL     1       3.038   7.699  17.712  0.00  0.00    +0.000 C 
ATOM      6  H   UNL     1       1.749   8.791  19.554  0.00  0.00    +0.000 HD
ENDROOT
BRANCH   1   7
ATOM      7  C   UNL     1       1.215   8.432  21.552  0.00  0.00    +0.000 C 
BRANCH   7  10
ATOM      8  N   UNL     1      -0.494  11.708  21.428  0.00  0.00    +0.000 N 
ATOM      9  C   UNL     1       0.516  10.815  20.914  0.00  0.00    +0.000 C 
ATOM     10  C   UNL     1       0.090   9.461  21.460  0.00  0.00    +0.000 C 
ATOM     11  C   UNL     1      -0.575   9.807  22.798  0.00  0.00    +0.000 C 
ATOM     12  C   UNL     1      -1.077  11.215  22.586  0.00  0.00    +0.000 C 
ATOM     13  O   UNL     1      -1.823  11.811  23.347  0.00  0.00    +0.000 OA
BRANCH   8  15
ATOM     14  C   UNL     1      -0.467  13.287  19.529  0.00  0.00    +0.000 C 
ATOM     15  C   UNL     1      -0.556  13.105  21.036  0.00  0.00    +0.000 C 
ENDBRANCH   8  15
ENDBRANCH   7  10
ENDBRANCH   1   7
BRANCH   4  16
ATOM     16  C   UNL     1       2.948   5.283  18.207  0.00  0.00    +0.000 C 
BRANCH  16  17
ATOM     17  C   UNL     1       4.323   5.216  17.611  0.00  0.00    +0.000 A 
ATOM     18  C   UNL     1       5.509   5.371  18.301  0.00  0.00    +0.000 A 
ATOM     19  S   UNL     1       6.838   5.151  17.254  0.00  0.00    +0.000 S 
ATOM     20  C   UNL     1       5.758   4.864  15.937  0.00  0.00    +0.000 A 
ATOM     21  N   UNL     1       4.476   4.951  16.251  0.00  0.00    +0.000 NA
BRANCH  20  22
ATOM     22  C   UNL     1       6.282   4.621  14.580  0.00  0.00    +0.000 A 
ATOM     23  C   UNL     1       7.446   5.245  14.097  0.00  0.00    +0.000 A 
ATOM     24  C   UNL     1       7.882   5.040  12.784  0.00  0.00    +0.000 A 
ATOM     25  C   UNL     1       7.166   4.200  11.936  0.00  0.00    +0.000 A 
ATOM     26  C   UNL     1       6.030   3.545  12.406  0.00  0.00    +0.000 A 
ATOM     27  C   UNL     1       5.597   3.748  13.721  0.00  0.00    +0.000 A 
ENDBRANCH  20  22
ENDBRANCH  16  17
ENDBRANCH   4  16
TORSDOF 6
ENDMDL
MODEL 9
REMARK VINA RESULT:      -7.2      5.426      8.481
REMARK  Name = 
REMARK  8 active torsions:
REMARK  status: ('A' for Active; 'I' for Inactive)
REMARK    1  A    between atoms: C_1  and  C_2
REMARK    2  A    between atoms: C_2  and  N_3
REMARK    3  A    between atoms: C_5  and  C_6
REMARK    4  A    between atoms: C_6  and  N_7
REMARK    5  A    between atoms: N_10  and  C_11
REMARK    6  A    between atoms: N_10  and  C_12
REMARK    7  A    between atoms: C_12  and  C_13
REMARK    8  A    between atoms: C_16  and  C_17
REMARK                            x       y       z     vdW  Elec       q    Type
REMARK                         _______ _______ _______ _____ _____    ______ ____
ROOT
ATOM      1  N   UNL     1       5.780   4.002  15.202  0.00  0.00    +0.000 N 
ATOM      2  C   UNL     1       5.973   4.269  16.529  0.00  0.00    +0.000 C 
ATOM      3  O   UNL     1       6.988   4.845  16.920  0.00  0.00    +0.000 OA
ATOM      4  N   UNL     1       4.961   3.873  17.381  0.00  0.00    +0.000 N 
ATOM      5  C   UNL     1       3.790   3.070  17.043  0.00  0.00    +0.000 C 
ATOM      6  H   UNL     1       4.855   3.769  14.892  0.00  0.00    +0.000 HD
ENDROOT
BRANCH   1   7
ATOM      7  C   UNL     1       6.728   4.380  14.169  0.00  0.00    +0.000 C 
BRANCH   7  10
ATOM      8  N   UNL     1       4.662   3.051  11.406  0.00  0.00    +0.000 N 
ATOM      9  C   UNL     1       4.836   3.998  12.481  0.00  0.00    +0.000 C 
ATOM     10  C   UNL     1       6.328   3.924  12.768  0.00  0.00    +0.000 C 
ATOM     11  C   UNL     1       6.684   2.469  12.438  0.00  0.00    +0.000 C 
ATOM     12  C   UNL     1       5.651   2.079  11.410  0.00  0.00    +0.000 C 
ATOM     13  O   UNL     1       5.677   1.052  10.750  0.00  0.00    +0.000 OA
BRANCH   8  15
ATOM     14  C   UNL     1       3.082   4.071   9.805  0.00  0.00    +0.000 C 
ATOM     15  C   UNL     1       3.392   2.896  10.718  0.00  0.00    +0.000 C 
ENDBRANCH   8  15
ENDBRANCH   7  10
ENDBRANCH   1   7
BRANCH   4  16
ATOM     16  C   UNL     1       5.135   4.149  18.808  0.00  0.00    +0.000 C 
BRANCH  16  17
ATOM     17  C   UNL     1       3.915   4.805  19.384  0.00  0.00    +0.000 A 
ATOM     18  C   UNL     1       3.036   4.227  20.279  0.00  0.00    +0.000 A 
ATOM     19  S   UNL     1       1.828   5.344  20.729  0.00  0.00    +0.000 S 
ATOM     20  C   UNL     1       2.542   6.536  19.704  0.00  0.00    +0.000 A 
ATOM     21  N   UNL     1       3.608   6.120  19.041  0.00  0.00    +0.000 NA
BRANCH  20  22
ATOM     22  C   UNL     1       1.924   7.867  19.563  0.00  0.00    +0.000 A 
ATOM     23  C   UNL     1       1.274   8.515  20.629  0.00  0.00    +0.000 A 
ATOM     24  C   UNL     1       0.644   9.750  20.445  0.00  0.00    +0.000 A 
ATOM     25  C   UNL     1       0.662  10.362  19.195  0.00  0.00    +0.000 A 
ATOM     26  C   UNL     1       1.330   9.754  18.135  0.00  0.00    +0.000 A 
ATOM     27  C   UNL     1       1.963   8.520  18.321  0.00  0.00    +0.000 A 
ENDBRANCH  20  22
ENDBRANCH  16  17
ENDBRANCH   4  16
TORSDOF 6
ENDMDL
