MODEL 1
REMARK VINA RESULT:      -6.3      0.000      0.000
REMARK  Name = 
REMARK  9 active torsions:
REMARK  status: ('A' for Active; 'I' for Inactive)
REMARK    1  A    between atoms: C_1  and  C_2
REMARK    2  A    between atoms: C_4  and  C_5
REMARK    3  A    between atoms: C_6  and  O_7
REMARK    4  A    between atoms: C_12  and  C_13
REMARK    5  A    between atoms: C_17  and  C_18
REMARK    6  A    between atoms: C_25  and  C_26
REMARK    7  A    between atoms: C_28  and  O_29
REMARK    8  A    between atoms: C_30  and  C_31
REMARK    9  A    between atoms: C_33  and  C_34
REMARK                            x       y       z     vdW  Elec       q    Type
REMARK                         _______ _______ _______ _____ _____    ______ ____
ROOT
ATOM      1  C   UNL     1      -0.445  16.487  18.439  0.00  0.00    +0.000 C 
ATOM      2  C   UNL     1       0.121  16.220  19.843  0.00  0.00    +0.000 C 
ATOM      3  C   UNL     1      -0.741  17.043  20.863  0.00  0.00    +0.000 C 
ATOM      4  C   UNL     1      -1.263  16.149  22.077  0.00  0.00    +0.000 C 
ATOM      5  C   UNL     1       0.146  15.805  22.734  0.00  0.00    +0.000 C 
ATOM      6  C   UNL     1      -2.672  15.166  21.547  0.00  0.00    +0.000 C 
ATOM      7  C   UNL     1      -3.691  13.910  22.094  0.00  0.00    +0.000 C 
ATOM      8  C   UNL     1      -4.162  13.252  23.445  0.00  0.00    +0.000 C 
ATOM      9  O   UNL     1      -4.390  12.042  23.537  0.00  0.00    +0.000 OA
ATOM     10  O   UNL     1      -4.318  14.011  24.569  0.00  0.00    +0.000 OA
ATOM     11  C   UNL     1      -3.545  15.179  24.505  0.00  0.00    +0.000 C 
ATOM     12  C   UNL     1      -1.974  14.491  24.330  0.00  0.00    +0.000 C 
ATOM     13  C   UNL     1      -1.453  13.198  23.298  0.00  0.00    +0.000 C 
ATOM     14  C   UNL     1      -0.849  13.169  22.052  0.00  0.00    +0.000 C 
ATOM     15  C   UNL     1      -1.104  12.316  20.841  0.00  0.00    +0.000 C 
ATOM     16  C   UNL     1      -0.837  12.520  19.480  0.00  0.00    +0.000 C 
ATOM     17  C   UNL     1       0.304  13.189  18.764  0.00  0.00    +0.000 C 
ATOM     18  C   UNL     1       1.713  12.691  19.137  0.00  0.00    +0.000 C 
ATOM     19  C   UNL     1       2.142  11.414  18.391  0.00  0.00    +0.000 C 
ATOM     20  C   UNL     1       2.727  13.834  18.918  0.00  0.00    +0.000 C 
ATOM     21  C   UNL     1       2.721  15.042  19.922  0.00  0.00    +0.000 C 
ATOM     22  C   UNL     1       3.034  14.521  21.341  0.00  0.00    +0.000 C 
ATOM     23  C   UNL     1       1.703  16.286  19.826  0.00  0.00    +0.000 C 
ENDROOT
BRANCH  11  24
ATOM     24  C   UNL     1      -4.530  16.222  23.714  0.00  0.00    +0.000 C 
ATOM     25  C   UNL     1      -4.268  17.735  23.731  0.00  0.00    +0.000 C 
ATOM     26  C   UNL     1      -5.570  18.451  23.388  0.00  0.00    +0.000 C 
ATOM     27  C   UNL     1      -6.683  17.453  23.579  0.00  0.00    +0.000 C 
ATOM     28  C   UNL     1      -6.054  16.171  24.161  0.00  0.00    +0.000 C 
BRANCH  28  29
ATOM     29  C   UNL     1      -6.932  15.051  23.617  0.00  0.00    +0.000 C 
ATOM     30  N   UNL     1      -7.423  14.186  24.557  0.00  0.00    +0.000 N 
ATOM     31  O   UNL     1      -7.265  14.941  22.430  0.00  0.00    +0.000 OA
ATOM     32  H   UNL     1      -8.130  13.512  24.264  0.00  0.00    +0.000 HD
ATOM     33  H   UNL     1      -7.353  14.375  25.550  0.00  0.00    +0.000 HD
ENDBRANCH  28  29
ENDBRANCH  11  24
BRANCH   6  34
ATOM     34  O   UNL     1      -2.464  14.842  20.160  0.00  0.00    +0.000 OA
ATOM     35  H   UNL     1      -3.044  15.408  19.620  0.00  0.00    +0.000 HD
ENDBRANCH   6  34
BRANCH  16  36
ATOM     36  C   UNL     1      -1.127  11.253  18.692  0.00  0.00    +0.000 C 
ATOM     37  N   UNL     1      -1.367  10.202  18.039  0.00  0.00    +0.000 NA
ENDBRANCH  16  36
BRANCH  17  38
ATOM     38  O   UNL     1       0.112  13.240  17.345  0.00  0.00    +0.000 OA
ATOM     39  H   UNL     1      -0.522  13.982  17.116  0.00  0.00    +0.000 HD
ENDBRANCH  17  38
TORSDOF 5
ENDMDL
MODEL 2
REMARK VINA RESULT:      -6.2      1.847      2.490
REMARK  Name = 
REMARK  9 active torsions:
REMARK  status: ('A' for Active; 'I' for Inactive)
REMARK    1  A    between atoms: C_1  and  C_2
REMARK    2  A    between atoms: C_4  and  C_5
REMARK    3  A    between atoms: C_6  and  O_7
REMARK    4  A    between atoms: C_12  and  C_13
REMARK    5  A    between atoms: C_17  and  C_18
REMARK    6  A    between atoms: C_25  and  C_26
REMARK    7  A    between atoms: C_28  and  O_29
REMARK    8  A    between atoms: C_30  and  C_31
REMARK    9  A    between atoms: C_33  and  C_34
REMARK                            x       y       z     vdW  Elec       q    Type
REMARK                         _______ _______ _______ _____ _____    ______ ____
ROOT
ATOM      1  C   UNL     1      -1.125  17.394  18.650  0.00  0.00    +0.000 C 
ATOM      2  C   UNL     1      -0.898  17.546  20.163  0.00  0.00    +0.000 C 
ATOM      3  C   UNL     1      -2.307  17.681  20.839  0.00  0.00    +0.000 C 
ATOM      4  C   UNL     1      -2.496  16.669  22.059  0.00  0.00    +0.000 C 
ATOM      5  C   UNL     1      -1.385  17.268  23.030  0.00  0.00    +0.000 C 
ATOM      6  C   UNL     1      -2.857  15.023  21.433  0.00  0.00    +0.000 C 
ATOM      7  C   UNL     1      -3.038  13.412  21.971  0.00  0.00    +0.000 C 
ATOM      8  C   UNL     1      -3.361  12.620  23.294  0.00  0.00    +0.000 C 
ATOM      9  O   UNL     1      -2.847  11.525  23.541  0.00  0.00    +0.000 OA
ATOM     10  O   UNL     1      -4.219  13.138  24.220  0.00  0.00    +0.000 OA
ATOM     11  C   UNL     1      -4.299  14.534  24.115  0.00  0.00    +0.000 C 
ATOM     12  C   UNL     1      -2.647  14.950  24.373  0.00  0.00    +0.000 C 
ATOM     13  C   UNL     1      -1.218  14.235  23.697  0.00  0.00    +0.000 C 
ATOM     14  C   UNL     1      -0.416  14.567  22.618  0.00  0.00    +0.000 C 
ATOM     15  C   UNL     1       0.206  13.722  21.542  0.00  0.00    +0.000 C 
ATOM     16  C   UNL     1       0.643  14.031  20.246  0.00  0.00    +0.000 C 
ATOM     17  C   UNL     1       1.307  15.251  19.667  0.00  0.00    +0.000 C 
ATOM     18  C   UNL     1       2.582  15.724  20.390  0.00  0.00    +0.000 C 
ATOM     19  C   UNL     1       3.857  14.969  19.969  0.00  0.00    +0.000 C 
ATOM     20  C   UNL     1       2.741  17.246  20.187  0.00  0.00    +0.000 C 
ATOM     21  C   UNL     1       1.764  18.209  20.953  0.00  0.00    +0.000 C 
ATOM     22  C   UNL     1       1.943  18.007  22.472  0.00  0.00    +0.000 C 
ATOM     23  C   UNL     1       0.277  18.568  20.449  0.00  0.00    +0.000 C 
ENDROOT
BRANCH  11  24
ATOM     24  C   UNL     1      -5.463  14.745  22.981  0.00  0.00    +0.000 C 
ATOM     25  C   UNL     1      -5.928  16.148  22.567  0.00  0.00    +0.000 C 
ATOM     26  C   UNL     1      -7.309  16.029  21.934  0.00  0.00    +0.000 C 
ATOM     27  C   UNL     1      -7.859  14.682  22.331  0.00  0.00    +0.000 C 
ATOM     28  C   UNL     1      -6.851  14.048  23.311  0.00  0.00    +0.000 C 
BRANCH  28  29
ATOM     29  C   UNL     1      -6.990  12.551  23.062  0.00  0.00    +0.000 C 
ATOM     30  N   UNL     1      -6.399  12.093  21.916  0.00  0.00    +0.000 N 
ATOM     31  O   UNL     1      -7.523  11.760  23.852  0.00  0.00    +0.000 OA
ATOM     32  H   UNL     1      -6.337  11.084  21.780  0.00  0.00    +0.000 HD
ATOM     33  H   UNL     1      -5.771  12.669  21.368  0.00  0.00    +0.000 HD
ENDBRANCH  28  29
ENDBRANCH  11  24
BRANCH   6  34
ATOM     34  O   UNL     1      -2.147  14.877  20.190  0.00  0.00    +0.000 OA
ATOM     35  H   UNL     1      -2.064  15.754  19.777  0.00  0.00    +0.000 HD
ENDBRANCH   6  34
BRANCH  16  36
ATOM     36  C   UNL     1       1.372  12.843  19.640  0.00  0.00    +0.000 C 
ATOM     37  N   UNL     1       1.977  11.857  19.138  0.00  0.00    +0.000 NA
ENDBRANCH  16  36
BRANCH  17  38
ATOM     38  O   UNL     1       1.499  15.156  18.250  0.00  0.00    +0.000 OA
ATOM     39  H   UNL     1       0.665  14.800  17.819  0.00  0.00    +0.000 HD
ENDBRANCH  17  38
TORSDOF 5
ENDMDL
MODEL 3
REMARK VINA RESULT:      -6.1      7.433     12.888
REMARK  Name = 
REMARK  9 active torsions:
REMARK  status: ('A' for Active; 'I' for Inactive)
REMARK    1  A    between atoms: C_1  and  C_2
REMARK    2  A    between atoms: C_4  and  C_5
REMARK    3  A    between atoms: C_6  and  O_7
REMARK    4  A    between atoms: C_12  and  C_13
REMARK    5  A    between atoms: C_17  and  C_18
REMARK    6  A    between atoms: C_25  and  C_26
REMARK    7  A    between atoms: C_28  and  O_29
REMARK    8  A    between atoms: C_30  and  C_31
REMARK    9  A    between atoms: C_33  and  C_34
REMARK                            x       y       z     vdW  Elec       q    Type
REMARK                         _______ _______ _______ _____ _____    ______ ____
ROOT
ATOM      1  C   UNL     1       5.961  12.552  23.564  0.00  0.00    +0.000 C 
ATOM      2  C   UNL     1       7.022  13.576  23.998  0.00  0.00    +0.000 C 
ATOM      3  C   UNL     1       8.402  13.094  23.429  0.00  0.00    +0.000 C 
ATOM      4  C   UNL     1       9.168  14.247  22.635  0.00  0.00    +0.000 C 
ATOM      5  C   UNL     1       9.417  15.240  23.853  0.00  0.00    +0.000 C 
ATOM      6  C   UNL     1       8.457  14.430  20.993  0.00  0.00    +0.000 C 
ATOM      7  C   UNL     1       8.536  15.444  19.622  0.00  0.00    +0.000 C 
ATOM      8  C   UNL     1       9.520  16.475  18.949  0.00  0.00    +0.000 C 
ATOM      9  O   UNL     1       9.108  17.472  18.348  0.00  0.00    +0.000 OA
ATOM     10  O   UNL     1      10.871  16.298  19.028  0.00  0.00    +0.000 OA
ATOM     11  C   UNL     1      11.216  15.506  20.133  0.00  0.00    +0.000 C 
ATOM     12  C   UNL     1      10.554  16.461  21.406  0.00  0.00    +0.000 C 
ATOM     13  C   UNL     1       9.005  17.235  21.503  0.00  0.00    +0.000 C 
ATOM     14  C   UNL     1       7.802  16.870  22.082  0.00  0.00    +0.000 C 
ATOM     15  C   UNL     1       6.386  16.969  21.586  0.00  0.00    +0.000 C 
ATOM     16  C   UNL     1       5.226  16.258  21.921  0.00  0.00    +0.000 C 
ATOM     17  C   UNL     1       4.725  15.698  23.224  0.00  0.00    +0.000 C 
ATOM     18  C   UNL     1       4.655  16.693  24.397  0.00  0.00    +0.000 C 
ATOM     19  C   UNL     1       3.380  17.558  24.409  0.00  0.00    +0.000 C 
ATOM     20  C   UNL     1       4.820  15.922  25.724  0.00  0.00    +0.000 C 
ATOM     21  C   UNL     1       6.239  15.355  26.089  0.00  0.00    +0.000 C 
ATOM     22  C   UNL     1       7.236  16.527  26.203  0.00  0.00    +0.000 C 
ATOM     23  C   UNL     1       6.826  13.968  25.519  0.00  0.00    +0.000 C 
ENDROOT
BRANCH  11  24
ATOM     24  C   UNL     1      11.093  13.984  19.539  0.00  0.00    +0.000 C 
ATOM     25  C   UNL     1      11.223  12.758  20.454  0.00  0.00    +0.000 C 
ATOM     26  C   UNL     1      11.585  11.553  19.594  0.00  0.00    +0.000 C 
ATOM     27  C   UNL     1      12.084  12.089  18.276  0.00  0.00    +0.000 C 
ATOM     28  C   UNL     1      12.138  13.625  18.398  0.00  0.00    +0.000 C 
BRANCH  28  29
ATOM     29  C   UNL     1      11.864  14.116  16.982  0.00  0.00    +0.000 C 
ATOM     30  N   UNL     1      12.330  15.371  16.699  0.00  0.00    +0.000 N 
ATOM     31  O   UNL     1      11.330  13.432  16.099  0.00  0.00    +0.000 OA
ATOM     32  H   UNL     1      12.302  15.684  15.728  0.00  0.00    +0.000 HD
ATOM     33  H   UNL     1      12.959  15.864  17.321  0.00  0.00    +0.000 HD
ENDBRANCH  28  29
ENDBRANCH  11  24
BRANCH   6  34
ATOM     34  O   UNL     1       7.052  14.137  21.105  0.00  0.00    +0.000 OA
ATOM     35  H   UNL     1       6.586  14.572  20.370  0.00  0.00    +0.000 HD
ENDBRANCH   6  34
BRANCH  16  36
ATOM     36  C   UNL     1       4.013  16.887  21.254  0.00  0.00    +0.000 C 
ATOM     37  N   UNL     1       3.008  17.408  20.701  0.00  0.00    +0.000 NA
ENDBRANCH  16  36
BRANCH  17  38
ATOM     38  O   UNL     1       3.507  14.958  23.076  0.00  0.00    +0.000 OA
ATOM     39  H   UNL     1       2.778  15.568  22.754  0.00  0.00    +0.000 HD
ENDBRANCH  17  38
TORSDOF 5
ENDMDL
MODEL 4
REMARK VINA RESULT:      -5.8      3.614      6.033
REMARK  Name = 
REMARK  9 active torsions:
REMARK  status: ('A' for Active; 'I' for Inactive)
REMARK    1  A    between atoms: C_1  and  C_2
REMARK    2  A    between atoms: C_4  and  C_5
REMARK    3  A    between atoms: C_6  and  O_7
REMARK    4  A    between atoms: C_12  and  C_13
REMARK    5  A    between atoms: C_17  and  C_18
REMARK    6  A    between atoms: C_25  and  C_26
REMARK    7  A    between atoms: C_28  and  O_29
REMARK    8  A    between atoms: C_30  and  C_31
REMARK    9  A    between atoms: C_33  and  C_34
REMARK                            x       y       z     vdW  Elec       q    Type
REMARK                         _______ _______ _______ _____ _____    ______ ____
ROOT
ATOM      1  C   UNL     1      -1.356  18.292  20.048  0.00  0.00    +0.000 C 
ATOM      2  C   UNL     1      -1.188  17.274  21.188  0.00  0.00    +0.000 C 
ATOM      3  C   UNL     1      -2.352  16.230  21.062  0.00  0.00    +0.000 C 
ATOM      4  C   UNL     1      -1.824  14.724  21.086  0.00  0.00    +0.000 C 
ATOM      5  C   UNL     1      -1.254  14.703  22.572  0.00  0.00    +0.000 C 
ATOM      6  C   UNL     1      -1.146  14.292  19.478  0.00  0.00    +0.000 C 
ATOM      7  C   UNL     1      -0.286  13.042  18.696  0.00  0.00    +0.000 C 
ATOM      8  C   UNL     1       0.008  11.503  18.864  0.00  0.00    +0.000 C 
ATOM      9  O   UNL     1       1.093  11.007  18.545  0.00  0.00    +0.000 OA
ATOM     10  O   UNL     1      -0.938  10.669  19.388  0.00  0.00    +0.000 OA
ATOM     11  C   UNL     1      -1.853  11.374  20.183  0.00  0.00    +0.000 C 
ATOM     12  C   UNL     1      -0.779  12.047  21.352  0.00  0.00    +0.000 C 
ATOM     13  C   UNL     1       0.752  12.826  21.114  0.00  0.00    +0.000 C 
ATOM     14  C   UNL     1       1.130  14.155  21.016  0.00  0.00    +0.000 C 
ATOM     15  C   UNL     1       2.079  14.855  20.084  0.00  0.00    +0.000 C 
ATOM     16  C   UNL     1       2.170  16.192  19.673  0.00  0.00    +0.000 C 
ATOM     17  C   UNL     1       1.927  17.490  20.394  0.00  0.00    +0.000 C 
ATOM     18  C   UNL     1       2.691  17.671  21.720  0.00  0.00    +0.000 C 
ATOM     19  C   UNL     1       4.138  18.168  21.545  0.00  0.00    +0.000 C 
ATOM     20  C   UNL     1       1.884  18.609  22.642  0.00  0.00    +0.000 C 
ATOM     21  C   UNL     1       0.566  18.061  23.298  0.00  0.00    +0.000 C 
ATOM     22  C   UNL     1       0.911  16.852  24.193  0.00  0.00    +0.000 C 
ATOM     23  C   UNL     1      -0.859  18.013  22.548  0.00  0.00    +0.000 C 
ENDROOT
BRANCH  11  24
ATOM     24  C   UNL     1      -2.964  11.882  19.092  0.00  0.00    +0.000 C 
ATOM     25  C   UNL     1      -4.318  12.452  19.539  0.00  0.00    +0.000 C 
ATOM     26  C   UNL     1      -5.295  12.340  18.373  0.00  0.00    +0.000 C 
ATOM     27  C   UNL     1      -4.703  11.353  17.399  0.00  0.00    +0.000 C 
ATOM     28  C   UNL     1      -3.427  10.778  18.048  0.00  0.00    +0.000 C 
BRANCH  28  29
ATOM     29  C   UNL     1      -2.519  10.473  16.863  0.00  0.00    +0.000 C 
ATOM     30  N   UNL     1      -2.322  11.514  15.996  0.00  0.00    +0.000 N 
ATOM     31  O   UNL     1      -1.922   9.401  16.702  0.00  0.00    +0.000 OA
ATOM     32  H   UNL     1      -1.610  11.405  15.273  0.00  0.00    +0.000 HD
ATOM     33  H   UNL     1      -2.613  12.458  16.215  0.00  0.00    +0.000 HD
ENDBRANCH  28  29
ENDBRANCH  11  24
BRANCH   6  34
ATOM     34  O   UNL     1      -0.561  15.487  18.930  0.00  0.00    +0.000 OA
ATOM     35  H   UNL     1      -1.073  15.751  18.146  0.00  0.00    +0.000 HD
ENDBRANCH   6  34
BRANCH  16  36
ATOM     36  C   UNL     1       3.436  16.407  18.860  0.00  0.00    +0.000 C 
ATOM     37  N   UNL     1       4.486  16.585  18.186  0.00  0.00    +0.000 NA
ENDBRANCH  16  36
BRANCH  17  38
ATOM     38  O   UNL     1       2.062  18.631  19.539  0.00  0.00    +0.000 OA
ATOM     39  H   UNL     1       2.675  18.412  18.776  0.00  0.00    +0.000 HD
ENDBRANCH  17  38
TORSDOF 5
ENDMDL
MODEL 5
REMARK VINA RESULT:      -5.8      2.235      7.671
REMARK  Name = 
REMARK  9 active torsions:
REMARK  status: ('A' for Active; 'I' for Inactive)
REMARK    1  A    between atoms: C_1  and  C_2
REMARK    2  A    between atoms: C_4  and  C_5
REMARK    3  A    between atoms: C_6  and  O_7
REMARK    4  A    between atoms: C_12  and  C_13
REMARK    5  A    between atoms: C_17  and  C_18
REMARK    6  A    between atoms: C_25  and  C_26
REMARK    7  A    between atoms: C_28  and  O_29
REMARK    8  A    between atoms: C_30  and  C_31
REMARK    9  A    between atoms: C_33  and  C_34
REMARK                            x       y       z     vdW  Elec       q    Type
REMARK                         _______ _______ _______ _____ _____    ______ ____
ROOT
ATOM      1  C   UNL     1      -5.308  13.006  23.699  0.00  0.00    +0.000 C 
ATOM      2  C   UNL     1      -3.972  13.729  23.934  0.00  0.00    +0.000 C 
ATOM      3  C   UNL     1      -2.838  12.646  23.898  0.00  0.00    +0.000 C 
ATOM      4  C   UNL     1      -1.647  13.045  22.913  0.00  0.00    +0.000 C 
ATOM      5  C   UNL     1      -1.124  14.331  23.693  0.00  0.00    +0.000 C 
ATOM      6  C   UNL     1      -2.130  12.721  21.212  0.00  0.00    +0.000 C 
ATOM      7  C   UNL     1      -1.589  12.970  19.612  0.00  0.00    +0.000 C 
ATOM      8  C   UNL     1      -0.251  13.250  18.830  0.00  0.00    +0.000 C 
ATOM      9  O   UNL     1      -0.220  13.968  17.825  0.00  0.00    +0.000 OA
ATOM     10  O   UNL     1       0.928  12.711  19.257  0.00  0.00    +0.000 OA
ATOM     11  C   UNL     1       0.881  12.404  20.624  0.00  0.00    +0.000 C 
ATOM     12  C   UNL     1       0.542  13.965  21.272  0.00  0.00    +0.000 C 
ATOM     13  C   UNL     1      -0.608  15.147  20.737  0.00  0.00    +0.000 C 
ATOM     14  C   UNL     1      -1.896  15.461  21.138  0.00  0.00    +0.000 C 
ATOM     15  C   UNL     1      -3.137  15.775  20.349  0.00  0.00    +0.000 C 
ATOM     16  C   UNL     1      -4.498  15.678  20.669  0.00  0.00    +0.000 C 
ATOM     17  C   UNL     1      -5.255  15.916  21.947  0.00  0.00    +0.000 C 
ATOM     18  C   UNL     1      -5.024  17.284  22.616  0.00  0.00    +0.000 C 
ATOM     19  C   UNL     1      -5.882  18.420  22.028  0.00  0.00    +0.000 C 
ATOM     20  C   UNL     1      -5.245  17.145  24.137  0.00  0.00    +0.000 C 
ATOM     21  C   UNL     1      -4.168  16.376  24.984  0.00  0.00    +0.000 C 
ATOM     22  C   UNL     1      -2.814  17.107  24.861  0.00  0.00    +0.000 C 
ATOM     23  C   UNL     1      -4.106  14.773  25.117  0.00  0.00    +0.000 C 
ENDROOT
BRANCH  11  24
ATOM     24  C   UNL     1       0.237  10.897  20.634  0.00  0.00    +0.000 C 
ATOM     25  C   UNL     1      -0.051  10.161  21.950  0.00  0.00    +0.000 C 
ATOM     26  C   UNL     1      -0.133   8.668  21.657  0.00  0.00    +0.000 C 
ATOM     27  C   UNL     1       0.505   8.450  20.308  0.00  0.00    +0.000 C 
ATOM     28  C   UNL     1       1.083   9.804  19.852  0.00  0.00    +0.000 C 
BRANCH  28  29
ATOM     29  C   UNL     1       0.978   9.755  18.332  0.00  0.00    +0.000 C 
ATOM     30  N   UNL     1      -0.266  10.017  17.825  0.00  0.00    +0.000 N 
ATOM     31  O   UNL     1       1.939   9.571  17.574  0.00  0.00    +0.000 OA
ATOM     32  H   UNL     1      -0.354  10.140  16.816  0.00  0.00    +0.000 HD
ATOM     33  H   UNL     1      -1.014  10.385  18.399  0.00  0.00    +0.000 HD
ENDBRANCH  28  29
ENDBRANCH  11  24
BRANCH   6  34
ATOM     34  O   UNL     1      -3.547  12.959  21.122  0.00  0.00    +0.000 OA
ATOM     35  H   UNL     1      -3.741  13.344  20.249  0.00  0.00    +0.000 HD
ENDBRANCH   6  34
BRANCH  16  36
ATOM     36  C   UNL     1      -5.342  16.305  19.571  0.00  0.00    +0.000 C 
ATOM     37  N   UNL     1      -6.042  16.825  18.661  0.00  0.00    +0.000 NA
ENDBRANCH  16  36
BRANCH  17  38
ATOM     38  O   UNL     1      -6.649  15.606  21.829  0.00  0.00    +0.000 OA
ATOM     39  H   UNL     1      -6.867  15.384  20.876  0.00  0.00    +0.000 HD
ENDBRANCH  17  38
TORSDOF 5
ENDMDL
MODEL 6
REMARK VINA RESULT:      -5.6      8.458     10.490
REMARK  Name = 
REMARK  9 active torsions:
REMARK  status: ('A' for Active; 'I' for Inactive)
REMARK    1  A    between atoms: C_1  and  C_2
REMARK    2  A    between atoms: C_4  and  C_5
REMARK    3  A    between atoms: C_6  and  O_7
REMARK    4  A    between atoms: C_12  and  C_13
REMARK    5  A    between atoms: C_17  and  C_18
REMARK    6  A    between atoms: C_25  and  C_26
REMARK    7  A    between atoms: C_28  and  O_29
REMARK    8  A    between atoms: C_30  and  C_31
REMARK    9  A    between atoms: C_33  and  C_34
REMARK                            x       y       z     vdW  Elec       q    Type
REMARK                         _______ _______ _______ _____ _____    ______ ____
ROOT
ATOM      1  C   UNL     1       7.044  15.713  17.909  0.00  0.00    +0.000 C 
ATOM      2  C   UNL     1       8.205  16.309  18.721  0.00  0.00    +0.000 C 
ATOM      3  C   UNL     1       7.580  17.193  19.857  0.00  0.00    +0.000 C 
ATOM      4  C   UNL     1       8.172  16.842  21.296  0.00  0.00    +0.000 C 
ATOM      5  C   UNL     1       9.677  17.295  21.044  0.00  0.00    +0.000 C 
ATOM      6  C   UNL     1       7.402  15.342  21.921  0.00  0.00    +0.000 C 
ATOM      7  C   UNL     1       7.524  14.230  23.210  0.00  0.00    +0.000 C 
ATOM      8  C   UNL     1       8.093  14.153  24.678  0.00  0.00    +0.000 C 
ATOM      9  O   UNL     1       8.584  13.116  25.134  0.00  0.00    +0.000 OA
ATOM     10  O   UNL     1       8.069  15.252  25.488  0.00  0.00    +0.000 OA
ATOM     11  C   UNL     1       8.017  16.436  24.739  0.00  0.00    +0.000 C 
ATOM     12  C   UNL     1       9.462  16.271  23.814  0.00  0.00    +0.000 C 
ATOM     13  C   UNL     1      10.070  14.884  22.969  0.00  0.00    +0.000 C 
ATOM     14  C   UNL     1       9.999  14.478  21.647  0.00  0.00    +0.000 C 
ATOM     15  C   UNL     1       9.728  13.133  21.031  0.00  0.00    +0.000 C 
ATOM     16  C   UNL     1       9.237  12.764  19.771  0.00  0.00    +0.000 C 
ATOM     17  C   UNL     1       9.434  13.348  18.399  0.00  0.00    +0.000 C 
ATOM     18  C   UNL     1      10.896  13.542  17.957  0.00  0.00    +0.000 C 
ATOM     19  C   UNL     1      11.551  12.270  17.386  0.00  0.00    +0.000 C 
ATOM     20  C   UNL     1      10.969  14.710  16.951  0.00  0.00    +0.000 C 
ATOM     21  C   UNL     1      10.775  16.174  17.487  0.00  0.00    +0.000 C 
ATOM     22  C   UNL     1      11.885  16.486  18.513  0.00  0.00    +0.000 C 
ATOM     23  C   UNL     1       9.339  16.849  17.757  0.00  0.00    +0.000 C 
ENDROOT
BRANCH  11  24
ATOM     24  C   UNL     1       6.410  16.636  24.492  0.00  0.00    +0.000 C 
ATOM     25  C   UNL     1       5.862  17.874  23.767  0.00  0.00    +0.000 C 
ATOM     26  C   UNL     1       4.394  18.040  24.141  0.00  0.00    +0.000 C 
ATOM     27  C   UNL     1       4.160  17.205  25.375  0.00  0.00    +0.000 C 
ATOM     28  C   UNL     1       5.526  16.639  25.811  0.00  0.00    +0.000 C 
BRANCH  28  29
ATOM     29  C   UNL     1       5.181  15.303  26.458  0.00  0.00    +0.000 C 
ATOM     30  N   UNL     1       5.193  15.297  27.826  0.00  0.00    +0.000 N 
ATOM     31  O   UNL     1       4.834  14.295  25.829  0.00  0.00    +0.000 OA
ATOM     32  H   UNL     1       4.828  14.473  28.304  0.00  0.00    +0.000 HD
ATOM     33  H   UNL     1       5.253  16.151  28.367  0.00  0.00    +0.000 HD
ENDBRANCH  28  29
ENDBRANCH  11  24
BRANCH   6  34
ATOM     34  O   UNL     1       7.127  14.502  20.785  0.00  0.00    +0.000 OA
ATOM     35  H   UNL     1       6.412  14.909  20.266  0.00  0.00    +0.000 HD
ENDBRANCH   6  34
BRANCH  16  36
ATOM     36  C   UNL     1       9.334  11.257  19.591  0.00  0.00    +0.000 C 
ATOM     37  N   UNL     1       9.414  10.008  19.441  0.00  0.00    +0.000 NA
ENDBRANCH  16  36
BRANCH  17  38
ATOM     38  O   UNL     1       8.656  12.681  17.398  0.00  0.00    +0.000 OA
ATOM     39  H   UNL     1       9.125  11.843  17.108  0.00  0.00    +0.000 HD
ENDBRANCH  17  38
TORSDOF 5
ENDMDL
MODEL 7
REMARK VINA RESULT:      -5.5      3.579      8.646
REMARK  Name = 
REMARK  9 active torsions:
REMARK  status: ('A' for Active; 'I' for Inactive)
REMARK    1  A    between atoms: C_1  and  C_2
REMARK    2  A    between atoms: C_4  and  C_5
REMARK    3  A    between atoms: C_6  and  O_7
REMARK    4  A    between atoms: C_12  and  C_13
REMARK    5  A    between atoms: C_17  and  C_18
REMARK    6  A    between atoms: C_25  and  C_26
REMARK    7  A    between atoms: C_28  and  O_29
REMARK    8  A    between atoms: C_30  and  C_31
REMARK    9  A    between atoms: C_33  and  C_34
REMARK                            x       y       z     vdW  Elec       q    Type
REMARK                         _______ _______ _______ _____ _____    ______ ____
ROOT
ATOM      1  C   UNL     1       1.049  17.383  24.593  0.00  0.00    +0.000 C 
ATOM      2  C   UNL     1       0.622  17.822  23.183  0.00  0.00    +0.000 C 
ATOM      3  C   UNL     1       1.897  18.380  22.458  0.00  0.00    +0.000 C 
ATOM      4  C   UNL     1       2.114  17.724  21.020  0.00  0.00    +0.000 C 
ATOM      5  C   UNL     1       0.809  18.293  20.307  0.00  0.00    +0.000 C 
ATOM      6  C   UNL     1       2.829  16.084  21.201  0.00  0.00    +0.000 C 
ATOM      7  C   UNL     1       3.224  14.703  20.279  0.00  0.00    +0.000 C 
ATOM      8  C   UNL     1       3.523  14.305  18.784  0.00  0.00    +0.000 C 
ATOM      9  O   UNL     1       3.182  13.213  18.318  0.00  0.00    +0.000 OA
ATOM     10  O   UNL     1       4.162  15.176  17.949  0.00  0.00    +0.000 OA
ATOM     11  C   UNL     1       4.009  16.501  18.382  0.00  0.00    +0.000 C 
ATOM     12  C   UNL     1       2.290  16.629  18.355  0.00  0.00    +0.000 C 
ATOM     13  C   UNL     1       1.098  15.513  18.941  0.00  0.00    +0.000 C 
ATOM     14  C   UNL     1       0.383  15.431  20.124  0.00  0.00    +0.000 C 
ATOM     15  C   UNL     1       0.049  14.262  21.007  0.00  0.00    +0.000 C 
ATOM     16  C   UNL     1      -0.279  14.181  22.367  0.00  0.00    +0.000 C 
ATOM     17  C   UNL     1      -1.074  15.084  23.271  0.00  0.00    +0.000 C 
ATOM     18  C   UNL     1      -2.488  15.446  22.779  0.00  0.00    +0.000 C 
ATOM     19  C   UNL     1      -3.552  14.379  23.097  0.00  0.00    +0.000 C 
ATOM     20  C   UNL     1      -2.885  16.822  23.354  0.00  0.00    +0.000 C 
ATOM     21  C   UNL     1      -2.189  18.105  22.774  0.00  0.00    +0.000 C 
ATOM     22  C   UNL     1      -2.507  18.216  21.269  0.00  0.00    +0.000 C 
ATOM     23  C   UNL     1      -0.739  18.629  23.240  0.00  0.00    +0.000 C 
ENDROOT
BRANCH  11  24
ATOM     24  C   UNL     1       5.243  16.679  19.445  0.00  0.00    +0.000 C 
ATOM     25  C   UNL     1       5.442  17.987  20.224  0.00  0.00    +0.000 C 
ATOM     26  C   UNL     1       6.890  18.048  20.697  0.00  0.00    +0.000 C 
ATOM     27  C   UNL     1       7.661  17.041  19.882  0.00  0.00    +0.000 C 
ATOM     28  C   UNL     1       6.691  16.466  18.829  0.00  0.00    +0.000 C 
BRANCH  28  29
ATOM     29  C   UNL     1       7.186  15.041  18.614  0.00  0.00    +0.000 C 
ATOM     30  N   UNL     1       7.140  14.597  17.320  0.00  0.00    +0.000 N 
ATOM     31  O   UNL     1       7.674  14.332  19.503  0.00  0.00    +0.000 OA
ATOM     32  H   UNL     1       7.594  13.710  17.102  0.00  0.00    +0.000 HD
ATOM     33  H   UNL     1       6.958  15.222  16.544  0.00  0.00    +0.000 HD
ENDBRANCH  28  29
ENDBRANCH  11  24
BRANCH   6  34
ATOM     34  O   UNL     1       2.307  15.527  22.421  0.00  0.00    +0.000 OA
ATOM     35  H   UNL     1       3.054  15.231  22.971  0.00  0.00    +0.000 HD
ENDBRANCH   6  34
BRANCH  16  36
ATOM     36  C   UNL     1      -0.713  12.767  22.720  0.00  0.00    +0.000 C 
ATOM     37  N   UNL     1      -1.073  11.595  23.013  0.00  0.00    +0.000 NA
ENDBRANCH  16  36
BRANCH  17  38
ATOM     38  O   UNL     1      -1.078  14.639  24.632  0.00  0.00    +0.000 OA
ATOM     39  H   UNL     1      -1.900  14.978  25.097  0.00  0.00    +0.000 HD
ENDBRANCH  17  38
TORSDOF 5
ENDMDL
MODEL 8
REMARK VINA RESULT:      -5.4      2.467      7.777
REMARK  Name = 
REMARK  9 active torsions:
REMARK  status: ('A' for Active; 'I' for Inactive)
REMARK    1  A    between atoms: C_1  and  C_2
REMARK    2  A    between atoms: C_4  and  C_5
REMARK    3  A    between atoms: C_6  and  O_7
REMARK    4  A    between atoms: C_12  and  C_13
REMARK    5  A    between atoms: C_17  and  C_18
REMARK    6  A    between atoms: C_25  and  C_26
REMARK    7  A    between atoms: C_28  and  O_29
REMARK    8  A    between atoms: C_30  and  C_31
REMARK    9  A    between atoms: C_33  and  C_34
REMARK                            x       y       z     vdW  Elec       q    Type
REMARK                         _______ _______ _______ _____ _____    ______ ____
ROOT
ATOM      1  C   UNL     1      -6.665  13.029  21.821  0.00  0.00    +0.000 C 
ATOM      2  C   UNL     1      -5.693  13.770  22.754  0.00  0.00    +0.000 C 
ATOM      3  C   UNL     1      -4.475  12.817  23.017  0.00  0.00    +0.000 C 
ATOM      4  C   UNL     1      -3.074  13.535  22.754  0.00  0.00    +0.000 C 
ATOM      5  C   UNL     1      -3.152  14.624  23.913  0.00  0.00    +0.000 C 
ATOM      6  C   UNL     1      -2.749  13.607  20.987  0.00  0.00    +0.000 C 
ATOM      7  C   UNL     1      -1.649  14.283  19.870  0.00  0.00    +0.000 C 
ATOM      8  C   UNL     1      -0.179  14.847  19.827  0.00  0.00    +0.000 C 
ATOM      9  O   UNL     1       0.137  15.790  19.096  0.00  0.00    +0.000 OA
ATOM     10  O   UNL     1       0.794  14.309  20.620  0.00  0.00    +0.000 OA
ATOM     11  C   UNL     1       0.242  13.671  21.740  0.00  0.00    +0.000 C 
ATOM     12  C   UNL     1      -0.601  14.994  22.455  0.00  0.00    +0.000 C 
ATOM     13  C   UNL     1      -1.615  16.182  21.703  0.00  0.00    +0.000 C 
ATOM     14  C   UNL     1      -2.987  16.290  21.546  0.00  0.00    +0.000 C 
ATOM     15  C   UNL     1      -3.827  16.695  20.367  0.00  0.00    +0.000 C 
ATOM     16  C   UNL     1      -5.159  16.420  20.029  0.00  0.00    +0.000 C 
ATOM     17  C   UNL     1      -6.404  16.277  20.861  0.00  0.00    +0.000 C 
ATOM     18  C   UNL     1      -6.712  17.451  21.810  0.00  0.00    +0.000 C 
ATOM     19  C   UNL     1      -7.436  18.630  21.132  0.00  0.00    +0.000 C 
ATOM     20  C   UNL     1      -7.512  16.924  23.020  0.00  0.00    +0.000 C 
ATOM     21  C   UNL     1      -6.763  16.054  24.091  0.00  0.00    +0.000 C 
ATOM     22  C   UNL     1      -5.630  16.892  24.720  0.00  0.00    +0.000 C 
ATOM     23  C   UNL     1      -6.482  14.476  23.931  0.00  0.00    +0.000 C 
ENDROOT
BRANCH  11  24
ATOM     24  C   UNL     1      -0.075  12.165  21.178  0.00  0.00    +0.000 C 
ATOM     25  C   UNL     1      -0.503  11.034  22.124  0.00  0.00    +0.000 C 
ATOM     26  C   UNL     1      -0.218   9.701  21.440  0.00  0.00    +0.000 C 
ATOM     27  C   UNL     1       0.740   9.985  20.310  0.00  0.00    +0.000 C 
ATOM     28  C   UNL     1       1.127  11.475  20.401  0.00  0.00    +0.000 C 
BRANCH  28  29
ATOM     29  C   UNL     1       1.381  11.877  18.953  0.00  0.00    +0.000 C 
ATOM     30  N   UNL     1       0.329  11.682  18.100  0.00  0.00    +0.000 N 
ATOM     31  O   UNL     1       2.422  12.415  18.553  0.00  0.00    +0.000 OA
ATOM     32  H   UNL     1       0.399  12.069  17.159  0.00  0.00    +0.000 HD
ATOM     33  H   UNL     1      -0.599  11.454  18.435  0.00  0.00    +0.000 HD
ENDBRANCH  28  29
ENDBRANCH  11  24
BRANCH   6  34
ATOM     34  O   UNL     1      -4.020  13.752  20.328  0.00  0.00    +0.000 OA
ATOM     35  H   UNL     1      -4.701  13.915  21.004  0.00  0.00    +0.000 HD
ENDBRANCH   6  34
BRANCH  16  36
ATOM     36  C   UNL     1      -5.571  17.234  18.813  0.00  0.00    +0.000 C 
ATOM     37  N   UNL     1      -5.913  17.908  17.804  0.00  0.00    +0.000 NA
ENDBRANCH  16  36
BRANCH  17  38
ATOM     38  O   UNL     1      -7.548  15.902  20.084  0.00  0.00    +0.000 OA
ATOM     39  H   UNL     1      -7.300  15.865  19.113  0.00  0.00    +0.000 HD
ENDBRANCH  17  38
TORSDOF 5
ENDMDL
MODEL 9
REMARK VINA RESULT:      -5.4      6.845     12.324
REMARK  Name = 
REMARK  9 active torsions:
REMARK  status: ('A' for Active; 'I' for Inactive)
REMARK    1  A    between atoms: C_1  and  C_2
REMARK    2  A    between atoms: C_4  and  C_5
REMARK    3  A    between atoms: C_6  and  O_7
REMARK    4  A    between atoms: C_12  and  C_13
REMARK    5  A    between atoms: C_17  and  C_18
REMARK    6  A    between atoms: C_25  and  C_26
REMARK    7  A    between atoms: C_28  and  O_29
REMARK    8  A    between atoms: C_30  and  C_31
REMARK    9  A    between atoms: C_33  and  C_34
REMARK                            x       y       z     vdW  Elec       q    Type
REMARK                         _______ _______ _______ _____ _____    ______ ____
ROOT
ATOM      1  C   UNL     1       4.638  13.657  22.455  0.00  0.00    +0.000 C 
ATOM      2  C   UNL     1       5.577  14.802  22.867  0.00  0.00    +0.000 C 
ATOM      3  C   UNL     1       7.043  14.246  22.829  0.00  0.00    +0.000 C 
ATOM      4  C   UNL     1       8.027  15.180  21.989  0.00  0.00    +0.000 C 
ATOM      5  C   UNL     1       7.975  16.469  22.924  0.00  0.00    +0.000 C 
ATOM      6  C   UNL     1       7.781  14.897  20.231  0.00  0.00    +0.000 C 
ATOM      7  C   UNL     1       8.252  15.517  18.712  0.00  0.00    +0.000 C 
ATOM      8  C   UNL     1       9.409  16.376  18.074  0.00  0.00    +0.000 C 
ATOM      9  O   UNL     1       9.203  17.162  17.144  0.00  0.00    +0.000 OA
ATOM     10  O   UNL     1      10.685  16.281  18.550  0.00  0.00    +0.000 OA
ATOM     11  C   UNL     1      10.702  15.823  19.874  0.00  0.00    +0.000 C 
ATOM     12  C   UNL     1       9.756  17.050  20.629  0.00  0.00    +0.000 C 
ATOM     13  C   UNL     1       8.261  17.758  20.107  0.00  0.00    +0.000 C 
ATOM     14  C   UNL     1       6.936  17.508  20.424  0.00  0.00    +0.000 C 
ATOM     15  C   UNL     1       5.706  17.414  19.565  0.00  0.00    +0.000 C 
ATOM     16  C   UNL     1       4.477  16.768  19.758  0.00  0.00    +0.000 C 
ATOM     17  C   UNL     1       3.632  16.549  20.984  0.00  0.00    +0.000 C 
ATOM     18  C   UNL     1       3.285  17.814  21.791  0.00  0.00    +0.000 C 
ATOM     19  C   UNL     1       2.079  18.597  21.237  0.00  0.00    +0.000 C 
ATOM     20  C   UNL     1       3.069  17.426  23.269  0.00  0.00    +0.000 C 
ATOM     21  C   UNL     1       4.323  17.034  24.131  0.00  0.00    +0.000 C 
ATOM     22  C   UNL     1       5.290  18.235  24.190  0.00  0.00    +0.000 C 
ATOM     23  C   UNL     1       4.997  15.571  24.123  0.00  0.00    +0.000 C 
ENDROOT
BRANCH  11  24
ATOM     24  C   UNL     1      10.694  14.194  19.693  0.00  0.00    +0.000 C 
ATOM     25  C   UNL     1      10.709  13.256  20.909  0.00  0.00    +0.000 C 
ATOM     26  C   UNL     1      11.215  11.891  20.456  0.00  0.00    +0.000 C 
ATOM     27  C   UNL     1      11.893  12.095  19.124  0.00  0.00    +0.000 C 
ATOM     28  C   UNL     1      11.901  13.611  18.842  0.00  0.00    +0.000 C 
BRANCH  28  29
ATOM     29  C   UNL     1      11.829  13.702  17.322  0.00  0.00    +0.000 C 
ATOM     30  N   UNL     1      12.333  14.855  16.783  0.00  0.00    +0.000 N 
ATOM     31  O   UNL     1      11.424  12.791  16.589  0.00  0.00    +0.000 OA
ATOM     32  H   UNL     1      12.442  14.901  15.770  0.00  0.00    +0.000 HD
ATOM     33  H   UNL     1      12.869  15.516  17.332  0.00  0.00    +0.000 HD
ENDBRANCH  28  29
ENDBRANCH  11  24
BRANCH   6  34
ATOM     34  O   UNL     1       6.389  14.585  20.042  0.00  0.00    +0.000 OA
ATOM     35  H   UNL     1       6.059  14.148  20.847  0.00  0.00    +0.000 HD
ENDBRANCH   6  34
BRANCH  16  36
ATOM     36  C   UNL     1       3.504  17.149  18.654  0.00  0.00    +0.000 C 
ATOM     37  N   UNL     1       2.698  17.465  17.739  0.00  0.00    +0.000 NA
ENDBRANCH  16  36
BRANCH  17  38
ATOM     38  O   UNL     1       2.475  15.747  20.721  0.00  0.00    +0.000 OA
ATOM     39  H   UNL     1       2.052  15.469  21.587  0.00  0.00    +0.000 HD
ENDBRANCH  17  38
TORSDOF 5
ENDMDL
