MODEL 1
REMARK VINA RESULT:      -9.6      0.000      0.000
REMARK  Name = 
REMARK  4 active torsions:
REMARK  status: ('A' for Active; 'I' for Inactive)
REMARK    1  A    between atoms: C_1  and  N_2
REMARK    2  A    between atoms: C_12  and  N_13
REMARK    3  A    between atoms: C_14  and  C_16
REMARK    4  A    between atoms: C_20  and  C_21
REMARK                            x       y       z     vdW  Elec       q    Type
REMARK                         _______ _______ _______ _____ _____    ______ ____
ROOT
ATOM      1  N   UNL     1       0.947   7.803  21.130  0.00  0.00    +0.000 N 
ATOM      2  C   UNL     1       1.707   7.645  19.982  0.00  0.00    +0.000 C 
ATOM      3  O   UNL     1       1.949   8.516  19.150  0.00  0.00    +0.000 OA
ATOM      4  H   UNL     1       1.012   7.087  21.842  0.00  0.00    +0.000 HD
ENDROOT
BRANCH   1  16
ATOM      5  C   UNL     1      -3.129  11.405  16.301  0.00  0.00    +0.000 C 
ATOM      6  N   UNL     1      -2.625  11.951  17.539  0.00  0.00    +0.000 N 
ATOM      7  C   UNL     1      -2.098  11.093  18.482  0.00  0.00    +0.000 C 
ATOM      8  O   UNL     1      -2.069   9.884  18.255  0.00  0.00    +0.000 OA
ATOM      9  N   UNL     1      -1.678  11.701  19.672  0.00  0.00    +0.000 N 
ATOM     10  C   UNL     1      -1.987  13.096  20.023  0.00  0.00    +0.000 C 
ATOM     11  C   UNL     1      -2.741  13.184  21.336  0.00  0.00    +0.000 C 
ATOM     12  C   UNL     1      -1.888  12.620  22.456  0.00  0.00    +0.000 C 
ATOM     13  C   UNL     1      -1.162  11.362  22.058  0.00  0.00    +0.000 A 
ATOM     14  C   UNL     1      -0.575  10.606  23.081  0.00  0.00    +0.000 A 
ATOM     15  C   UNL     1       0.117   9.431  22.792  0.00  0.00    +0.000 A 
ATOM     16  C   UNL     1       0.251   8.988  21.479  0.00  0.00    +0.000 A 
ATOM     17  C   UNL     1      -0.318   9.757  20.452  0.00  0.00    +0.000 A 
ATOM     18  C   UNL     1      -1.050  10.932  20.721  0.00  0.00    +0.000 A 
ATOM     19  H   UNL     1      -2.176  12.850  17.472  0.00  0.00    +0.000 HD
ENDBRANCH   1  16
BRANCH   2  20
ATOM     20  C   UNL     1       2.326   6.312  19.749  0.00  0.00    +0.000 A 
ATOM     21  C   UNL     1       2.041   5.312  20.686  0.00  0.00    +0.000 A 
ATOM     22  C   UNL     1       2.706   4.095  20.636  0.00  0.00    +0.000 A 
ATOM     23  C   UNL     1       3.675   3.881  19.657  0.00  0.00    +0.000 A 
ATOM     24  C   UNL     1       3.986   4.856  18.685  0.00  0.00    +0.000 A 
ATOM     25  C   UNL     1       3.273   6.076  18.740  0.00  0.00    +0.000 A 
BRANCH  24  26
ATOM     26  C   UNL     1       5.076   4.614  17.702  0.00  0.00    +0.000 A 
ATOM     27  C   UNL     1       6.434   4.716  18.066  0.00  0.00    +0.000 A 
ATOM     28  C   UNL     1       7.462   4.568  17.128  0.00  0.00    +0.000 A 
ATOM     29  C   UNL     1       7.158   4.289  15.801  0.00  0.00    +0.000 A 
ATOM     30  C   UNL     1       5.830   4.160  15.414  0.00  0.00    +0.000 A 
ATOM     31  C   UNL     1       4.805   4.328  16.350  0.00  0.00    +0.000 A 
ENDBRANCH  24  26
ENDBRANCH   2  20
TORSDOF 3
ENDMDL
MODEL 2
REMARK VINA RESULT:      -9.3      7.591      8.862
REMARK  Name = 
REMARK  4 active torsions:
REMARK  status: ('A' for Active; 'I' for Inactive)
REMARK    1  A    between atoms: C_1  and  N_2
REMARK    2  A    between atoms: C_12  and  N_13
REMARK    3  A    between atoms: C_14  and  C_16
REMARK    4  A    between atoms: C_20  and  C_21
REMARK                            x       y       z     vdW  Elec       q    Type
REMARK                         _______ _______ _______ _____ _____    ______ ____
ROOT
ATOM      1  N   UNL     1       9.095   9.195  19.118  0.00  0.00    +0.000 N 
ATOM      2  C   UNL     1       8.150   8.911  18.144  0.00  0.00    +0.000 C 
ATOM      3  O   UNL     1       7.610   9.728  17.402  0.00  0.00    +0.000 OA
ATOM      4  H   UNL     1       9.628   8.424  19.499  0.00  0.00    +0.000 HD
ENDROOT
BRANCH   1  16
ATOM      5  C   UNL     1       7.108  12.314  25.381  0.00  0.00    +0.000 C 
ATOM      6  N   UNL     1       7.623  13.014  24.228  0.00  0.00    +0.000 N 
ATOM      7  C   UNL     1       8.209  12.286  23.213  0.00  0.00    +0.000 C 
ATOM      8  O   UNL     1       8.286  11.062  23.307  0.00  0.00    +0.000 OA
ATOM      9  N   UNL     1       8.725  13.047  22.156  0.00  0.00    +0.000 N 
ATOM     10  C   UNL     1       8.873  14.511  22.207  0.00  0.00    +0.000 C 
ATOM     11  C   UNL     1      10.314  14.931  21.984  0.00  0.00    +0.000 C 
ATOM     12  C   UNL     1      10.771  14.483  20.608  0.00  0.00    +0.000 C 
ATOM     13  C   UNL     1      10.303  13.095  20.262  0.00  0.00    +0.000 A 
ATOM     14  C   UNL     1      10.891  12.475  19.152  0.00  0.00    +0.000 A 
ATOM     15  C   UNL     1      10.508  11.191  18.767  0.00  0.00    +0.000 A 
ATOM     16  C   UNL     1       9.524  10.500  19.469  0.00  0.00    +0.000 A 
ATOM     17  C   UNL     1       8.919  11.129  20.568  0.00  0.00    +0.000 A 
ATOM     18  C   UNL     1       9.310  12.415  20.997  0.00  0.00    +0.000 A 
ATOM     19  H   UNL     1       7.100  13.823  23.935  0.00  0.00    +0.000 HD
ENDBRANCH   1  16
BRANCH   2  20
ATOM     20  C   UNL     1       7.781   7.483  17.945  0.00  0.00    +0.000 A 
ATOM     21  C   UNL     1       8.062   6.606  18.999  0.00  0.00    +0.000 A 
ATOM     22  C   UNL     1       7.904   5.238  18.832  0.00  0.00    +0.000 A 
ATOM     23  C   UNL     1       7.481   4.740  17.600  0.00  0.00    +0.000 A 
ATOM     24  C   UNL     1       7.175   5.588  16.514  0.00  0.00    +0.000 A 
ATOM     25  C   UNL     1       7.316   6.979  16.720  0.00  0.00    +0.000 A 
BRANCH  24  26
ATOM     26  C   UNL     1       6.796   5.011  15.197  0.00  0.00    +0.000 A 
ATOM     27  C   UNL     1       5.631   4.232  15.040  0.00  0.00    +0.000 A 
ATOM     28  C   UNL     1       5.312   3.621  13.822  0.00  0.00    +0.000 A 
ATOM     29  C   UNL     1       6.138   3.793  12.719  0.00  0.00    +0.000 A 
ATOM     30  C   UNL     1       7.282   4.574  12.834  0.00  0.00    +0.000 A 
ATOM     31  C   UNL     1       7.608   5.167  14.058  0.00  0.00    +0.000 A 
ENDBRANCH  24  26
ENDBRANCH   2  20
TORSDOF 3
ENDMDL
MODEL 3
REMARK VINA RESULT:      -9.2      1.196      1.385
REMARK  Name = 
REMARK  4 active torsions:
REMARK  status: ('A' for Active; 'I' for Inactive)
REMARK    1  A    between atoms: C_1  and  N_2
REMARK    2  A    between atoms: C_12  and  N_13
REMARK    3  A    between atoms: C_14  and  C_16
REMARK    4  A    between atoms: C_20  and  C_21
REMARK                            x       y       z     vdW  Elec       q    Type
REMARK                         _______ _______ _______ _____ _____    ______ ____
ROOT
ATOM      1  N   UNL     1       2.080   7.336  20.099  0.00  0.00    +0.000 N 
ATOM      2  C   UNL     1       1.690   6.022  20.307  0.00  0.00    +0.000 C 
ATOM      3  O   UNL     1       0.660   5.655  20.867  0.00  0.00    +0.000 OA
ATOM      4  H   UNL     1       2.820   7.510  19.432  0.00  0.00    +0.000 HD
ENDROOT
BRANCH   1  16
ATOM      5  C   UNL     1      -2.560  11.054  15.909  0.00  0.00    +0.000 C 
ATOM      6  N   UNL     1      -1.958  11.546  17.125  0.00  0.00    +0.000 N 
ATOM      7  C   UNL     1      -1.314  10.655  17.959  0.00  0.00    +0.000 C 
ATOM      8  O   UNL     1      -1.267   9.464  17.657  0.00  0.00    +0.000 OA
ATOM      9  N   UNL     1      -0.801  11.208  19.140  0.00  0.00    +0.000 N 
ATOM     10  C   UNL     1      -1.121  12.568  19.604  0.00  0.00    +0.000 C 
ATOM     11  C   UNL     1      -1.748  12.549  20.985  0.00  0.00    +0.000 C 
ATOM     12  C   UNL     1      -0.772  11.954  21.983  0.00  0.00    +0.000 C 
ATOM     13  C   UNL     1      -0.046  10.751  21.441  0.00  0.00    +0.000 A 
ATOM     14  C   UNL     1       0.661   9.959  22.356  0.00  0.00    +0.000 A 
ATOM     15  C   UNL     1       1.360   8.831  21.930  0.00  0.00    +0.000 A 
ATOM     16  C   UNL     1       1.382   8.471  20.586  0.00  0.00    +0.000 A 
ATOM     17  C   UNL     1       0.692   9.276  19.666  0.00  0.00    +0.000 A 
ATOM     18  C   UNL     1      -0.049  10.404  20.075  0.00  0.00    +0.000 A 
ATOM     19  H   UNL     1      -1.547  12.464  17.072  0.00  0.00    +0.000 HD
ENDBRANCH   1  16
BRANCH   2  20
ATOM     20  C   UNL     1       2.573   4.953  19.768  0.00  0.00    +0.000 A 
ATOM     21  C   UNL     1       2.722   3.804  20.553  0.00  0.00    +0.000 A 
ATOM     22  C   UNL     1       3.653   2.835  20.206  0.00  0.00    +0.000 A 
ATOM     23  C   UNL     1       4.454   3.023  19.080  0.00  0.00    +0.000 A 
ATOM     24  C   UNL     1       4.329   4.160  18.254  0.00  0.00    +0.000 A 
ATOM     25  C   UNL     1       3.353   5.118  18.613  0.00  0.00    +0.000 A 
BRANCH  24  26
ATOM     26  C   UNL     1       5.251   4.355  17.103  0.00  0.00    +0.000 A 
ATOM     27  C   UNL     1       6.624   4.614  17.292  0.00  0.00    +0.000 A 
ATOM     28  C   UNL     1       7.480   4.877  16.217  0.00  0.00    +0.000 A 
ATOM     29  C   UNL     1       6.989   4.865  14.918  0.00  0.00    +0.000 A 
ATOM     30  C   UNL     1       5.645   4.591  14.695  0.00  0.00    +0.000 A 
ATOM     31  C   UNL     1       4.789   4.348  15.773  0.00  0.00    +0.000 A 
ENDBRANCH  24  26
ENDBRANCH   2  20
TORSDOF 3
ENDMDL
MODEL 4
REMARK VINA RESULT:      -9.2      2.083      2.240
REMARK  Name = 
REMARK  4 active torsions:
REMARK  status: ('A' for Active; 'I' for Inactive)
REMARK    1  A    between atoms: C_1  and  N_2
REMARK    2  A    between atoms: C_12  and  N_13
REMARK    3  A    between atoms: C_14  and  C_16
REMARK    4  A    between atoms: C_20  and  C_21
REMARK                            x       y       z     vdW  Elec       q    Type
REMARK                         _______ _______ _______ _____ _____    ______ ____
ROOT
ATOM      1  N   UNL     1       1.210   7.998  21.346  0.00  0.00    +0.000 N 
ATOM      2  C   UNL     1       1.709   7.764  20.074  0.00  0.00    +0.000 C 
ATOM      3  O   UNL     1       1.750   8.577  19.154  0.00  0.00    +0.000 OA
ATOM      4  H   UNL     1       1.441   7.334  22.074  0.00  0.00    +0.000 HD
ENDROOT
BRANCH   1  16
ATOM      5  C   UNL     1       2.573  14.338  18.051  0.00  0.00    +0.000 C 
ATOM      6  N   UNL     1       1.984  14.189  19.361  0.00  0.00    +0.000 N 
ATOM      7  C   UNL     1       1.535  12.944  19.754  0.00  0.00    +0.000 C 
ATOM      8  O   UNL     1       1.641  11.989  18.986  0.00  0.00    +0.000 OA
ATOM      9  N   UNL     1       0.934  12.899  21.018  0.00  0.00    +0.000 N 
ATOM     10  C   UNL     1       0.567  14.101  21.785  0.00  0.00    +0.000 C 
ATOM     11  C   UNL     1      -0.915  14.122  22.108  0.00  0.00    +0.000 C 
ATOM     12  C   UNL     1      -1.270  12.920  22.963  0.00  0.00    +0.000 C 
ATOM     13  C   UNL     1      -0.592  11.657  22.503  0.00  0.00    +0.000 A 
ATOM     14  C   UNL     1      -1.057  10.447  23.033  0.00  0.00    +0.000 A 
ATOM     15  C   UNL     1      -0.478   9.236  22.659  0.00  0.00    +0.000 A 
ATOM     16  C   UNL     1       0.583   9.201  21.758  0.00  0.00    +0.000 A 
ATOM     17  C   UNL     1       1.064  10.415  21.243  0.00  0.00    +0.000 A 
ATOM     18  C   UNL     1       0.475  11.651  21.582  0.00  0.00    +0.000 A 
ATOM     19  H   UNL     1       2.386  14.755  20.091  0.00  0.00    +0.000 HD
ENDBRANCH   1  16
BRANCH   2  20
ATOM     20  C   UNL     1       2.289   6.421  19.803  0.00  0.00    +0.000 A 
ATOM     21  C   UNL     1       1.962   5.400  20.703  0.00  0.00    +0.000 A 
ATOM     22  C   UNL     1       2.589   4.165  20.618  0.00  0.00    +0.000 A 
ATOM     23  C   UNL     1       3.562   3.954  19.642  0.00  0.00    +0.000 A 
ATOM     24  C   UNL     1       3.914   4.950  18.707  0.00  0.00    +0.000 A 
ATOM     25  C   UNL     1       3.239   6.189  18.796  0.00  0.00    +0.000 A 
BRANCH  24  26
ATOM     26  C   UNL     1       5.007   4.707  17.728  0.00  0.00    +0.000 A 
ATOM     27  C   UNL     1       6.363   4.732  18.113  0.00  0.00    +0.000 A 
ATOM     28  C   UNL     1       7.397   4.583  17.183  0.00  0.00    +0.000 A 
ATOM     29  C   UNL     1       7.102   4.381  15.840  0.00  0.00    +0.000 A 
ATOM     30  C   UNL     1       5.775   4.329  15.430  0.00  0.00    +0.000 A 
ATOM     31  C   UNL     1       4.745   4.498  16.360  0.00  0.00    +0.000 A 
ENDBRANCH  24  26
ENDBRANCH   2  20
TORSDOF 3
ENDMDL
MODEL 5
REMARK VINA RESULT:      -8.8      1.467      2.183
REMARK  Name = 
REMARK  4 active torsions:
REMARK  status: ('A' for Active; 'I' for Inactive)
REMARK    1  A    between atoms: C_1  and  N_2
REMARK    2  A    between atoms: C_12  and  N_13
REMARK    3  A    between atoms: C_14  and  C_16
REMARK    4  A    between atoms: C_20  and  C_21
REMARK                            x       y       z     vdW  Elec       q    Type
REMARK                         _______ _______ _______ _____ _____    ______ ____
ROOT
ATOM      1  N   UNL     1       2.128   7.230  19.455  0.00  0.00    +0.000 N 
ATOM      2  C   UNL     1       2.984   7.269  18.365  0.00  0.00    +0.000 C 
ATOM      3  O   UNL     1       3.371   8.282  17.787  0.00  0.00    +0.000 OA
ATOM      4  H   UNL     1       2.069   6.366  19.978  0.00  0.00    +0.000 HD
ENDROOT
BRANCH   1  16
ATOM      5  C   UNL     1      -2.772  11.121  15.746  0.00  0.00    +0.000 C 
ATOM      6  N   UNL     1      -2.063  11.574  16.920  0.00  0.00    +0.000 N 
ATOM      7  C   UNL     1      -1.369  10.653  17.678  0.00  0.00    +0.000 C 
ATOM      8  O   UNL     1      -1.368   9.469  17.345  0.00  0.00    +0.000 OA
ATOM      9  N   UNL     1      -0.751  11.169  18.824  0.00  0.00    +0.000 N 
ATOM     10  C   UNL     1      -1.007  12.522  19.344  0.00  0.00    +0.000 C 
ATOM     11  C   UNL     1      -1.519  12.480  20.771  0.00  0.00    +0.000 C 
ATOM     12  C   UNL     1      -0.475  11.846  21.671  0.00  0.00    +0.000 C 
ATOM     13  C   UNL     1       0.181  10.645  21.045  0.00  0.00    +0.000 A 
ATOM     14  C   UNL     1       0.947   9.820  21.879  0.00  0.00    +0.000 A 
ATOM     15  C   UNL     1       1.589   8.692  21.372  0.00  0.00    +0.000 A 
ATOM     16  C   UNL     1       1.493   8.364  20.022  0.00  0.00    +0.000 A 
ATOM     17  C   UNL     1       0.745   9.202  19.182  0.00  0.00    +0.000 A 
ATOM     18  C   UNL     1       0.060  10.331  19.675  0.00  0.00    +0.000 A 
ATOM     19  H   UNL     1      -1.642  12.487  16.854  0.00  0.00    +0.000 HD
ENDBRANCH   1  16
BRANCH   2  20
ATOM     20  C   UNL     1       3.519   5.973  17.868  0.00  0.00    +0.000 A 
ATOM     21  C   UNL     1       3.460   4.887  18.750  0.00  0.00    +0.000 A 
ATOM     22  C   UNL     1       4.085   3.691  18.429  0.00  0.00    +0.000 A 
ATOM     23  C   UNL     1       4.791   3.582  17.232  0.00  0.00    +0.000 A 
ATOM     24  C   UNL     1       4.867   4.647  16.308  0.00  0.00    +0.000 A 
ATOM     25  C   UNL     1       4.196   5.845  16.645  0.00  0.00    +0.000 A 
BRANCH  24  26
ATOM     26  C   UNL     1       5.688   4.513  15.076  0.00  0.00    +0.000 A 
ATOM     27  C   UNL     1       6.889   5.232  14.907  0.00  0.00    +0.000 A 
ATOM     28  C   UNL     1       7.624   5.171  13.718  0.00  0.00    +0.000 A 
ATOM     29  C   UNL     1       7.189   4.368  12.671  0.00  0.00    +0.000 A 
ATOM     30  C   UNL     1       6.021   3.629  12.813  0.00  0.00    +0.000 A 
ATOM     31  C   UNL     1       5.278   3.708  13.996  0.00  0.00    +0.000 A 
ENDBRANCH  24  26
ENDBRANCH   2  20
TORSDOF 3
ENDMDL
MODEL 6
REMARK VINA RESULT:      -8.8      2.833      3.487
REMARK  Name = 
REMARK  4 active torsions:
REMARK  status: ('A' for Active; 'I' for Inactive)
REMARK    1  A    between atoms: C_1  and  N_2
REMARK    2  A    between atoms: C_12  and  N_13
REMARK    3  A    between atoms: C_14  and  C_16
REMARK    4  A    between atoms: C_20  and  C_21
REMARK                            x       y       z     vdW  Elec       q    Type
REMARK                         _______ _______ _______ _____ _____    ______ ____
ROOT
ATOM      1  N   UNL     1       1.034   9.019  19.191  0.00  0.00    +0.000 N 
ATOM      2  C   UNL     1       1.516   8.218  20.214  0.00  0.00    +0.000 C 
ATOM      3  O   UNL     1       1.476   8.478  21.414  0.00  0.00    +0.000 OA
ATOM      4  H   UNL     1       0.917   8.599  18.277  0.00  0.00    +0.000 HD
ENDROOT
BRANCH   1  16
ATOM      5  C   UNL     1       4.949  15.008  17.881  0.00  0.00    +0.000 C 
ATOM      6  N   UNL     1       3.743  14.958  18.673  0.00  0.00    +0.000 N 
ATOM      7  C   UNL     1       2.957  13.824  18.621  0.00  0.00    +0.000 C 
ATOM      8  O   UNL     1       3.293  12.883  17.904  0.00  0.00    +0.000 OA
ATOM      9  N   UNL     1       1.782  13.878  19.382  0.00  0.00    +0.000 N 
ATOM     10  C   UNL     1       1.270  15.114  19.996  0.00  0.00    +0.000 C 
ATOM     11  C   UNL     1      -0.133  15.433  19.514  0.00  0.00    +0.000 C 
ATOM     12  C   UNL     1      -1.077  14.313  19.908  0.00  0.00    +0.000 C 
ATOM     13  C   UNL     1      -0.477  12.947  19.707  0.00  0.00    +0.000 A 
ATOM     14  C   UNL     1      -1.343  11.847  19.768  0.00  0.00    +0.000 A 
ATOM     15  C   UNL     1      -0.862  10.551  19.596  0.00  0.00    +0.000 A 
ATOM     16  C   UNL     1       0.492  10.317  19.369  0.00  0.00    +0.000 A 
ATOM     17  C   UNL     1       1.363  11.417  19.330  0.00  0.00    +0.000 A 
ATOM     18  C   UNL     1       0.897  12.740  19.470  0.00  0.00    +0.000 A 
ATOM     19  H   UNL     1       3.786  15.414  19.570  0.00  0.00    +0.000 HD
ENDBRANCH   1  16
BRANCH   2  20
ATOM     20  C   UNL     1       2.100   6.903  19.837  0.00  0.00    +0.000 A 
ATOM     21  C   UNL     1       1.812   5.821  20.678  0.00  0.00    +0.000 A 
ATOM     22  C   UNL     1       2.449   4.602  20.492  0.00  0.00    +0.000 A 
ATOM     23  C   UNL     1       3.393   4.467  19.475  0.00  0.00    +0.000 A 
ATOM     24  C   UNL     1       3.705   5.526  18.597  0.00  0.00    +0.000 A 
ATOM     25  C   UNL     1       3.021   6.749  18.788  0.00  0.00    +0.000 A 
BRANCH  24  26
ATOM     26  C   UNL     1       4.769   5.361  17.570  0.00  0.00    +0.000 A 
ATOM     27  C   UNL     1       4.685   4.366  16.575  0.00  0.00    +0.000 A 
ATOM     28  C   UNL     1       5.719   4.153  15.656  0.00  0.00    +0.000 A 
ATOM     29  C   UNL     1       6.858   4.948  15.694  0.00  0.00    +0.000 A 
ATOM     30  C   UNL     1       6.962   5.953  16.649  0.00  0.00    +0.000 A 
ATOM     31  C   UNL     1       5.935   6.149  17.578  0.00  0.00    +0.000 A 
ENDBRANCH  24  26
ENDBRANCH   2  20
TORSDOF 3
ENDMDL
MODEL 7
REMARK VINA RESULT:      -8.8      2.327      3.645
REMARK  Name = 
REMARK  4 active torsions:
REMARK  status: ('A' for Active; 'I' for Inactive)
REMARK    1  A    between atoms: C_1  and  N_2
REMARK    2  A    between atoms: C_12  and  N_13
REMARK    3  A    between atoms: C_14  and  C_16
REMARK    4  A    between atoms: C_20  and  C_21
REMARK                            x       y       z     vdW  Elec       q    Type
REMARK                         _______ _______ _______ _____ _____    ______ ____
ROOT
ATOM      1  N   UNL     1      -0.152  10.820  20.481  0.00  0.00    +0.000 N 
ATOM      2  C   UNL     1       0.144   9.516  20.846  0.00  0.00    +0.000 C 
ATOM      3  O   UNL     1      -0.372   8.890  21.769  0.00  0.00    +0.000 OA
ATOM      4  H   UNL     1       0.165  11.141  19.575  0.00  0.00    +0.000 HD
ENDROOT
BRANCH   1  16
ATOM      5  C   UNL     1      -6.575  12.761  17.671  0.00  0.00    +0.000 C 
ATOM      6  N   UNL     1      -5.899  13.439  18.752  0.00  0.00    +0.000 N 
ATOM      7  C   UNL     1      -4.829  12.819  19.364  0.00  0.00    +0.000 C 
ATOM      8  O   UNL     1      -4.473  11.704  18.984  0.00  0.00    +0.000 OA
ATOM      9  N   UNL     1      -4.262  13.525  20.433  0.00  0.00    +0.000 N 
ATOM     10  C   UNL     1      -4.885  14.711  21.042  0.00  0.00    +0.000 C 
ATOM     11  C   UNL     1      -5.136  14.507  22.524  0.00  0.00    +0.000 C 
ATOM     12  C   UNL     1      -3.818  14.277  23.240  0.00  0.00    +0.000 C 
ATOM     13  C   UNL     1      -2.891  13.370  22.475  0.00  0.00    +0.000 A 
ATOM     14  C   UNL     1      -1.776  12.866  23.158  0.00  0.00    +0.000 A 
ATOM     15  C   UNL     1      -0.870  12.023  22.517  0.00  0.00    +0.000 A 
ATOM     16  C   UNL     1      -1.045  11.671  21.181  0.00  0.00    +0.000 A 
ATOM     17  C   UNL     1      -2.150  12.194  20.491  0.00  0.00    +0.000 A 
ATOM     18  C   UNL     1      -3.098  13.023  21.125  0.00  0.00    +0.000 A 
ATOM     19  H   UNL     1      -5.828  14.441  18.667  0.00  0.00    +0.000 HD
ENDBRANCH   1  16
BRANCH   2  20
ATOM     20  C   UNL     1       1.146   8.786  20.024  0.00  0.00    +0.000 A 
ATOM     21  C   UNL     1       1.456   9.334  18.774  0.00  0.00    +0.000 A 
ATOM     22  C   UNL     1       2.251   8.632  17.879  0.00  0.00    +0.000 A 
ATOM     23  C   UNL     1       2.725   7.368  18.227  0.00  0.00    +0.000 A 
ATOM     24  C   UNL     1       2.448   6.782  19.480  0.00  0.00    +0.000 A 
ATOM     25  C   UNL     1       1.660   7.530  20.384  0.00  0.00    +0.000 A 
BRANCH  24  26
ATOM     26  C   UNL     1       2.913   5.402  19.782  0.00  0.00    +0.000 A 
ATOM     27  C   UNL     1       4.062   4.860  19.170  0.00  0.00    +0.000 A 
ATOM     28  C   UNL     1       4.459   3.536  19.389  0.00  0.00    +0.000 A 
ATOM     29  C   UNL     1       3.729   2.724  20.248  0.00  0.00    +0.000 A 
ATOM     30  C   UNL     1       2.605   3.234  20.885  0.00  0.00    +0.000 A 
ATOM     31  C   UNL     1       2.200   4.552  20.648  0.00  0.00    +0.000 A 
ENDBRANCH  24  26
ENDBRANCH   2  20
TORSDOF 3
ENDMDL
MODEL 8
REMARK VINA RESULT:      -8.7      2.671      3.857
REMARK  Name = 
REMARK  4 active torsions:
REMARK  status: ('A' for Active; 'I' for Inactive)
REMARK    1  A    between atoms: C_1  and  N_2
REMARK    2  A    between atoms: C_12  and  N_13
REMARK    3  A    between atoms: C_14  and  C_16
REMARK    4  A    between atoms: C_20  and  C_21
REMARK                            x       y       z     vdW  Elec       q    Type
REMARK                         _______ _______ _______ _____ _____    ______ ____
ROOT
ATOM      1  N   UNL     1       0.792  10.056  21.077  0.00  0.00    +0.000 N 
ATOM      2  C   UNL     1       0.694   9.653  19.755  0.00  0.00    +0.000 C 
ATOM      3  O   UNL     1      -0.099  10.091  18.924  0.00  0.00    +0.000 OA
ATOM      4  H   UNL     1       1.624   9.793  21.591  0.00  0.00    +0.000 HD
ENDROOT
BRANCH   1  16
ATOM      5  C   UNL     1      -0.374  16.676  18.298  0.00  0.00    +0.000 C 
ATOM      6  N   UNL     1      -0.651  16.283  19.660  0.00  0.00    +0.000 N 
ATOM      7  C   UNL     1      -0.637  14.941  19.983  0.00  0.00    +0.000 C 
ATOM      8  O   UNL     1      -0.394  14.107  19.112  0.00  0.00    +0.000 OA
ATOM      9  N   UNL     1      -0.964  14.645  21.313  0.00  0.00    +0.000 N 
ATOM     10  C   UNL     1      -1.524  15.633  22.249  0.00  0.00    +0.000 C 
ATOM     11  C   UNL     1      -2.865  15.181  22.796  0.00  0.00    +0.000 C 
ATOM     12  C   UNL     1      -2.694  13.884  23.564  0.00  0.00    +0.000 C 
ATOM     13  C   UNL     1      -1.769  12.917  22.875  0.00  0.00    +0.000 A 
ATOM     14  C   UNL     1      -1.756  11.596  23.340  0.00  0.00    +0.000 A 
ATOM     15  C   UNL     1      -0.923  10.643  22.756  0.00  0.00    +0.000 A 
ATOM     16  C   UNL     1      -0.077  10.984  21.705  0.00  0.00    +0.000 A 
ATOM     17  C   UNL     1      -0.073  12.313  21.253  0.00  0.00    +0.000 A 
ATOM     18  C   UNL     1      -0.929  13.289  21.806  0.00  0.00    +0.000 A 
ATOM     19  H   UNL     1      -0.309  16.904  20.375  0.00  0.00    +0.000 HD
ENDBRANCH   1  16
BRANCH   2  20
ATOM     20  C   UNL     1       1.660   8.628  19.277  0.00  0.00    +0.000 A 
ATOM     21  C   UNL     1       2.289   8.876  18.051  0.00  0.00    +0.000 A 
ATOM     22  C   UNL     1       3.074   7.899  17.457  0.00  0.00    +0.000 A 
ATOM     23  C   UNL     1       3.217   6.659  18.079  0.00  0.00    +0.000 A 
ATOM     24  C   UNL     1       2.612   6.370  19.320  0.00  0.00    +0.000 A 
ATOM     25  C   UNL     1       1.841   7.392  19.919  0.00  0.00    +0.000 A 
BRANCH  24  26
ATOM     26  C   UNL     1       2.732   5.011  19.914  0.00  0.00    +0.000 A 
ATOM     27  C   UNL     1       1.910   4.596  20.981  0.00  0.00    +0.000 A 
ATOM     28  C   UNL     1       2.073   3.350  21.596  0.00  0.00    +0.000 A 
ATOM     29  C   UNL     1       3.049   2.473  21.143  0.00  0.00    +0.000 A 
ATOM     30  C   UNL     1       3.862   2.841  20.078  0.00  0.00    +0.000 A 
ATOM     31  C   UNL     1       3.710   4.096  19.479  0.00  0.00    +0.000 A 
ENDBRANCH  24  26
ENDBRANCH   2  20
TORSDOF 3
ENDMDL
MODEL 9
REMARK VINA RESULT:      -8.7      2.826      3.459
REMARK  Name = 
REMARK  4 active torsions:
REMARK  status: ('A' for Active; 'I' for Inactive)
REMARK    1  A    between atoms: C_1  and  N_2
REMARK    2  A    between atoms: C_12  and  N_13
REMARK    3  A    between atoms: C_14  and  C_16
REMARK    4  A    between atoms: C_20  and  C_21
REMARK                            x       y       z     vdW  Elec       q    Type
REMARK                         _______ _______ _______ _____ _____    ______ ____
ROOT
ATOM      1  N   UNL     1       1.177   9.464  19.751  0.00  0.00    +0.000 N 
ATOM      2  C   UNL     1       1.743   8.927  18.605  0.00  0.00    +0.000 C 
ATOM      3  O   UNL     1       1.818   9.478  17.510  0.00  0.00    +0.000 OA
ATOM      4  H   UNL     1       1.381   9.015  20.634  0.00  0.00    +0.000 HD
ENDROOT
BRANCH   1  16
ATOM      5  C   UNL     1       4.610  15.694  18.230  0.00  0.00    +0.000 C 
ATOM      6  N   UNL     1       3.370  15.583  18.961  0.00  0.00    +0.000 N 
ATOM      7  C   UNL     1       2.693  14.380  18.948  0.00  0.00    +0.000 C 
ATOM      8  O   UNL     1       3.152  13.430  18.316  0.00  0.00    +0.000 OA
ATOM      9  N   UNL     1       1.477  14.374  19.643  0.00  0.00    +0.000 N 
ATOM     10  C   UNL     1       0.822  15.594  20.143  0.00  0.00    +0.000 C 
ATOM     11  C   UNL     1      -0.573  15.749  19.569  0.00  0.00    +0.000 C 
ATOM     12  C   UNL     1      -1.435  14.574  19.992  0.00  0.00    +0.000 C 
ATOM     13  C   UNL     1      -0.705  13.260  19.916  0.00  0.00    +0.000 A 
ATOM     14  C   UNL     1      -1.472  12.091  20.010  0.00  0.00    +0.000 A 
ATOM     15  C   UNL     1      -0.868  10.836  19.952  0.00  0.00    +0.000 A 
ATOM     16  C   UNL     1       0.512  10.715  19.811  0.00  0.00    +0.000 A 
ATOM     17  C   UNL     1       1.283  11.886  19.740  0.00  0.00    +0.000 A 
ATOM     18  C   UNL     1       0.693  13.167  19.764  0.00  0.00    +0.000 A 
ATOM     19  H   UNL     1       3.322  16.098  19.826  0.00  0.00    +0.000 HD
ENDBRANCH   1  16
BRANCH   2  20
ATOM     20  C   UNL     1       2.355   7.575  18.713  0.00  0.00    +0.000 A 
ATOM     21  C   UNL     1       2.061   6.841  19.868  0.00  0.00    +0.000 A 
ATOM     22  C   UNL     1       2.720   5.647  20.125  0.00  0.00    +0.000 A 
ATOM     23  C   UNL     1       3.692   5.192  19.234  0.00  0.00    +0.000 A 
ATOM     24  C   UNL     1       4.012   5.894  18.053  0.00  0.00    +0.000 A 
ATOM     25  C   UNL     1       3.305   7.092  17.800  0.00  0.00    +0.000 A 
BRANCH  24  26
ATOM     26  C   UNL     1       5.104   5.411  17.166  0.00  0.00    +0.000 A 
ATOM     27  C   UNL     1       6.297   4.872  17.691  0.00  0.00    +0.000 A 
ATOM     28  C   UNL     1       7.360   4.491  16.864  0.00  0.00    +0.000 A 
ATOM     29  C   UNL     1       7.248   4.615  15.486  0.00  0.00    +0.000 A 
ATOM     30  C   UNL     1       6.077   5.121  14.935  0.00  0.00    +0.000 A 
ATOM     31  C   UNL     1       5.025   5.521  15.765  0.00  0.00    +0.000 A 
ENDBRANCH  24  26
ENDBRANCH   2  20
TORSDOF 3
ENDMDL
