MODEL 1
REMARK VINA RESULT:      -7.3      0.000      0.000
REMARK  Name = 
REMARK  5 active torsions:
REMARK  status: ('A' for Active; 'I' for Inactive)
REMARK    1  A    between atoms: C_1  and  C_2
REMARK    2  A    between atoms: C_2  and  N_3
REMARK    3  A    between atoms: C_2  and  C_14
REMARK    4  A    between atoms: C_4  and  C_6
REMARK    5  A    between atoms: C_12  and  O_13
REMARK                            x       y       z     vdW  Elec       q    Type
REMARK                         _______ _______ _______ _____ _____    ______ ____
ROOT
ATOM      1  N   UNL     1       4.331   3.795  16.502  0.00  0.00    +0.000 N 
ATOM      2  C   UNL     1       5.671   4.052  16.326  0.00  0.00    +0.000 C 
ATOM      3  O   UNL     1       6.460   4.129  17.262  0.00  0.00    +0.000 OA
ATOM      4  H   UNL     1       3.724   3.816  15.689  0.00  0.00    +0.000 HD
ENDROOT
BRANCH   2   5
ATOM      5  C   UNL     1       6.172   4.210  14.928  0.00  0.00    +0.000 A 
ATOM      6  C   UNL     1       5.590   3.374  13.959  0.00  0.00    +0.000 A 
ATOM      7  C   UNL     1       6.002   3.444  12.631  0.00  0.00    +0.000 A 
ATOM      8 CL   UNL     1       5.261   2.431  11.453  0.00  0.00    +0.000 Cl
ATOM      9  C   UNL     1       7.003   4.329  12.249  0.00  0.00    +0.000 A 
ATOM     10  C   UNL     1       7.595   5.163  13.201  0.00  0.00    +0.000 A 
ATOM     11  C   UNL     1       7.176   5.110  14.537  0.00  0.00    +0.000 A 
BRANCH  11  12
ATOM     12  O   UNL     1       7.765   5.947  15.443  0.00  0.00    +0.000 OA
ATOM     13  H   UNL     1       8.435   5.457  15.947  0.00  0.00    +0.000 HD
ENDBRANCH  11  12
ENDBRANCH   2   5
BRANCH   1  15
ATOM     14  C   UNL     1       2.676   2.522  17.827  0.00  0.00    +0.000 C 
ATOM     15  C   UNL     1       3.771   3.595  17.827  0.00  0.00    +0.000 C 
BRANCH  15  16
ATOM     16  C   UNL     1       3.261   4.899  18.414  0.00  0.00    +0.000 A 
ATOM     17  C   UNL     1       2.611   4.888  19.659  0.00  0.00    +0.000 A 
ATOM     18  C   UNL     1       2.063   6.059  20.189  0.00  0.00    +0.000 A 
ATOM     19  C   UNL     1       2.169   7.253  19.481  0.00  0.00    +0.000 A 
ATOM     20 CL   UNL     1       1.464   8.689  20.116  0.00  0.00    +0.000 Cl
ATOM     21  C   UNL     1       2.834   7.290  18.259  0.00  0.00    +0.000 A 
ATOM     22  C   UNL     1       3.386   6.121  17.730  0.00  0.00    +0.000 A 
ENDBRANCH  15  16
ENDBRANCH   1  15
TORSDOF 4
ENDMDL
MODEL 2
REMARK VINA RESULT:      -7.2      0.159      1.092
REMARK  Name = 
REMARK  5 active torsions:
REMARK  status: ('A' for Active; 'I' for Inactive)
REMARK    1  A    between atoms: C_1  and  C_2
REMARK    2  A    between atoms: C_2  and  N_3
REMARK    3  A    between atoms: C_2  and  C_14
REMARK    4  A    between atoms: C_4  and  C_6
REMARK    5  A    between atoms: C_12  and  O_13
REMARK                            x       y       z     vdW  Elec       q    Type
REMARK                         _______ _______ _______ _____ _____    ______ ____
ROOT
ATOM      1  N   UNL     1       4.444   3.709  16.572  0.00  0.00    +0.000 N 
ATOM      2  C   UNL     1       5.770   3.999  16.356  0.00  0.00    +0.000 C 
ATOM      3  O   UNL     1       6.588   4.084  17.267  0.00  0.00    +0.000 OA
ATOM      4  H   UNL     1       3.810   3.726  15.780  0.00  0.00    +0.000 HD
ENDROOT
BRANCH   2   5
ATOM      5  C   UNL     1       6.223   4.186  14.945  0.00  0.00    +0.000 A 
ATOM      6  C   UNL     1       5.623   3.352  13.984  0.00  0.00    +0.000 A 
ATOM      7  C   UNL     1       5.990   3.447  12.645  0.00  0.00    +0.000 A 
ATOM      8 CL   UNL     1       5.229   2.437  11.477  0.00  0.00    +0.000 Cl
ATOM      9  C   UNL     1       6.962   4.356  12.242  0.00  0.00    +0.000 A 
ATOM     10  C   UNL     1       7.571   5.187  13.186  0.00  0.00    +0.000 A 
ATOM     11  C   UNL     1       7.197   5.109  14.534  0.00  0.00    +0.000 A 
BRANCH  11  12
ATOM     12  O   UNL     1       7.800   5.945  15.432  0.00  0.00    +0.000 OA
ATOM     13  H   UNL     1       7.729   5.565  16.323  0.00  0.00    +0.000 HD
ENDBRANCH  11  12
ENDBRANCH   2   5
BRANCH   1  15
ATOM     14  C   UNL     1       2.983   2.278  17.962  0.00  0.00    +0.000 C 
ATOM     15  C   UNL     1       3.932   3.481  17.912  0.00  0.00    +0.000 C 
BRANCH  15  16
ATOM     16  C   UNL     1       3.268   4.728  18.470  0.00  0.00    +0.000 A 
ATOM     17  C   UNL     1       3.377   5.941  17.770  0.00  0.00    +0.000 A 
ATOM     18  C   UNL     1       2.843   7.119  18.296  0.00  0.00    +0.000 A 
ATOM     19  C   UNL     1       2.186   7.093  19.524  0.00  0.00    +0.000 A 
ATOM     20 CL   UNL     1       1.558   8.550  20.189  0.00  0.00    +0.000 Cl
ATOM     21  C   UNL     1       2.043   5.895  20.219  0.00  0.00    +0.000 A 
ATOM     22  C   UNL     1       2.574   4.715  19.692  0.00  0.00    +0.000 A 
ENDBRANCH  15  16
ENDBRANCH   1  15
TORSDOF 4
ENDMDL
MODEL 3
REMARK VINA RESULT:      -7.1      0.955      1.033
REMARK  Name = 
REMARK  5 active torsions:
REMARK  status: ('A' for Active; 'I' for Inactive)
REMARK    1  A    between atoms: C_1  and  C_2
REMARK    2  A    between atoms: C_2  and  N_3
REMARK    3  A    between atoms: C_2  and  C_14
REMARK    4  A    between atoms: C_4  and  C_6
REMARK    5  A    between atoms: C_12  and  O_13
REMARK                            x       y       z     vdW  Elec       q    Type
REMARK                         _______ _______ _______ _____ _____    ______ ____
ROOT
ATOM      1  N   UNL     1       5.105   4.381  16.322  0.00  0.00    +0.000 N 
ATOM      2  C   UNL     1       6.378   4.526  15.823  0.00  0.00    +0.000 C 
ATOM      3  O   UNL     1       7.356   4.705  16.542  0.00  0.00    +0.000 OA
ATOM      4  H   UNL     1       4.334   4.308  15.665  0.00  0.00    +0.000 HD
ENDROOT
BRANCH   2   5
ATOM      5  C   UNL     1       6.563   4.428  14.344  0.00  0.00    +0.000 A 
ATOM      6  C   UNL     1       5.627   3.641  13.650  0.00  0.00    +0.000 A 
ATOM      7  C   UNL     1       5.726   3.484  12.271  0.00  0.00    +0.000 A 
ATOM      8 CL   UNL     1       4.558   2.537  11.433  0.00  0.00    +0.000 Cl
ATOM      9  C   UNL     1       6.759   4.090  11.564  0.00  0.00    +0.000 A 
ATOM     10  C   UNL     1       7.700   4.871  12.240  0.00  0.00    +0.000 A 
ATOM     11  C   UNL     1       7.598   5.047  13.626  0.00  0.00    +0.000 A 
BRANCH  11  12
ATOM     12  O   UNL     1       8.526   5.828  14.258  0.00  0.00    +0.000 OA
ATOM     13  H   UNL     1       8.636   6.659  13.767  0.00  0.00    +0.000 HD
ENDBRANCH  11  12
ENDBRANCH   2   5
BRANCH   1  15
ATOM     14  C   UNL     1       4.186   3.140  18.253  0.00  0.00    +0.000 C 
ATOM     15  C   UNL     1       4.846   4.430  17.750  0.00  0.00    +0.000 C 
BRANCH  15  16
ATOM     16  C   UNL     1       4.022   5.650  18.121  0.00  0.00    +0.000 A 
ATOM     17  C   UNL     1       3.202   5.608  19.262  0.00  0.00    +0.000 A 
ATOM     18  C   UNL     1       2.375   6.686  19.586  0.00  0.00    +0.000 A 
ATOM     19  C   UNL     1       2.366   7.818  18.776  0.00  0.00    +0.000 A 
ATOM     20 CL   UNL     1       1.322   9.132  19.155  0.00  0.00    +0.000 Cl
ATOM     21  C   UNL     1       3.192   7.890  17.657  0.00  0.00    +0.000 A 
ATOM     22  C   UNL     1       4.022   6.814  17.334  0.00  0.00    +0.000 A 
ENDBRANCH  15  16
ENDBRANCH   1  15
TORSDOF 4
ENDMDL
MODEL 4
REMARK VINA RESULT:      -7.0      2.114      2.704
REMARK  Name = 
REMARK  5 active torsions:
REMARK  status: ('A' for Active; 'I' for Inactive)
REMARK    1  A    between atoms: C_1  and  C_2
REMARK    2  A    between atoms: C_2  and  N_3
REMARK    3  A    between atoms: C_2  and  C_14
REMARK    4  A    between atoms: C_4  and  C_6
REMARK    5  A    between atoms: C_12  and  O_13
REMARK                            x       y       z     vdW  Elec       q    Type
REMARK                         _______ _______ _______ _____ _____    ______ ____
ROOT
ATOM      1  N   UNL     1       5.925   4.761  16.418  0.00  0.00    +0.000 N 
ATOM      2  C   UNL     1       5.714   5.482  15.266  0.00  0.00    +0.000 C 
ATOM      3  O   UNL     1       5.242   6.614  15.269  0.00  0.00    +0.000 OA
ATOM      4  H   UNL     1       6.251   3.803  16.337  0.00  0.00    +0.000 HD
ENDROOT
BRANCH   2   5
ATOM      5  C   UNL     1       6.110   4.855  13.969  0.00  0.00    +0.000 A 
ATOM      6  C   UNL     1       5.129   4.075  13.331  0.00  0.00    +0.000 A 
ATOM      7  C   UNL     1       5.411   3.443  12.123  0.00  0.00    +0.000 A 
ATOM      8 CL   UNL     1       4.193   2.511  11.342  0.00  0.00    +0.000 Cl
ATOM      9  C   UNL     1       6.667   3.563  11.540  0.00  0.00    +0.000 A 
ATOM     10  C   UNL     1       7.653   4.332  12.165  0.00  0.00    +0.000 A 
ATOM     11  C   UNL     1       7.373   4.983  13.373  0.00  0.00    +0.000 A 
BRANCH  11  12
ATOM     12  O   UNL     1       8.354   5.739  13.954  0.00  0.00    +0.000 OA
ATOM     13  H   UNL     1       9.222   5.364  13.734  0.00  0.00    +0.000 HD
ENDBRANCH  11  12
ENDBRANCH   2   5
BRANCH   1  15
ATOM     14  C   UNL     1       6.777   5.205  18.697  0.00  0.00    +0.000 C 
ATOM     15  C   UNL     1       5.598   5.313  17.721  0.00  0.00    +0.000 C 
BRANCH  15  16
ATOM     16  C   UNL     1       4.349   4.669  18.297  0.00  0.00    +0.000 A 
ATOM     17  C   UNL     1       3.089   5.041  17.799  0.00  0.00    +0.000 A 
ATOM     18  C   UNL     1       1.919   4.524  18.360  0.00  0.00    +0.000 A 
ATOM     19  C   UNL     1       2.000   3.624  19.419  0.00  0.00    +0.000 A 
ATOM     20 CL   UNL     1       0.558   3.013  20.135  0.00  0.00    +0.000 Cl
ATOM     21  C   UNL     1       3.240   3.221  19.908  0.00  0.00    +0.000 A 
ATOM     22  C   UNL     1       4.411   3.735  19.345  0.00  0.00    +0.000 A 
ENDBRANCH  15  16
ENDBRANCH   1  15
TORSDOF 4
ENDMDL
MODEL 5
REMARK VINA RESULT:      -7.0      1.835      7.129
REMARK  Name = 
REMARK  5 active torsions:
REMARK  status: ('A' for Active; 'I' for Inactive)
REMARK    1  A    between atoms: C_1  and  C_2
REMARK    2  A    between atoms: C_2  and  N_3
REMARK    3  A    between atoms: C_2  and  C_14
REMARK    4  A    between atoms: C_4  and  C_6
REMARK    5  A    between atoms: C_12  and  O_13
REMARK                            x       y       z     vdW  Elec       q    Type
REMARK                         _______ _______ _______ _____ _____    ______ ____
ROOT
ATOM      1  N   UNL     1       5.251   5.556  17.945  0.00  0.00    +0.000 N 
ATOM      2  C   UNL     1       4.967   4.562  18.852  0.00  0.00    +0.000 C 
ATOM      3  O   UNL     1       5.779   3.696  19.164  0.00  0.00    +0.000 OA
ATOM      4  H   UNL     1       4.509   6.195  17.680  0.00  0.00    +0.000 HD
ENDROOT
BRANCH   2   5
ATOM      5  C   UNL     1       3.620   4.569  19.496  0.00  0.00    +0.000 A 
ATOM      6  C   UNL     1       3.117   5.828  19.872  0.00  0.00    +0.000 A 
ATOM      7  C   UNL     1       1.873   5.932  20.489  0.00  0.00    +0.000 A 
ATOM      8 CL   UNL     1       1.262   7.481  20.921  0.00  0.00    +0.000 Cl
ATOM      9  C   UNL     1       1.119   4.794  20.753  0.00  0.00    +0.000 A 
ATOM     10  C   UNL     1       1.608   3.536  20.389  0.00  0.00    +0.000 A 
ATOM     11  C   UNL     1       2.851   3.424  19.755  0.00  0.00    +0.000 A 
BRANCH  11  12
ATOM     12  O   UNL     1       3.297   2.181  19.399  0.00  0.00    +0.000 OA
ATOM     13  H   UNL     1       2.545   1.642  19.102  0.00  0.00    +0.000 HD
ENDBRANCH  11  12
ENDBRANCH   2   5
BRANCH   1  15
ATOM     14  C   UNL     1       7.116   7.061  17.338  0.00  0.00    +0.000 C 
ATOM     15  C   UNL     1       6.550   5.637  17.301  0.00  0.00    +0.000 C 
BRANCH  15  16
ATOM     16  C   UNL     1       6.496   5.105  15.879  0.00  0.00    +0.000 A 
ATOM     17  C   UNL     1       5.409   4.310  15.480  0.00  0.00    +0.000 A 
ATOM     18  C   UNL     1       5.370   3.744  14.203  0.00  0.00    +0.000 A 
ATOM     19  C   UNL     1       6.414   3.975  13.312  0.00  0.00    +0.000 A 
ATOM     20 CL   UNL     1       6.383   3.250  11.752  0.00  0.00    +0.000 Cl
ATOM     21  C   UNL     1       7.486   4.784  13.679  0.00  0.00    +0.000 A 
ATOM     22  C   UNL     1       7.525   5.354  14.954  0.00  0.00    +0.000 A 
ENDBRANCH  15  16
ENDBRANCH   1  15
TORSDOF 4
ENDMDL
MODEL 6
REMARK VINA RESULT:      -7.0      1.852      7.199
REMARK  Name = 
REMARK  5 active torsions:
REMARK  status: ('A' for Active; 'I' for Inactive)
REMARK    1  A    between atoms: C_1  and  C_2
REMARK    2  A    between atoms: C_2  and  N_3
REMARK    3  A    between atoms: C_2  and  C_14
REMARK    4  A    between atoms: C_4  and  C_6
REMARK    5  A    between atoms: C_12  and  O_13
REMARK                            x       y       z     vdW  Elec       q    Type
REMARK                         _______ _______ _______ _____ _____    ______ ____
ROOT
ATOM      1  N   UNL     1       5.280   5.488  18.014  0.00  0.00    +0.000 N 
ATOM      2  C   UNL     1       4.948   4.523  18.936  0.00  0.00    +0.000 C 
ATOM      3  O   UNL     1       5.732   3.649  19.292  0.00  0.00    +0.000 OA
ATOM      4  H   UNL     1       4.560   6.137  17.712  0.00  0.00    +0.000 HD
ENDROOT
BRANCH   2   5
ATOM      5  C   UNL     1       3.583   4.574  19.539  0.00  0.00    +0.000 A 
ATOM      6  C   UNL     1       3.112   5.848  19.906  0.00  0.00    +0.000 A 
ATOM      7  C   UNL     1       1.855   5.992  20.485  0.00  0.00    +0.000 A 
ATOM      8 CL   UNL     1       1.283   7.560  20.906  0.00  0.00    +0.000 Cl
ATOM      9  C   UNL     1       1.055   4.880  20.721  0.00  0.00    +0.000 A 
ATOM     10  C   UNL     1       1.511   3.607  20.366  0.00  0.00    +0.000 A 
ATOM     11  C   UNL     1       2.769   3.455  19.769  0.00  0.00    +0.000 A 
BRANCH  11  12
ATOM     12  O   UNL     1       3.182   2.198  19.421  0.00  0.00    +0.000 OA
ATOM     13  H   UNL     1       4.152   2.178  19.381  0.00  0.00    +0.000 HD
ENDBRANCH  11  12
ENDBRANCH   2   5
BRANCH   1  15
ATOM     14  C   UNL     1       7.186   6.943  17.412  0.00  0.00    +0.000 C 
ATOM     15  C   UNL     1       6.598   5.527  17.407  0.00  0.00    +0.000 C 
BRANCH  15  16
ATOM     16  C   UNL     1       6.579   4.946  16.004  0.00  0.00    +0.000 A 
ATOM     17  C   UNL     1       7.540   5.365  15.069  0.00  0.00    +0.000 A 
ATOM     18  C   UNL     1       7.501   4.906  13.751  0.00  0.00    +0.000 A 
ATOM     19  C   UNL     1       6.504   4.017  13.357  0.00  0.00    +0.000 A 
ATOM     20 CL   UNL     1       6.434   3.479  11.724  0.00  0.00    +0.000 Cl
ATOM     21  C   UNL     1       5.559   3.568  14.276  0.00  0.00    +0.000 A 
ATOM     22  C   UNL     1       5.599   4.024  15.596  0.00  0.00    +0.000 A 
ENDBRANCH  15  16
ENDBRANCH   1  15
TORSDOF 4
ENDMDL
MODEL 7
REMARK VINA RESULT:      -6.9      0.951      1.041
REMARK  Name = 
REMARK  5 active torsions:
REMARK  status: ('A' for Active; 'I' for Inactive)
REMARK    1  A    between atoms: C_1  and  C_2
REMARK    2  A    between atoms: C_2  and  N_3
REMARK    3  A    between atoms: C_2  and  C_14
REMARK    4  A    between atoms: C_4  and  C_6
REMARK    5  A    between atoms: C_12  and  O_13
REMARK                            x       y       z     vdW  Elec       q    Type
REMARK                         _______ _______ _______ _____ _____    ______ ____
ROOT
ATOM      1  N   UNL     1       3.647   4.266  17.034  0.00  0.00    +0.000 N 
ATOM      2  C   UNL     1       5.022   4.273  17.060  0.00  0.00    +0.000 C 
ATOM      3  O   UNL     1       5.667   4.126  18.094  0.00  0.00    +0.000 OA
ATOM      4  H   UNL     1       3.179   4.465  16.156  0.00  0.00    +0.000 HD
ENDROOT
BRANCH   2   5
ATOM      5  C   UNL     1       5.744   4.438  15.763  0.00  0.00    +0.000 A 
ATOM      6  C   UNL     1       5.140   3.850  14.637  0.00  0.00    +0.000 A 
ATOM      7  C   UNL     1       5.746   3.943  13.387  0.00  0.00    +0.000 A 
ATOM      8 CL   UNL     1       4.983   3.240  12.014  0.00  0.00    +0.000 Cl
ATOM      9  C   UNL     1       6.960   4.604  13.238  0.00  0.00    +0.000 A 
ATOM     10  C   UNL     1       7.574   5.189  14.349  0.00  0.00    +0.000 A 
ATOM     11  C   UNL     1       6.964   5.113  15.607  0.00  0.00    +0.000 A 
BRANCH  11  12
ATOM     12  O   UNL     1       7.583   5.706  16.673  0.00  0.00    +0.000 OA
ATOM     13  H   UNL     1       7.345   6.648  16.700  0.00  0.00    +0.000 HD
ENDBRANCH  11  12
ENDBRANCH   2   5
BRANCH   1  15
ATOM     14  C   UNL     1       1.617   3.234  17.997  0.00  0.00    +0.000 C 
ATOM     15  C   UNL     1       2.873   4.078  18.248  0.00  0.00    +0.000 C 
BRANCH  15  16
ATOM     16  C   UNL     1       2.522   5.407  18.892  0.00  0.00    +0.000 A 
ATOM     17  C   UNL     1       2.021   5.428  20.204  0.00  0.00    +0.000 A 
ATOM     18  C   UNL     1       1.617   6.628  20.795  0.00  0.00    +0.000 A 
ATOM     19  C   UNL     1       1.719   7.819  20.081  0.00  0.00    +0.000 A 
ATOM     20 CL   UNL     1       1.189   9.292  20.795  0.00  0.00    +0.000 Cl
ATOM     21  C   UNL     1       2.238   7.823  18.789  0.00  0.00    +0.000 A 
ATOM     22  C   UNL     1       2.646   6.624  18.198  0.00  0.00    +0.000 A 
ENDBRANCH  15  16
ENDBRANCH   1  15
TORSDOF 4
ENDMDL
MODEL 8
REMARK VINA RESULT:      -6.9      0.988      1.554
REMARK  Name = 
REMARK  5 active torsions:
REMARK  status: ('A' for Active; 'I' for Inactive)
REMARK    1  A    between atoms: C_1  and  C_2
REMARK    2  A    between atoms: C_2  and  N_3
REMARK    3  A    between atoms: C_2  and  C_14
REMARK    4  A    between atoms: C_4  and  C_6
REMARK    5  A    between atoms: C_12  and  O_13
REMARK                            x       y       z     vdW  Elec       q    Type
REMARK                         _______ _______ _______ _____ _____    ______ ____
ROOT
ATOM      1  N   UNL     1       3.680   4.161  17.177  0.00  0.00    +0.000 N 
ATOM      2  C   UNL     1       5.052   4.234  17.229  0.00  0.00    +0.000 C 
ATOM      3  O   UNL     1       5.684   4.117  18.274  0.00  0.00    +0.000 OA
ATOM      4  H   UNL     1       3.220   4.339  16.289  0.00  0.00    +0.000 HD
ENDROOT
BRANCH   2   5
ATOM      5  C   UNL     1       5.789   4.435  15.945  0.00  0.00    +0.000 A 
ATOM      6  C   UNL     1       5.219   3.848  14.802  0.00  0.00    +0.000 A 
ATOM      7  C   UNL     1       5.841   3.974  13.563  0.00  0.00    +0.000 A 
ATOM      8 CL   UNL     1       5.117   3.270  12.169  0.00  0.00    +0.000 Cl
ATOM      9  C   UNL     1       7.040   4.667  13.442  0.00  0.00    +0.000 A 
ATOM     10  C   UNL     1       7.621   5.252  14.571  0.00  0.00    +0.000 A 
ATOM     11  C   UNL     1       6.994   5.143  15.818  0.00  0.00    +0.000 A 
BRANCH  11  12
ATOM     12  O   UNL     1       7.581   5.737  16.902  0.00  0.00    +0.000 OA
ATOM     13  H   UNL     1       6.927   5.822  17.615  0.00  0.00    +0.000 HD
ENDBRANCH  11  12
ENDBRANCH   2   5
BRANCH   1  15
ATOM     14  C   UNL     1       1.709   2.996  18.110  0.00  0.00    +0.000 C 
ATOM     15  C   UNL     1       2.893   3.935  18.375  0.00  0.00    +0.000 C 
BRANCH  15  16
ATOM     16  C   UNL     1       2.429   5.244  18.988  0.00  0.00    +0.000 A 
ATOM     17  C   UNL     1       2.588   6.439  18.267  0.00  0.00    +0.000 A 
ATOM     18  C   UNL     1       2.242   7.667  18.834  0.00  0.00    +0.000 A 
ATOM     19  C   UNL     1       1.724   7.710  20.126  0.00  0.00    +0.000 A 
ATOM     20 CL   UNL     1       1.329   9.226  20.839  0.00  0.00    +0.000 Cl
ATOM     21  C   UNL     1       1.531   6.534  20.847  0.00  0.00    +0.000 A 
ATOM     22  C   UNL     1       1.875   5.305  20.278  0.00  0.00    +0.000 A 
ENDBRANCH  15  16
ENDBRANCH   1  15
TORSDOF 4
ENDMDL
MODEL 9
REMARK VINA RESULT:      -6.9      1.572      2.107
REMARK  Name = 
REMARK  5 active torsions:
REMARK  status: ('A' for Active; 'I' for Inactive)
REMARK    1  A    between atoms: C_1  and  C_2
REMARK    2  A    between atoms: C_2  and  N_3
REMARK    3  A    between atoms: C_2  and  C_14
REMARK    4  A    between atoms: C_4  and  C_6
REMARK    5  A    between atoms: C_12  and  O_13
REMARK                            x       y       z     vdW  Elec       q    Type
REMARK                         _______ _______ _______ _____ _____    ______ ____
ROOT
ATOM      1  N   UNL     1       3.717   5.468  17.778  0.00  0.00    +0.000 N 
ATOM      2  C   UNL     1       4.894   4.756  17.751  0.00  0.00    +0.000 C 
ATOM      3  O   UNL     1       5.305   4.117  18.715  0.00  0.00    +0.000 OA
ATOM      4  H   UNL     1       3.475   6.032  16.969  0.00  0.00    +0.000 HD
ENDROOT
BRANCH   2   5
ATOM      5  C   UNL     1       5.676   4.748  16.479  0.00  0.00    +0.000 A 
ATOM      6  C   UNL     1       5.011   4.251  15.344  0.00  0.00    +0.000 A 
ATOM      7  C   UNL     1       5.664   4.195  14.115  0.00  0.00    +0.000 A 
ATOM      8 CL   UNL     1       4.829   3.606  12.730  0.00  0.00    +0.000 Cl
ATOM      9  C   UNL     1       6.984   4.615  13.998  0.00  0.00    +0.000 A 
ATOM     10  C   UNL     1       7.659   5.107  15.119  0.00  0.00    +0.000 A 
ATOM     11  C   UNL     1       7.005   5.181  16.355  0.00  0.00    +0.000 A 
BRANCH  11  12
ATOM     12  O   UNL     1       7.687   5.679  17.430  0.00  0.00    +0.000 OA
ATOM     13  H   UNL     1       8.555   6.005  17.138  0.00  0.00    +0.000 HD
ENDBRANCH  11  12
ENDBRANCH   2   5
BRANCH   1  15
ATOM     14  C   UNL     1       1.762   4.455  18.901  0.00  0.00    +0.000 C 
ATOM     15  C   UNL     1       2.884   5.498  18.966  0.00  0.00    +0.000 C 
BRANCH  15  16
ATOM     16  C   UNL     1       2.326   6.889  19.214  0.00  0.00    +0.000 A 
ATOM     17  C   UNL     1       1.796   7.205  20.477  0.00  0.00    +0.000 A 
ATOM     18  C   UNL     1       1.207   8.449  20.712  0.00  0.00    +0.000 A 
ATOM     19  C   UNL     1       1.149   9.391  19.689  0.00  0.00    +0.000 A 
ATOM     20 CL   UNL     1       0.392  10.911  19.967  0.00  0.00    +0.000 Cl
ATOM     21  C   UNL     1       1.693   9.107  18.439  0.00  0.00    +0.000 A 
ATOM     22  C   UNL     1       2.286   7.864  18.203  0.00  0.00    +0.000 A 
ENDBRANCH  15  16
ENDBRANCH   1  15
TORSDOF 4
ENDMDL
