MODEL 1
REMARK VINA RESULT:      -8.0      0.000      0.000
REMARK  Name = 
REMARK  2 active torsions:
REMARK  status: ('A' for Active; 'I' for Inactive)
REMARK    1  A    between atoms: C_2  and  C_4
REMARK    2  A    between atoms: C_5  and  C_6
REMARK                            x       y       z     vdW  Elec       q    Type
REMARK                         _______ _______ _______ _____ _____    ______ ____
ROOT
ATOM      1  C   UNL     1       2.968   5.822  18.057  0.00  0.00    +0.000 A 
ATOM      2  C   UNL     1       2.878   7.238  18.050  0.00  0.00    +0.000 A 
ATOM      3  N   UNL     1       4.033   7.817  17.661  0.00  0.00    +0.000 NA
ATOM      4  N   UNL     1       4.887   6.773  17.541  0.00  0.00    +0.000 N 
ATOM      5  C   UNL     1       4.331   5.583  17.941  0.00  0.00    +0.000 A 
ATOM      6  N   UNL     1       5.023   4.435  18.193  0.00  0.00    +0.000 N 
ATOM      7  C   UNL     1       6.461   4.420  18.460  0.00  0.00    +0.000 C 
ATOM      8  C   UNL     1       6.959   5.532  19.412  0.00  0.00    +0.000 C 
ATOM      9  C   UNL     1       7.930   6.349  18.562  0.00  0.00    +0.000 C 
ATOM     10  C   UNL     1       7.404   6.154  17.143  0.00  0.00    +0.000 C 
ATOM     11  C   UNL     1       7.167   4.649  17.132  0.00  0.00    +0.000 C 
ATOM     12  C   UNL     1       6.162   7.031  16.872  0.00  0.00    +0.000 C 
ATOM     13  H   UNL     1       4.721   3.625  17.656  0.00  0.00    +0.000 HD
ENDROOT
BRANCH   2  14
ATOM     14  C   UNL     1       1.812   8.071  18.590  0.00  0.00    +0.000 A 
ATOM     15  C   UNL     1       1.178   9.033  17.809  0.00  0.00    +0.000 A 
ATOM     16  C   UNL     1       0.249   9.915  18.371  0.00  0.00    +0.000 A 
ATOM     17  C   UNL     1       0.257  10.025  19.769  0.00  0.00    +0.000 A 
ATOM     18  S   UNL     1      -0.357  11.290  20.766  0.00  0.00    +0.000 S 
ATOM     19  C   UNL     1       0.276  10.492  22.144  0.00  0.00    +0.000 A 
ATOM     20  N   UNL     1       0.805   9.308  21.943  0.00  0.00    +0.000 NA
ATOM     21  C   UNL     1       0.868   9.067  20.580  0.00  0.00    +0.000 A 
ATOM     22  C   UNL     1       1.530   7.988  19.969  0.00  0.00    +0.000 A 
ENDBRANCH   2  14
BRANCH   1  24
ATOM     23  N   UNL     1       1.695   4.482  19.553  0.00  0.00    +0.000 N 
ATOM     24  C   UNL     1       1.892   4.871  18.262  0.00  0.00    +0.000 C 
ATOM     25  O   UNL     1       1.203   4.403  17.359  0.00  0.00    +0.000 OA
ATOM     26  H   UNL     1       0.905   3.886  19.743  0.00  0.00    +0.000 HD
ATOM     27  H   UNL     1       2.069   5.063  20.295  0.00  0.00    +0.000 HD
ENDBRANCH   1  24
TORSDOF 2
ENDMDL
MODEL 2
REMARK VINA RESULT:      -7.3      1.485      1.905
REMARK  Name = 
REMARK  2 active torsions:
REMARK  status: ('A' for Active; 'I' for Inactive)
REMARK    1  A    between atoms: C_2  and  C_4
REMARK    2  A    between atoms: C_5  and  C_6
REMARK                            x       y       z     vdW  Elec       q    Type
REMARK                         _______ _______ _______ _____ _____    ______ ____
ROOT
ATOM      1  C   UNL     1       2.758   5.959  19.133  0.00  0.00    +0.000 A 
ATOM      2  C   UNL     1       2.582   7.317  18.761  0.00  0.00    +0.000 A 
ATOM      3  N   UNL     1       3.352   7.658  17.708  0.00  0.00    +0.000 NA
ATOM      4  N   UNL     1       4.102   6.551  17.492  0.00  0.00    +0.000 N 
ATOM      5  C   UNL     1       3.897   5.578  18.439  0.00  0.00    +0.000 A 
ATOM      6  N   UNL     1       4.698   4.491  18.638  0.00  0.00    +0.000 N 
ATOM      7  C   UNL     1       6.077   4.426  18.156  0.00  0.00    +0.000 C 
ATOM      8  C   UNL     1       6.906   5.714  18.372  0.00  0.00    +0.000 C 
ATOM      9  C   UNL     1       7.273   6.167  16.960  0.00  0.00    +0.000 C 
ATOM     10  C   UNL     1       6.128   5.625  16.109  0.00  0.00    +0.000 C 
ATOM     11  C   UNL     1       6.018   4.205  16.651  0.00  0.00    +0.000 C 
ATOM     12  C   UNL     1       4.859   6.495  16.242  0.00  0.00    +0.000 C 
ATOM     13  H   UNL     1       4.225   3.592  18.580  0.00  0.00    +0.000 HD
ENDROOT
BRANCH   2  14
ATOM     14  C   UNL     1       1.869   8.359  19.488  0.00  0.00    +0.000 A 
ATOM     15  C   UNL     1       1.445   8.167  20.800  0.00  0.00    +0.000 A 
ATOM     16  C   UNL     1       0.647   9.119  21.443  0.00  0.00    +0.000 A 
ATOM     17  C   UNL     1       0.015  10.063  20.621  0.00  0.00    +0.000 A 
ATOM     18  S   UNL     1      -1.362  11.046  20.951  0.00  0.00    +0.000 S 
ATOM     19  C   UNL     1      -1.314  11.631  19.342  0.00  0.00    +0.000 A 
ATOM     20  N   UNL     1      -0.294  11.248  18.611  0.00  0.00    +0.000 NA
ATOM     21  C   UNL     1       0.428  10.292  19.308  0.00  0.00    +0.000 A 
ATOM     22  C   UNL     1       1.480   9.519  18.787  0.00  0.00    +0.000 A 
ENDBRANCH   2  14
BRANCH   1  24
ATOM     23  N   UNL     1       2.581   5.049  21.323  0.00  0.00    +0.000 N 
ATOM     24  C   UNL     1       1.989   5.204  20.105  0.00  0.00    +0.000 C 
ATOM     25  O   UNL     1       0.893   4.699  19.876  0.00  0.00    +0.000 OA
ATOM     26  H   UNL     1       2.042   4.601  22.048  0.00  0.00    +0.000 HD
ATOM     27  H   UNL     1       3.330   5.682  21.581  0.00  0.00    +0.000 HD
ENDBRANCH   1  24
TORSDOF 2
ENDMDL
MODEL 3
REMARK VINA RESULT:      -6.8      3.432      8.415
REMARK  Name = 
REMARK  2 active torsions:
REMARK  status: ('A' for Active; 'I' for Inactive)
REMARK    1  A    between atoms: C_2  and  C_4
REMARK    2  A    between atoms: C_5  and  C_6
REMARK                            x       y       z     vdW  Elec       q    Type
REMARK                         _______ _______ _______ _____ _____    ______ ____
ROOT
ATOM      1  C   UNL     1      -1.158  10.979  19.504  0.00  0.00    +0.000 A 
ATOM      2  C   UNL     1      -0.196  10.217  20.218  0.00  0.00    +0.000 A 
ATOM      3  N   UNL     1      -0.240  10.461  21.544  0.00  0.00    +0.000 NA
ATOM      4  N   UNL     1      -1.143  11.465  21.652  0.00  0.00    +0.000 N 
ATOM      5  C   UNL     1      -1.581  11.919  20.433  0.00  0.00    +0.000 A 
ATOM      6  N   UNL     1      -2.263  13.083  20.224  0.00  0.00    +0.000 N 
ATOM      7  C   UNL     1      -2.267  14.181  21.189  0.00  0.00    +0.000 C 
ATOM      8  C   UNL     1      -0.890  14.506  21.815  0.00  0.00    +0.000 C 
ATOM      9  C   UNL     1      -1.085  14.247  23.308  0.00  0.00    +0.000 C 
ATOM     10  C   UNL     1      -2.179  13.184  23.340  0.00  0.00    +0.000 C 
ATOM     11  C   UNL     1      -3.171  13.766  22.341  0.00  0.00    +0.000 C 
ATOM     12  C   UNL     1      -1.622  11.785  22.997  0.00  0.00    +0.000 C 
ATOM     13  H   UNL     1      -3.159  12.977  19.755  0.00  0.00    +0.000 HD
ENDROOT
BRANCH   2  14
ATOM     14  C   UNL     1       0.897   9.421  19.677  0.00  0.00    +0.000 A 
ATOM     15  C   UNL     1       1.352   9.605  18.374  0.00  0.00    +0.000 A 
ATOM     16  C   UNL     1       2.309   8.749  17.820  0.00  0.00    +0.000 A 
ATOM     17  C   UNL     1       2.512   7.529  18.479  0.00  0.00    +0.000 A 
ATOM     18  S   UNL     1       3.207   6.070  17.880  0.00  0.00    +0.000 S 
ATOM     19  C   UNL     1       2.838   5.299  19.365  0.00  0.00    +0.000 A 
ATOM     20  N   UNL     1       2.346   6.062  20.313  0.00  0.00    +0.000 NA
ATOM     21  C   UNL     1       2.085   7.319  19.791  0.00  0.00    +0.000 A 
ATOM     22  C   UNL     1       1.393   8.351  20.449  0.00  0.00    +0.000 A 
ENDBRANCH   2  14
BRANCH   1  24
ATOM     23  N   UNL     1      -1.262  11.972  17.346  0.00  0.00    +0.000 N 
ATOM     24  C   UNL     1      -1.509  10.864  18.101  0.00  0.00    +0.000 C 
ATOM     25  O   UNL     1      -2.021   9.867  17.598  0.00  0.00    +0.000 OA
ATOM     26  H   UNL     1      -1.418  11.899  16.352  0.00  0.00    +0.000 HD
ATOM     27  H   UNL     1      -0.608  12.661  17.697  0.00  0.00    +0.000 HD
ENDBRANCH   1  24
TORSDOF 2
ENDMDL
MODEL 4
REMARK VINA RESULT:      -6.7      1.816      2.182
REMARK  Name = 
REMARK  2 active torsions:
REMARK  status: ('A' for Active; 'I' for Inactive)
REMARK    1  A    between atoms: C_2  and  C_4
REMARK    2  A    between atoms: C_5  and  C_6
REMARK                            x       y       z     vdW  Elec       q    Type
REMARK                         _______ _______ _______ _____ _____    ______ ____
ROOT
ATOM      1  C   UNL     1       2.457   5.667  19.823  0.00  0.00    +0.000 A 
ATOM      2  C   UNL     1       2.164   7.049  19.685  0.00  0.00    +0.000 A 
ATOM      3  N   UNL     1       2.805   7.600  18.634  0.00  0.00    +0.000 NA
ATOM      4  N   UNL     1       3.596   6.596  18.183  0.00  0.00    +0.000 N 
ATOM      5  C   UNL     1       3.543   5.480  18.980  0.00  0.00    +0.000 A 
ATOM      6  N   UNL     1       4.424   4.438  18.937  0.00  0.00    +0.000 N 
ATOM      7  C   UNL     1       5.750   4.548  18.331  0.00  0.00    +0.000 C 
ATOM      8  C   UNL     1       6.517   5.847  18.672  0.00  0.00    +0.000 C 
ATOM      9  C   UNL     1       6.716   6.533  17.321  0.00  0.00    +0.000 C 
ATOM     10  C   UNL     1       5.528   6.041  16.500  0.00  0.00    +0.000 C 
ATOM     11  C   UNL     1       5.557   4.552  16.821  0.00  0.00    +0.000 C 
ATOM     12  C   UNL     1       4.229   6.785  16.878  0.00  0.00    +0.000 C 
ATOM     13  H   UNL     1       4.002   3.526  18.780  0.00  0.00    +0.000 HD
ENDROOT
BRANCH   2  14
ATOM     14  C   UNL     1       1.465   7.914  20.625  0.00  0.00    +0.000 A 
ATOM     15  C   UNL     1       0.297   7.500  21.260  0.00  0.00    +0.000 A 
ATOM     16  C   UNL     1      -0.438   8.384  22.057  0.00  0.00    +0.000 A 
ATOM     17  C   UNL     1      -0.159   9.749  21.899  0.00  0.00    +0.000 A 
ATOM     18  S   UNL     1      -1.128  11.114  22.310  0.00  0.00    +0.000 S 
ATOM     19  C   UNL     1       0.044  12.143  21.603  0.00  0.00    +0.000 A 
ATOM     20  N   UNL     1       1.151  11.571  21.189  0.00  0.00    +0.000 NA
ATOM     21  C   UNL     1       1.011  10.196  21.284  0.00  0.00    +0.000 A 
ATOM     22  C   UNL     1       1.910   9.244  20.771  0.00  0.00    +0.000 A 
ENDBRANCH   2  14
BRANCH   1  24
ATOM     23  N   UNL     1       0.666   4.173  20.288  0.00  0.00    +0.000 N 
ATOM     24  C   UNL     1       1.834   4.720  20.729  0.00  0.00    +0.000 C 
ATOM     25  O   UNL     1       2.280   4.427  21.835  0.00  0.00    +0.000 OA
ATOM     26  H   UNL     1       0.248   3.451  20.855  0.00  0.00    +0.000 HD
ATOM     27  H   UNL     1       0.460   4.208  19.296  0.00  0.00    +0.000 HD
ENDBRANCH   1  24
TORSDOF 2
ENDMDL
MODEL 5
REMARK VINA RESULT:      -6.6      4.012      8.450
REMARK  Name = 
REMARK  2 active torsions:
REMARK  status: ('A' for Active; 'I' for Inactive)
REMARK    1  A    between atoms: C_2  and  C_4
REMARK    2  A    between atoms: C_5  and  C_6
REMARK                            x       y       z     vdW  Elec       q    Type
REMARK                         _______ _______ _______ _____ _____    ______ ____
ROOT
ATOM      1  C   UNL     1       0.782  12.180  19.287  0.00  0.00    +0.000 A 
ATOM      2  C   UNL     1       0.423  10.813  19.165  0.00  0.00    +0.000 A 
ATOM      3  N   UNL     1      -0.890  10.611  19.400  0.00  0.00    +0.000 NA
ATOM      4  N   UNL     1      -1.333  11.830  19.790  0.00  0.00    +0.000 N 
ATOM      5  C   UNL     1      -0.322  12.752  19.904  0.00  0.00    +0.000 A 
ATOM      6  N   UNL     1      -0.423  13.958  20.533  0.00  0.00    +0.000 N 
ATOM      7  C   UNL     1      -1.473  14.258  21.505  0.00  0.00    +0.000 C 
ATOM      8  C   UNL     1      -1.764  13.129  22.521  0.00  0.00    +0.000 C 
ATOM      9  C   UNL     1      -3.220  12.749  22.256  0.00  0.00    +0.000 C 
ATOM     10  C   UNL     1      -3.408  13.091  20.781  0.00  0.00    +0.000 C 
ATOM     11  C   UNL     1      -2.762  14.469  20.724  0.00  0.00    +0.000 C 
ATOM     12  C   UNL     1      -2.782  12.017  19.864  0.00  0.00    +0.000 C 
ATOM     13  H   UNL     1      -0.185  14.763  19.959  0.00  0.00    +0.000 HD
ENDROOT
BRANCH   2  14
ATOM     14  C   UNL     1       1.307   9.663  19.034  0.00  0.00    +0.000 A 
ATOM     15  C   UNL     1       1.909   9.345  17.819  0.00  0.00    +0.000 A 
ATOM     16  C   UNL     1       2.648   8.167  17.671  0.00  0.00    +0.000 A 
ATOM     17  C   UNL     1       2.458   7.182  18.650  0.00  0.00    +0.000 A 
ATOM     18  S   UNL     1       2.789   5.492  18.574  0.00  0.00    +0.000 S 
ATOM     19  C   UNL     1       2.097   5.300  20.129  0.00  0.00    +0.000 A 
ATOM     20  N   UNL     1       1.745   6.400  20.752  0.00  0.00    +0.000 NA
ATOM     21  C   UNL     1       1.876   7.472  19.885  0.00  0.00    +0.000 A 
ATOM     22  C   UNL     1       1.429   8.783  20.129  0.00  0.00    +0.000 A 
ENDBRANCH   2  14
BRANCH   1  24
ATOM     23  N   UNL     1       2.414  12.709  17.641  0.00  0.00    +0.000 N 
ATOM     24  C   UNL     1       2.055  12.791  18.953  0.00  0.00    +0.000 C 
ATOM     25  O   UNL     1       2.799  13.326  19.771  0.00  0.00    +0.000 OA
ATOM     26  H   UNL     1       3.253  13.193  17.358  0.00  0.00    +0.000 HD
ATOM     27  H   UNL     1       1.694  12.520  16.953  0.00  0.00    +0.000 HD
ENDBRANCH   1  24
TORSDOF 2
ENDMDL
MODEL 6
REMARK VINA RESULT:      -6.6      2.116      3.685
REMARK  Name = 
REMARK  2 active torsions:
REMARK  status: ('A' for Active; 'I' for Inactive)
REMARK    1  A    between atoms: C_2  and  C_4
REMARK    2  A    between atoms: C_5  and  C_6
REMARK                            x       y       z     vdW  Elec       q    Type
REMARK                         _______ _______ _______ _____ _____    ______ ____
ROOT
ATOM      1  C   UNL     1       3.720   6.231  18.254  0.00  0.00    +0.000 A 
ATOM      2  C   UNL     1       2.730   6.833  19.074  0.00  0.00    +0.000 A 
ATOM      3  N   UNL     1       2.233   5.970  19.984  0.00  0.00    +0.000 NA
ATOM      4  N   UNL     1       2.819   4.793  19.658  0.00  0.00    +0.000 N 
ATOM      5  C   UNL     1       3.579   4.876  18.518  0.00  0.00    +0.000 A 
ATOM      6  N   UNL     1       4.050   3.812  17.806  0.00  0.00    +0.000 N 
ATOM      7  C   UNL     1       3.485   2.468  17.924  0.00  0.00    +0.000 C 
ATOM      8  C   UNL     1       1.940   2.412  17.958  0.00  0.00    +0.000 C 
ATOM      9  C   UNL     1       1.616   1.806  19.323  0.00  0.00    +0.000 C 
ATOM     10  C   UNL     1       2.804   2.224  20.184  0.00  0.00    +0.000 C 
ATOM     11  C   UNL     1       3.962   1.894  19.250  0.00  0.00    +0.000 C 
ATOM     12  C   UNL     1       2.696   3.701  20.623  0.00  0.00    +0.000 C 
ATOM     13  H   UNL     1       5.059   3.797  17.673  0.00  0.00    +0.000 HD
ENDROOT
BRANCH   2  14
ATOM     14  C   UNL     1       2.090   8.130  18.901  0.00  0.00    +0.000 A 
ATOM     15  C   UNL     1       2.355   8.925  17.789  0.00  0.00    +0.000 A 
ATOM     16  C   UNL     1       1.840  10.222  17.696  0.00  0.00    +0.000 A 
ATOM     17  C   UNL     1       1.372  10.796  18.886  0.00  0.00    +0.000 A 
ATOM     18  S   UNL     1       1.127  12.458  19.271  0.00  0.00    +0.000 S 
ATOM     19  C   UNL     1       0.716  12.013  20.874  0.00  0.00    +0.000 A 
ATOM     20  N   UNL     1       0.632  10.726  21.119  0.00  0.00    +0.000 NA
ATOM     21  C   UNL     1       1.080  10.025  20.011  0.00  0.00    +0.000 A 
ATOM     22  C   UNL     1       1.307   8.638  19.957  0.00  0.00    +0.000 A 
ENDBRANCH   2  14
BRANCH   1  24
ATOM     23  N   UNL     1       5.746   7.384  17.784  0.00  0.00    +0.000 N 
ATOM     24  C   UNL     1       4.579   6.885  17.285  0.00  0.00    +0.000 C 
ATOM     25  O   UNL     1       4.298   7.027  16.098  0.00  0.00    +0.000 OA
ATOM     26  H   UNL     1       6.403   7.772  17.125  0.00  0.00    +0.000 HD
ATOM     27  H   UNL     1       6.082   7.031  18.672  0.00  0.00    +0.000 HD
ENDBRANCH   1  24
TORSDOF 2
ENDMDL
MODEL 7
REMARK VINA RESULT:      -6.6      4.540      7.567
REMARK  Name = 
REMARK  2 active torsions:
REMARK  status: ('A' for Active; 'I' for Inactive)
REMARK    1  A    between atoms: C_2  and  C_4
REMARK    2  A    between atoms: C_5  and  C_6
REMARK                            x       y       z     vdW  Elec       q    Type
REMARK                         _______ _______ _______ _____ _____    ______ ____
ROOT
ATOM      1  C   UNL     1       5.417   4.684  18.462  0.00  0.00    +0.000 A 
ATOM      2  C   UNL     1       5.049   4.775  17.094  0.00  0.00    +0.000 A 
ATOM      3  N   UNL     1       3.711   4.760  16.927  0.00  0.00    +0.000 NA
ATOM      4  N   UNL     1       3.238   4.537  18.177  0.00  0.00    +0.000 N 
ATOM      5  C   UNL     1       4.238   4.311  19.091  0.00  0.00    +0.000 A 
ATOM      6  N   UNL     1       4.060   3.792  20.340  0.00  0.00    +0.000 N 
ATOM      7  C   UNL     1       2.865   3.042  20.723  0.00  0.00    +0.000 C 
ATOM      8  C   UNL     1       2.372   2.018  19.674  0.00  0.00    +0.000 C 
ATOM      9  C   UNL     1       0.976   2.509  19.296  0.00  0.00    +0.000 C 
ATOM     10  C   UNL     1       1.056   4.014  19.533  0.00  0.00    +0.000 C 
ATOM     11  C   UNL     1       1.738   4.050  20.896  0.00  0.00    +0.000 C 
ATOM     12  C   UNL     1       1.804   4.732  18.389  0.00  0.00    +0.000 C 
ATOM     13  H   UNL     1       4.415   4.370  21.099  0.00  0.00    +0.000 HD
ENDROOT
BRANCH   2  14
ATOM     14  C   UNL     1       5.913   4.670  15.926  0.00  0.00    +0.000 A 
ATOM     15  C   UNL     1       6.808   5.683  15.592  0.00  0.00    +0.000 A 
ATOM     16  C   UNL     1       7.535   5.634  14.399  0.00  0.00    +0.000 A 
ATOM     17  C   UNL     1       7.073   4.742  13.421  0.00  0.00    +0.000 A 
ATOM     18  S   UNL     1       7.378   4.733  11.725  0.00  0.00    +0.000 S 
ATOM     19  C   UNL     1       6.295   3.417  11.551  0.00  0.00    +0.000 A 
ATOM     20  N   UNL     1       5.813   2.906  12.660  0.00  0.00    +0.000 NA
ATOM     21  C   UNL     1       6.192   3.705  13.727  0.00  0.00    +0.000 A 
ATOM     22  C   UNL     1       5.723   3.584  15.047  0.00  0.00    +0.000 A 
ENDBRANCH   2  14
BRANCH   1  24
ATOM     23  N   UNL     1       7.752   4.256  18.313  0.00  0.00    +0.000 N 
ATOM     24  C   UNL     1       6.744   4.830  19.030  0.00  0.00    +0.000 C 
ATOM     25  O   UNL     1       6.981   5.397  20.093  0.00  0.00    +0.000 OA
ATOM     26  H   UNL     1       8.695   4.408  18.635  0.00  0.00    +0.000 HD
ATOM     27  H   UNL     1       7.589   4.042  17.336  0.00  0.00    +0.000 HD
ENDBRANCH   1  24
TORSDOF 2
ENDMDL
MODEL 8
REMARK VINA RESULT:      -6.6      2.660      4.234
REMARK  Name = 
REMARK  2 active torsions:
REMARK  status: ('A' for Active; 'I' for Inactive)
REMARK    1  A    between atoms: C_2  and  C_4
REMARK    2  A    between atoms: C_5  and  C_6
REMARK                            x       y       z     vdW  Elec       q    Type
REMARK                         _______ _______ _______ _____ _____    ______ ____
ROOT
ATOM      1  C   UNL     1       2.645   7.050  18.837  0.00  0.00    +0.000 A 
ATOM      2  C   UNL     1       1.897   7.595  19.913  0.00  0.00    +0.000 A 
ATOM      3  N   UNL     1       1.630   6.675  20.862  0.00  0.00    +0.000 NA
ATOM      4  N   UNL     1       2.103   5.523  20.329  0.00  0.00    +0.000 N 
ATOM      5  C   UNL     1       2.559   5.680  19.044  0.00  0.00    +0.000 A 
ATOM      6  N   UNL     1       2.826   4.665  18.173  0.00  0.00    +0.000 N 
ATOM      7  C   UNL     1       2.291   3.314  18.344  0.00  0.00    +0.000 C 
ATOM      8  C   UNL     1       0.802   3.249  18.757  0.00  0.00    +0.000 C 
ATOM      9  C   UNL     1       0.819   2.558  20.119  0.00  0.00    +0.000 C 
ATOM     10  C   UNL     1       2.189   2.926  20.682  0.00  0.00    +0.000 C 
ATOM     11  C   UNL     1       3.075   2.659  19.472  0.00  0.00    +0.000 C 
ATOM     12  C   UNL     1       2.210   4.372  21.225  0.00  0.00    +0.000 C 
ATOM     13  H   UNL     1       3.770   4.662  17.793  0.00  0.00    +0.000 HD
ENDROOT
BRANCH   2  14
ATOM     14  C   UNL     1       1.250   8.898  19.984  0.00  0.00    +0.000 A 
ATOM     15  C   UNL     1       1.144   9.590  21.187  0.00  0.00    +0.000 A 
ATOM     16  C   UNL     1       0.407  10.776  21.270  0.00  0.00    +0.000 A 
ATOM     17  C   UNL     1      -0.487  11.031  20.221  0.00  0.00    +0.000 A 
ATOM     18  S   UNL     1      -1.858  12.076  20.188  0.00  0.00    +0.000 S 
ATOM     19  C   UNL     1      -2.224  11.525  18.608  0.00  0.00    +0.000 A 
ATOM     20  N   UNL     1      -1.351  10.715  18.054  0.00  0.00    +0.000 NA
ATOM     21  C   UNL     1      -0.396  10.368  18.997  0.00  0.00    +0.000 A 
ATOM     22  C   UNL     1       0.595   9.385  18.834  0.00  0.00    +0.000 A 
ENDBRANCH   2  14
BRANCH   1  24
ATOM     23  N   UNL     1       4.525   7.407  17.426  0.00  0.00    +0.000 N 
ATOM     24  C   UNL     1       3.246   7.767  17.729  0.00  0.00    +0.000 C 
ATOM     25  O   UNL     1       2.685   8.661  17.101  0.00  0.00    +0.000 OA
ATOM     26  H   UNL     1       4.945   7.826  16.611  0.00  0.00    +0.000 HD
ATOM     27  H   UNL     1       4.866   6.511  17.755  0.00  0.00    +0.000 HD
ENDBRANCH   1  24
TORSDOF 2
ENDMDL
MODEL 9
REMARK VINA RESULT:      -6.5      4.112      7.406
REMARK  Name = 
REMARK  2 active torsions:
REMARK  status: ('A' for Active; 'I' for Inactive)
REMARK    1  A    between atoms: C_2  and  C_4
REMARK    2  A    between atoms: C_5  and  C_6
REMARK                            x       y       z     vdW  Elec       q    Type
REMARK                         _______ _______ _______ _____ _____    ______ ____
ROOT
ATOM      1  C   UNL     1       3.604   5.599  17.702  0.00  0.00    +0.000 A 
ATOM      2  C   UNL     1       4.076   4.498  16.941  0.00  0.00    +0.000 A 
ATOM      3  N   UNL     1       3.398   3.365  17.216  0.00  0.00    +0.000 NA
ATOM      4  N   UNL     1       2.582   3.722  18.236  0.00  0.00    +0.000 N 
ATOM      5  C   UNL     1       2.806   5.006  18.670  0.00  0.00    +0.000 A 
ATOM      6  N   UNL     1       2.342   5.534  19.839  0.00  0.00    +0.000 N 
ATOM      7  C   UNL     1       1.897   4.707  20.960  0.00  0.00    +0.000 C 
ATOM      8  C   UNL     1       2.802   3.493  21.275  0.00  0.00    +0.000 C 
ATOM      9  C   UNL     1       1.897   2.282  21.054  0.00  0.00    +0.000 C 
ATOM     10  C   UNL     1       0.900   2.775  20.010  0.00  0.00    +0.000 C 
ATOM     11  C   UNL     1       0.536   4.137  20.586  0.00  0.00    +0.000 C 
ATOM     12  C   UNL     1       1.517   2.786  18.595  0.00  0.00    +0.000 C 
ATOM     13  H   UNL     1       1.786   6.380  19.737  0.00  0.00    +0.000 HD
ENDROOT
BRANCH   2  14
ATOM     14  C   UNL     1       5.273   4.428  16.115  0.00  0.00    +0.000 A 
ATOM     15  C   UNL     1       6.415   5.160  16.430  0.00  0.00    +0.000 A 
ATOM     16  C   UNL     1       7.510   5.190  15.561  0.00  0.00    +0.000 A 
ATOM     17  C   UNL     1       7.277   4.766  14.245  0.00  0.00    +0.000 A 
ATOM     18  S   UNL     1       8.187   5.093  12.818  0.00  0.00    +0.000 S 
ATOM     19  C   UNL     1       7.003   4.270  11.891  0.00  0.00    +0.000 A 
ATOM     20  N   UNL     1       6.047   3.672  12.562  0.00  0.00    +0.000 NA
ATOM     21  C   UNL     1       6.153   4.015  13.901  0.00  0.00    +0.000 A 
ATOM     22  C   UNL     1       5.209   3.716  14.899  0.00  0.00    +0.000 A 
ENDBRANCH   2  14
BRANCH   1  24
ATOM     23  N   UNL     1       2.938   7.868  17.454  0.00  0.00    +0.000 N 
ATOM     24  C   UNL     1       3.978   6.993  17.561  0.00  0.00    +0.000 C 
ATOM     25  O   UNL     1       5.138   7.395  17.507  0.00  0.00    +0.000 OA
ATOM     26  H   UNL     1       3.159   8.852  17.436  0.00  0.00    +0.000 HD
ATOM     27  H   UNL     1       2.021   7.570  17.768  0.00  0.00    +0.000 HD
ENDBRANCH   1  24
TORSDOF 2
ENDMDL
