MODEL 1
REMARK VINA RESULT:      -7.8      0.000      0.000
REMARK  Name = 
REMARK  3 active torsions:
REMARK  status: ('A' for Active; 'I' for Inactive)
REMARK    1  A    between atoms: C_5  and  N_6
REMARK    2  A    between atoms: C_9  and  O_10
REMARK    3  A    between atoms: O_10  and  C_11
REMARK                            x       y       z     vdW  Elec       q    Type
REMARK                         _______ _______ _______ _____ _____    ______ ____
ROOT
ATOM      1  N   UNL     1       8.094   5.393  20.449  0.00  0.00    +0.000 N 
ATOM      2  C   UNL     1       7.573   5.533  19.184  0.00  0.00    +0.000 A 
ATOM      3  N   UNL     1       7.881   6.644  18.509  0.00  0.00    +0.000 NA
ATOM      4  C   UNL     1       7.355   6.769  17.270  0.00  0.00    +0.000 A 
ATOM      5  C   UNL     1       6.512   5.838  16.711  0.00  0.00    +0.000 A 
ATOM      6  C   UNL     1       6.211   4.756  17.504  0.00  0.00    +0.000 A 
ATOM      7  N   UNL     1       6.766   4.574  18.729  0.00  0.00    +0.000 NA
ATOM      8  H   UNL     1       8.339   6.296  20.831  0.00  0.00    +0.000 HD
ATOM      9  H   UNL     1       7.497   4.800  21.011  0.00  0.00    +0.000 HD
ENDROOT
BRANCH   5  10
ATOM     10  N   UNL     1       6.010   6.033  15.370  0.00  0.00    +0.000 N 
ATOM     11  O   UNL     1       6.534   5.364  14.468  0.00  0.00    +0.000 OA
ATOM     12  O   UNL     1       5.088   6.838  15.181  0.00  0.00    +0.000 OA
ENDBRANCH   5  10
BRANCH   6  13
ATOM     13  O   UNL     1       5.371   3.763  17.033  0.00  0.00    +0.000 OA
BRANCH  13  14
ATOM     14  C   UNL     1       4.064   3.736  17.460  0.00  0.00    +0.000 A 
ATOM     15  C   UNL     1       3.460   4.983  17.648  0.00  0.00    +0.000 A 
ATOM     16  C   UNL     1       2.145   5.067  18.112  0.00  0.00    +0.000 A 
ATOM     17  C   UNL     1       1.428   3.905  18.399  0.00  0.00    +0.000 A 
ATOM     18  C   UNL     1       2.036   2.659  18.245  0.00  0.00    +0.000 A 
ATOM     19  C   UNL     1       3.355   2.581  17.800  0.00  0.00    +0.000 A 
ATOM     20  F   UNL     1       3.930   1.370  17.743  0.00  0.00    +0.000 F 
ENDBRANCH  13  14
ENDBRANCH   6  13
TORSDOF 3
ENDMDL
MODEL 2
REMARK VINA RESULT:      -7.7      1.650      1.845
REMARK  Name = 
REMARK  3 active torsions:
REMARK  status: ('A' for Active; 'I' for Inactive)
REMARK    1  A    between atoms: C_5  and  N_6
REMARK    2  A    between atoms: C_9  and  O_10
REMARK    3  A    between atoms: O_10  and  C_11
REMARK                            x       y       z     vdW  Elec       q    Type
REMARK                         _______ _______ _______ _____ _____    ______ ____
ROOT
ATOM      1  N   UNL     1       8.595   5.205  20.370  0.00  0.00    +0.000 N 
ATOM      2  C   UNL     1       7.703   5.542  19.378  0.00  0.00    +0.000 A 
ATOM      3  N   UNL     1       7.947   6.655  18.681  0.00  0.00    +0.000 NA
ATOM      4  C   UNL     1       7.058   6.976  17.714  0.00  0.00    +0.000 A 
ATOM      5  C   UNL     1       5.927   6.237  17.456  0.00  0.00    +0.000 A 
ATOM      6  C   UNL     1       5.735   5.140  18.263  0.00  0.00    +0.000 A 
ATOM      7  N   UNL     1       6.637   4.761  19.203  0.00  0.00    +0.000 NA
ATOM      8  H   UNL     1       9.108   6.021  20.674  0.00  0.00    +0.000 HD
ATOM      9  H   UNL     1       8.135   4.656  21.083  0.00  0.00    +0.000 HD
ENDROOT
BRANCH   5  10
ATOM     10  N   UNL     1       5.036   6.633  16.389  0.00  0.00    +0.000 N 
ATOM     11  O   UNL     1       3.986   7.205  16.714  0.00  0.00    +0.000 OA
ATOM     12  O   UNL     1       5.355   6.397  15.216  0.00  0.00    +0.000 OA
ENDBRANCH   5  10
BRANCH   6  13
ATOM     13  O   UNL     1       4.626   4.333  18.082  0.00  0.00    +0.000 OA
BRANCH  13  14
ATOM     14  C   UNL     1       3.776   4.120  19.142  0.00  0.00    +0.000 A 
ATOM     15  C   UNL     1       3.019   5.225  19.544  0.00  0.00    +0.000 A 
ATOM     16  C   UNL     1       2.148   5.125  20.633  0.00  0.00    +0.000 A 
ATOM     17  C   UNL     1       2.034   3.921  21.329  0.00  0.00    +0.000 A 
ATOM     18  C   UNL     1       2.811   2.825  20.952  0.00  0.00    +0.000 A 
ATOM     19  C   UNL     1       3.692   2.936  19.878  0.00  0.00    +0.000 A 
ATOM     20  F   UNL     1       4.479   1.886  19.598  0.00  0.00    +0.000 F 
ENDBRANCH  13  14
ENDBRANCH   6  13
TORSDOF 3
ENDMDL
MODEL 3
REMARK VINA RESULT:      -7.6      1.263      1.816
REMARK  Name = 
REMARK  3 active torsions:
REMARK  status: ('A' for Active; 'I' for Inactive)
REMARK    1  A    between atoms: C_5  and  N_6
REMARK    2  A    between atoms: C_9  and  O_10
REMARK    3  A    between atoms: O_10  and  C_11
REMARK                            x       y       z     vdW  Elec       q    Type
REMARK                         _______ _______ _______ _____ _____    ______ ____
ROOT
ATOM      1  N   UNL     1       8.189   5.446  20.414  0.00  0.00    +0.000 N 
ATOM      2  C   UNL     1       7.566   5.539  19.191  0.00  0.00    +0.000 A 
ATOM      3  N   UNL     1       7.882   6.579  18.415  0.00  0.00    +0.000 NA
ATOM      4  C   UNL     1       7.257   6.659  17.219  0.00  0.00    +0.000 A 
ATOM      5  C   UNL     1       6.310   5.753  16.801  0.00  0.00    +0.000 A 
ATOM      6  C   UNL     1       6.013   4.749  17.693  0.00  0.00    +0.000 A 
ATOM      7  N   UNL     1       6.663   4.610  18.876  0.00  0.00    +0.000 NA
ATOM      8  H   UNL     1       8.523   6.354  20.708  0.00  0.00    +0.000 HD
ATOM      9  H   UNL     1       7.608   4.935  21.065  0.00  0.00    +0.000 HD
ENDROOT
BRANCH   5  10
ATOM     10  N   UNL     1       5.703   5.894  15.497  0.00  0.00    +0.000 N 
ATOM     11  O   UNL     1       5.035   6.917  15.294  0.00  0.00    +0.000 OA
ATOM     12  O   UNL     1       5.880   5.009  14.649  0.00  0.00    +0.000 OA
ENDBRANCH   5  10
BRANCH   6  13
ATOM     13  O   UNL     1       5.073   3.788  17.366  0.00  0.00    +0.000 OA
BRANCH  13  14
ATOM     14  C   UNL     1       3.918   3.705  18.107  0.00  0.00    +0.000 A 
ATOM     15  C   UNL     1       3.698   2.486  18.754  0.00  0.00    +0.000 A 
ATOM     16  C   UNL     1       2.537   2.285  19.507  0.00  0.00    +0.000 A 
ATOM     17  C   UNL     1       1.587   3.302  19.610  0.00  0.00    +0.000 A 
ATOM     18  C   UNL     1       1.785   4.509  18.939  0.00  0.00    +0.000 A 
ATOM     19  C   UNL     1       2.935   4.697  18.175  0.00  0.00    +0.000 A 
ATOM     20  F   UNL     1       3.052   5.838  17.481  0.00  0.00    +0.000 F 
ENDBRANCH  13  14
ENDBRANCH   6  13
TORSDOF 3
ENDMDL
MODEL 4
REMARK VINA RESULT:      -7.6      2.071      2.499
REMARK  Name = 
REMARK  3 active torsions:
REMARK  status: ('A' for Active; 'I' for Inactive)
REMARK    1  A    between atoms: C_5  and  N_6
REMARK    2  A    between atoms: C_9  and  O_10
REMARK    3  A    between atoms: O_10  and  C_11
REMARK                            x       y       z     vdW  Elec       q    Type
REMARK                         _______ _______ _______ _____ _____    ______ ____
ROOT
ATOM      1  N   UNL     1       8.542   5.228  20.397  0.00  0.00    +0.000 N 
ATOM      2  C   UNL     1       7.668   5.568  19.390  0.00  0.00    +0.000 A 
ATOM      3  N   UNL     1       7.974   6.630  18.640  0.00  0.00    +0.000 NA
ATOM      4  C   UNL     1       7.101   6.955  17.659  0.00  0.00    +0.000 A 
ATOM      5  C   UNL     1       5.929   6.272  17.437  0.00  0.00    +0.000 A 
ATOM      6  C   UNL     1       5.676   5.228  18.296  0.00  0.00    +0.000 A 
ATOM      7  N   UNL     1       6.558   4.843  19.253  0.00  0.00    +0.000 NA
ATOM      8  H   UNL     1       9.102   6.027  20.661  0.00  0.00    +0.000 HD
ATOM      9  H   UNL     1       8.053   4.742  21.136  0.00  0.00    +0.000 HD
ENDROOT
BRANCH   5  10
ATOM     10  N   UNL     1       5.059   6.666  16.352  0.00  0.00    +0.000 N 
ATOM     11  O   UNL     1       4.039   7.304  16.651  0.00  0.00    +0.000 OA
ATOM     12  O   UNL     1       5.367   6.366  15.191  0.00  0.00    +0.000 OA
ENDBRANCH   5  10
BRANCH   6  13
ATOM     13  O   UNL     1       4.522   4.478  18.155  0.00  0.00    +0.000 OA
BRANCH  13  14
ATOM     14  C   UNL     1       3.708   4.293  19.248  0.00  0.00    +0.000 A 
ATOM     15  C   UNL     1       3.632   2.985  19.734  0.00  0.00    +0.000 A 
ATOM     16  C   UNL     1       2.808   2.682  20.821  0.00  0.00    +0.000 A 
ATOM     17  C   UNL     1       2.050   3.686  21.424  0.00  0.00    +0.000 A 
ATOM     18  C   UNL     1       2.096   4.987  20.923  0.00  0.00    +0.000 A 
ATOM     19  C   UNL     1       2.905   5.280  19.827  0.00  0.00    +0.000 A 
ATOM     20  F   UNL     1       2.861   6.523  19.324  0.00  0.00    +0.000 F 
ENDBRANCH  13  14
ENDBRANCH   6  13
TORSDOF 3
ENDMDL
MODEL 5
REMARK VINA RESULT:      -7.4      3.194      5.524
REMARK  Name = 
REMARK  3 active torsions:
REMARK  status: ('A' for Active; 'I' for Inactive)
REMARK    1  A    between atoms: C_5  and  N_6
REMARK    2  A    between atoms: C_9  and  O_10
REMARK    3  A    between atoms: O_10  and  C_11
REMARK                            x       y       z     vdW  Elec       q    Type
REMARK                         _______ _______ _______ _____ _____    ______ ____
ROOT
ATOM      1  N   UNL     1       1.676   7.000  20.743  0.00  0.00    +0.000 N 
ATOM      2  C   UNL     1       2.264   5.800  20.416  0.00  0.00    +0.000 A 
ATOM      3  N   UNL     1       1.986   4.746  21.190  0.00  0.00    +0.000 NA
ATOM      4  C   UNL     1       2.577   3.576  20.859  0.00  0.00    +0.000 A 
ATOM      5  C   UNL     1       3.454   3.444  19.808  0.00  0.00    +0.000 A 
ATOM      6  C   UNL     1       3.718   4.597  19.105  0.00  0.00    +0.000 A 
ATOM      7  N   UNL     1       3.099   5.773  19.377  0.00  0.00    +0.000 NA
ATOM      8  H   UNL     1       1.406   7.006  21.717  0.00  0.00    +0.000 HD
ATOM      9  H   UNL     1       2.245   7.769  20.416  0.00  0.00    +0.000 HD
ENDROOT
BRANCH   5  10
ATOM     10  N   UNL     1       4.027   2.153  19.504  0.00  0.00    +0.000 N 
ATOM     11  O   UNL     1       3.499   1.504  18.589  0.00  0.00    +0.000 OA
ATOM     12  O   UNL     1       5.007   1.759  20.149  0.00  0.00    +0.000 OA
ENDBRANCH   5  10
BRANCH   6  13
ATOM     13  O   UNL     1       4.587   4.569  18.030  0.00  0.00    +0.000 OA
BRANCH  13  14
ATOM     14  C   UNL     1       5.678   5.407  18.031  0.00  0.00    +0.000 A 
ATOM     15  C   UNL     1       6.630   5.162  19.025  0.00  0.00    +0.000 A 
ATOM     16  C   UNL     1       7.760   5.976  19.135  0.00  0.00    +0.000 A 
ATOM     17  C   UNL     1       7.942   7.044  18.256  0.00  0.00    +0.000 A 
ATOM     18  C   UNL     1       6.979   7.313  17.283  0.00  0.00    +0.000 A 
ATOM     19  C   UNL     1       5.844   6.509  17.189  0.00  0.00    +0.000 A 
ATOM     20  F   UNL     1       4.903   6.849  16.295  0.00  0.00    +0.000 F 
ENDBRANCH  13  14
ENDBRANCH   6  13
TORSDOF 3
ENDMDL
MODEL 6
REMARK VINA RESULT:      -7.2      1.236      1.475
REMARK  Name = 
REMARK  3 active torsions:
REMARK  status: ('A' for Active; 'I' for Inactive)
REMARK    1  A    between atoms: C_5  and  N_6
REMARK    2  A    between atoms: C_9  and  O_10
REMARK    3  A    between atoms: O_10  and  C_11
REMARK                            x       y       z     vdW  Elec       q    Type
REMARK                         _______ _______ _______ _____ _____    ______ ____
ROOT
ATOM      1  N   UNL     1       8.502   5.298  20.541  0.00  0.00    +0.000 N 
ATOM      2  C   UNL     1       7.723   5.541  19.433  0.00  0.00    +0.000 A 
ATOM      3  N   UNL     1       7.967   6.657  18.739  0.00  0.00    +0.000 NA
ATOM      4  C   UNL     1       7.189   6.883  17.657  0.00  0.00    +0.000 A 
ATOM      5  C   UNL     1       6.163   6.050  17.278  0.00  0.00    +0.000 A 
ATOM      6  C   UNL     1       5.955   4.957  18.087  0.00  0.00    +0.000 A 
ATOM      7  N   UNL     1       6.754   4.672  19.146  0.00  0.00    +0.000 NA
ATOM      8  H   UNL     1       8.904   6.160  20.883  0.00  0.00    +0.000 HD
ATOM      9  H   UNL     1       7.998   4.727  21.205  0.00  0.00    +0.000 HD
ENDROOT
BRANCH   5  10
ATOM     10  N   UNL     1       5.391   6.349  16.094  0.00  0.00    +0.000 N 
ATOM     11  O   UNL     1       4.393   7.070  16.239  0.00  0.00    +0.000 OA
ATOM     12  O   UNL     1       5.755   5.891  15.003  0.00  0.00    +0.000 OA
ENDBRANCH   5  10
BRANCH   6  13
ATOM     13  O   UNL     1       4.947   4.057  17.790  0.00  0.00    +0.000 OA
BRANCH  13  14
ATOM     14  C   UNL     1       3.736   4.176  18.432  0.00  0.00    +0.000 A 
ATOM     15  C   UNL     1       3.777   4.765  19.699  0.00  0.00    +0.000 A 
ATOM     16  C   UNL     1       2.606   4.902  20.451  0.00  0.00    +0.000 A 
ATOM     17  C   UNL     1       1.390   4.445  19.941  0.00  0.00    +0.000 A 
ATOM     18  C   UNL     1       1.350   3.827  18.692  0.00  0.00    +0.000 A 
ATOM     19  C   UNL     1       2.522   3.675  17.954  0.00  0.00    +0.000 A 
ATOM     20  F   UNL     1       2.456   3.004  16.795  0.00  0.00    +0.000 F 
ENDBRANCH  13  14
ENDBRANCH   6  13
TORSDOF 3
ENDMDL
MODEL 7
REMARK VINA RESULT:      -7.2      3.178      5.434
REMARK  Name = 
REMARK  3 active torsions:
REMARK  status: ('A' for Active; 'I' for Inactive)
REMARK    1  A    between atoms: C_5  and  N_6
REMARK    2  A    between atoms: C_9  and  O_10
REMARK    3  A    between atoms: O_10  and  C_11
REMARK                            x       y       z     vdW  Elec       q    Type
REMARK                         _______ _______ _______ _____ _____    ______ ____
ROOT
ATOM      1  N   UNL     1       1.955   7.392  20.706  0.00  0.00    +0.000 N 
ATOM      2  C   UNL     1       2.188   6.172  20.115  0.00  0.00    +0.000 A 
ATOM      3  N   UNL     1       1.486   5.126  20.560  0.00  0.00    +0.000 NA
ATOM      4  C   UNL     1       1.732   3.933  19.973  0.00  0.00    +0.000 A 
ATOM      5  C   UNL     1       2.676   3.758  18.989  0.00  0.00    +0.000 A 
ATOM      6  C   UNL     1       3.385   4.883  18.637  0.00  0.00    +0.000 A 
ATOM      7  N   UNL     1       3.123   6.104  19.167  0.00  0.00    +0.000 NA
ATOM      8  H   UNL     1       1.555   7.267  21.625  0.00  0.00    +0.000 HD
ATOM      9  H   UNL     1       2.775   7.979  20.635  0.00  0.00    +0.000 HD
ENDROOT
BRANCH   5  10
ATOM     10  N   UNL     1       2.864   2.454  18.394  0.00  0.00    +0.000 N 
ATOM     11  O   UNL     1       3.674   1.695  18.944  0.00  0.00    +0.000 OA
ATOM     12  O   UNL     1       2.214   2.151  17.385  0.00  0.00    +0.000 OA
ENDBRANCH   5  10
BRANCH   6  13
ATOM     13  O   UNL     1       4.357   4.810  17.656  0.00  0.00    +0.000 OA
BRANCH  13  14
ATOM     14  C   UNL     1       5.532   5.505  17.827  0.00  0.00    +0.000 A 
ATOM     15  C   UNL     1       6.312   5.119  18.920  0.00  0.00    +0.000 A 
ATOM     16  C   UNL     1       7.509   5.783  19.203  0.00  0.00    +0.000 A 
ATOM     17  C   UNL     1       7.928   6.842  18.397  0.00  0.00    +0.000 A 
ATOM     18  C   UNL     1       7.137   7.253  17.324  0.00  0.00    +0.000 A 
ATOM     19  C   UNL     1       5.935   6.600  17.058  0.00  0.00    +0.000 A 
ATOM     20  F   UNL     1       5.165   7.076  16.069  0.00  0.00    +0.000 F 
ENDBRANCH  13  14
ENDBRANCH   6  13
TORSDOF 3
ENDMDL
MODEL 8
REMARK VINA RESULT:      -7.1      3.170      5.231
REMARK  Name = 
REMARK  3 active torsions:
REMARK  status: ('A' for Active; 'I' for Inactive)
REMARK    1  A    between atoms: C_5  and  N_6
REMARK    2  A    between atoms: C_9  and  O_10
REMARK    3  A    between atoms: O_10  and  C_11
REMARK                            x       y       z     vdW  Elec       q    Type
REMARK                         _______ _______ _______ _____ _____    ______ ____
ROOT
ATOM      1  N   UNL     1       2.264   7.083  20.073  0.00  0.00    +0.000 N 
ATOM      2  C   UNL     1       2.769   5.809  19.958  0.00  0.00    +0.000 A 
ATOM      3  N   UNL     1       2.008   4.801  20.394  0.00  0.00    +0.000 NA
ATOM      4  C   UNL     1       2.522   3.556  20.280  0.00  0.00    +0.000 A 
ATOM      5  C   UNL     1       3.777   3.301  19.778  0.00  0.00    +0.000 A 
ATOM      6  C   UNL     1       4.505   4.408  19.407  0.00  0.00    +0.000 A 
ATOM      7  N   UNL     1       3.996   5.665  19.457  0.00  0.00    +0.000 NA
ATOM      8  H   UNL     1       1.552   7.116  20.790  0.00  0.00    +0.000 HD
ATOM      9  H   UNL     1       3.017   7.754  20.139  0.00  0.00    +0.000 HD
ENDROOT
BRANCH   5  10
ATOM     10  N   UNL     1       4.246   1.939  19.666  0.00  0.00    +0.000 N 
ATOM     11  O   UNL     1       3.784   1.259  18.739  0.00  0.00    +0.000 OA
ATOM     12  O   UNL     1       5.079   1.518  20.479  0.00  0.00    +0.000 OA
ENDBRANCH   5  10
BRANCH   6  13
ATOM     13  O   UNL     1       5.779   4.257  18.890  0.00  0.00    +0.000 OA
BRANCH  13  14
ATOM     14  C   UNL     1       6.003   4.557  17.567  0.00  0.00    +0.000 A 
ATOM     15  C   UNL     1       5.181   3.898  16.648  0.00  0.00    +0.000 A 
ATOM     16  C   UNL     1       5.348   4.106  15.276  0.00  0.00    +0.000 A 
ATOM     17  C   UNL     1       6.342   4.970  14.816  0.00  0.00    +0.000 A 
ATOM     18  C   UNL     1       7.187   5.605  15.727  0.00  0.00    +0.000 A 
ATOM     19  C   UNL     1       7.028   5.379  17.093  0.00  0.00    +0.000 A 
ATOM     20  F   UNL     1       7.910   5.943  17.932  0.00  0.00    +0.000 F 
ENDBRANCH  13  14
ENDBRANCH   6  13
TORSDOF 3
ENDMDL
MODEL 9
REMARK VINA RESULT:      -7.1      3.041      5.249
REMARK  Name = 
REMARK  3 active torsions:
REMARK  status: ('A' for Active; 'I' for Inactive)
REMARK    1  A    between atoms: C_5  and  N_6
REMARK    2  A    between atoms: C_9  and  O_10
REMARK    3  A    between atoms: O_10  and  C_11
REMARK                            x       y       z     vdW  Elec       q    Type
REMARK                         _______ _______ _______ _____ _____    ______ ____
ROOT
ATOM      1  N   UNL     1       1.645   7.342  21.064  0.00  0.00    +0.000 N 
ATOM      2  C   UNL     1       1.956   6.255  20.281  0.00  0.00    +0.000 A 
ATOM      3  N   UNL     1       1.358   5.095  20.569  0.00  0.00    +0.000 NA
ATOM      4  C   UNL     1       1.679   4.035  19.793  0.00  0.00    +0.000 A 
ATOM      5  C   UNL     1       2.598   4.099  18.772  0.00  0.00    +0.000 A 
ATOM      6  C   UNL     1       3.200   5.322  18.589  0.00  0.00    +0.000 A 
ATOM      7  N   UNL     1       2.858   6.417  19.313  0.00  0.00    +0.000 NA
ATOM      8  H   UNL     1       1.290   7.039  21.961  0.00  0.00    +0.000 HD
ATOM      9  H   UNL     1       2.412   8.000  21.070  0.00  0.00    +0.000 HD
ENDROOT
BRANCH   5  10
ATOM     10  N   UNL     1       2.870   2.926  17.973  0.00  0.00    +0.000 N 
ATOM     11  O   UNL     1       2.262   2.824  16.897  0.00  0.00    +0.000 OA
ATOM     12  O   UNL     1       3.689   2.093  18.381  0.00  0.00    +0.000 OA
ENDBRANCH   5  10
BRANCH   6  13
ATOM     13  O   UNL     1       4.139   5.488  17.587  0.00  0.00    +0.000 OA
BRANCH  13  14
ATOM     14  C   UNL     1       5.408   5.898  17.923  0.00  0.00    +0.000 A 
ATOM     15  C   UNL     1       5.943   6.923  17.138  0.00  0.00    +0.000 A 
ATOM     16  C   UNL     1       7.239   7.390  17.374  0.00  0.00    +0.000 A 
ATOM     17  C   UNL     1       8.010   6.830  18.393  0.00  0.00    +0.000 A 
ATOM     18  C   UNL     1       7.493   5.783  19.158  0.00  0.00    +0.000 A 
ATOM     19  C   UNL     1       6.208   5.309  18.906  0.00  0.00    +0.000 A 
ATOM     20  F   UNL     1       5.778   4.249  19.608  0.00  0.00    +0.000 F 
ENDBRANCH  13  14
ENDBRANCH   6  13
TORSDOF 3
ENDMDL
