MODEL 1
REMARK VINA RESULT:      -9.1      0.000      0.000
REMARK  Name = 
REMARK  6 active torsions:
REMARK  status: ('A' for Active; 'I' for Inactive)
REMARK    1  A    between atoms: C_5  and  C_6
REMARK    2  A    between atoms: C_6  and  O_7
REMARK    3  A    between atoms: C_6  and  C_23
REMARK    4  A    between atoms: O_7  and  C_8
REMARK    5  A    between atoms: N_15  and  C_16
REMARK    6  A    between atoms: C_16  and  C_17
REMARK                            x       y       z     vdW  Elec       q    Type
REMARK                         _______ _______ _______ _____ _____    ______ ____
ROOT
ATOM      1  O   UNL     1       4.637   6.404  18.128  0.00  0.00    +0.000 OA
ENDROOT
BRANCH   1   2
ATOM      2  C   UNL     1       5.378   6.916  17.028  0.00  0.00    +0.000 C 
ATOM      3  C   UNL     1       4.839   6.351  15.724  0.00  0.00    +0.000 C 
ATOM      4  C   UNL     1       5.161   4.859  15.555  0.00  0.00    +0.000 C 
ATOM      5  C   UNL     1       5.115   3.948  16.803  0.00  0.00    +0.000 C 
ATOM      6  C   UNL     1       6.530   4.022  17.418  0.00  0.00    +0.000 C 
ATOM      7  C   UNL     1       7.234   5.106  16.594  0.00  0.00    +0.000 C 
ATOM      8  C   UNL     1       6.889   6.518  17.133  0.00  0.00    +0.000 C 
ATOM      9  N   UNL     1       6.589   4.803  15.336  0.00  0.00    +0.000 NA
BRANCH   9  10
ATOM     10  C   UNL     1       7.109   5.070  14.022  0.00  0.00    +0.000 C 
BRANCH  10  11
ATOM     11  C   UNL     1       6.527   4.059  13.040  0.00  0.00    +0.000 A 
ATOM     12  C   UNL     1       5.136   3.990  12.833  0.00  0.00    +0.000 A 
ATOM     13  C   UNL     1       4.581   3.123  11.897  0.00  0.00    +0.000 A 
ATOM     14  C   UNL     1       5.410   2.272  11.178  0.00  0.00    +0.000 A 
ATOM     15  C   UNL     1       6.788   2.296  11.392  0.00  0.00    +0.000 A 
ATOM     16  C   UNL     1       7.348   3.186  12.317  0.00  0.00    +0.000 A 
ENDBRANCH  10  11
ENDBRANCH   9  10
ENDBRANCH   1   2
BRANCH   1  17
ATOM     17  C   UNL     1       3.203   6.526  18.193  0.00  0.00    +0.000 C 
BRANCH  17  22
ATOM     18  F   UNL     1       0.136  11.119  19.763  0.00  0.00    +0.000 F 
ATOM     19  C   UNL     1       0.881  10.060  19.419  0.00  0.00    +0.000 A 
ATOM     20  C   UNL     1       1.437   9.991  18.148  0.00  0.00    +0.000 A 
ATOM     21  C   UNL     1       2.205   8.865  17.780  0.00  0.00    +0.000 A 
ATOM     22  C   UNL     1       2.424   7.790  18.674  0.00  0.00    +0.000 A 
ATOM     23  C   UNL     1       1.849   7.922  19.960  0.00  0.00    +0.000 A 
ATOM     24  C   UNL     1       1.081   9.037  20.327  0.00  0.00    +0.000 A 
ENDBRANCH  17  22
BRANCH  17  25
ATOM     25  C   UNL     1       2.615   5.203  18.674  0.00  0.00    +0.000 A 
ATOM     26  C   UNL     1       3.153   4.597  19.823  0.00  0.00    +0.000 A 
ATOM     27  C   UNL     1       2.837   3.275  20.128  0.00  0.00    +0.000 A 
ATOM     28  C   UNL     1       1.979   2.567  19.294  0.00  0.00    +0.000 A 
ATOM     29  F   UNL     1       1.784   1.262  19.511  0.00  0.00    +0.000 F 
ATOM     30  C   UNL     1       1.338   3.193  18.237  0.00  0.00    +0.000 A 
ATOM     31  C   UNL     1       1.619   4.523  17.955  0.00  0.00    +0.000 A 
ENDBRANCH  17  25
ENDBRANCH   1  17
TORSDOF 6
ENDMDL
MODEL 2
REMARK VINA RESULT:      -9.0      0.103      1.226
REMARK  Name = 
REMARK  6 active torsions:
REMARK  status: ('A' for Active; 'I' for Inactive)
REMARK    1  A    between atoms: C_5  and  C_6
REMARK    2  A    between atoms: C_6  and  O_7
REMARK    3  A    between atoms: C_6  and  C_23
REMARK    4  A    between atoms: O_7  and  C_8
REMARK    5  A    between atoms: N_15  and  C_16
REMARK    6  A    between atoms: C_16  and  C_17
REMARK                            x       y       z     vdW  Elec       q    Type
REMARK                         _______ _______ _______ _____ _____    ______ ____
ROOT
ATOM      1  O   UNL     1       4.629   6.481  18.130  0.00  0.00    +0.000 OA
ENDROOT
BRANCH   1   2
ATOM      2  C   UNL     1       5.394   6.986  17.043  0.00  0.00    +0.000 C 
ATOM      3  C   UNL     1       4.875   6.423  15.730  0.00  0.00    +0.000 C 
ATOM      4  C   UNL     1       5.188   4.928  15.569  0.00  0.00    +0.000 C 
ATOM      5  C   UNL     1       5.112   4.019  16.818  0.00  0.00    +0.000 C 
ATOM      6  C   UNL     1       6.515   4.083  17.458  0.00  0.00    +0.000 C 
ATOM      7  C   UNL     1       7.243   5.160  16.646  0.00  0.00    +0.000 C 
ATOM      8  C   UNL     1       6.900   6.576  17.177  0.00  0.00    +0.000 C 
ATOM      9  N   UNL     1       6.620   4.861  15.377  0.00  0.00    +0.000 NA
BRANCH   9  10
ATOM     10  C   UNL     1       7.166   5.121  14.072  0.00  0.00    +0.000 C 
BRANCH  10  11
ATOM     11  C   UNL     1       6.556   4.146  13.072  0.00  0.00    +0.000 A 
ATOM     12  C   UNL     1       7.386   3.334  12.274  0.00  0.00    +0.000 A 
ATOM     13  C   UNL     1       6.858   2.390  11.400  0.00  0.00    +0.000 A 
ATOM     14  C   UNL     1       5.481   2.269  11.275  0.00  0.00    +0.000 A 
ATOM     15  C   UNL     1       4.638   3.087  12.027  0.00  0.00    +0.000 A 
ATOM     16  C   UNL     1       5.169   4.020  12.926  0.00  0.00    +0.000 A 
ENDBRANCH  10  11
ENDBRANCH   9  10
ENDBRANCH   1   2
BRANCH   1  17
ATOM     17  C   UNL     1       3.191   6.565  18.142  0.00  0.00    +0.000 C 
BRANCH  17  22
ATOM     18  F   UNL     1       0.344  11.227  19.911  0.00  0.00    +0.000 F 
ATOM     19  C   UNL     1       0.977  10.128  19.477  0.00  0.00    +0.000 A 
ATOM     20  C   UNL     1       1.156   9.050  20.335  0.00  0.00    +0.000 A 
ATOM     21  C   UNL     1       1.841   7.902  19.882  0.00  0.00    +0.000 A 
ATOM     22  C   UNL     1       2.362   7.817  18.569  0.00  0.00    +0.000 A 
ATOM     23  C   UNL     1       2.135   8.936  17.735  0.00  0.00    +0.000 A 
ATOM     24  C   UNL     1       1.459  10.081  18.182  0.00  0.00    +0.000 A 
ENDBRANCH  17  22
BRANCH  17  25
ATOM     25  C   UNL     1       2.621   5.237  18.630  0.00  0.00    +0.000 A 
ATOM     26  C   UNL     1       3.179   4.636  19.773  0.00  0.00    +0.000 A 
ATOM     27  C   UNL     1       2.879   3.311  20.081  0.00  0.00    +0.000 A 
ATOM     28  C   UNL     1       2.019   2.595  19.258  0.00  0.00    +0.000 A 
ATOM     29  F   UNL     1       1.838   1.288  19.477  0.00  0.00    +0.000 F 
ATOM     30  C   UNL     1       1.359   3.214  18.208  0.00  0.00    +0.000 A 
ATOM     31  C   UNL     1       1.624   4.547  17.923  0.00  0.00    +0.000 A 
ENDBRANCH  17  25
ENDBRANCH   1  17
TORSDOF 6
ENDMDL
MODEL 3
REMARK VINA RESULT:      -9.0      0.577      1.354
REMARK  Name = 
REMARK  6 active torsions:
REMARK  status: ('A' for Active; 'I' for Inactive)
REMARK    1  A    between atoms: C_5  and  C_6
REMARK    2  A    between atoms: C_6  and  O_7
REMARK    3  A    between atoms: C_6  and  C_23
REMARK    4  A    between atoms: O_7  and  C_8
REMARK    5  A    between atoms: N_15  and  C_16
REMARK    6  A    between atoms: C_16  and  C_17
REMARK                            x       y       z     vdW  Elec       q    Type
REMARK                         _______ _______ _______ _____ _____    ______ ____
ROOT
ATOM      1  O   UNL     1       4.715   6.341  18.181  0.00  0.00    +0.000 OA
ENDROOT
BRANCH   1   2
ATOM      2  C   UNL     1       5.383   6.897  17.055  0.00  0.00    +0.000 C 
ATOM      3  C   UNL     1       4.826   6.307  15.770  0.00  0.00    +0.000 C 
ATOM      4  C   UNL     1       5.224   4.836  15.581  0.00  0.00    +0.000 C 
ATOM      5  C   UNL     1       5.279   3.920  16.825  0.00  0.00    +0.000 C 
ATOM      6  C   UNL     1       6.710   4.072  17.384  0.00  0.00    +0.000 C 
ATOM      7  C   UNL     1       7.319   5.196  16.540  0.00  0.00    +0.000 C 
ATOM      8  C   UNL     1       6.917   6.585  17.099  0.00  0.00    +0.000 C 
ATOM      9  N   UNL     1       6.644   4.862  15.306  0.00  0.00    +0.000 NA
BRANCH   9  10
ATOM     10  C   UNL     1       7.096   5.161  13.974  0.00  0.00    +0.000 C 
BRANCH  10  11
ATOM     11  C   UNL     1       6.499   4.147  13.004  0.00  0.00    +0.000 A 
ATOM     12  C   UNL     1       7.337   3.264  12.295  0.00  0.00    +0.000 A 
ATOM     13  C   UNL     1       6.817   2.286  11.454  0.00  0.00    +0.000 A 
ATOM     14  C   UNL     1       5.444   2.200  11.271  0.00  0.00    +0.000 A 
ATOM     15  C   UNL     1       4.595   3.088  11.934  0.00  0.00    +0.000 A 
ATOM     16  C   UNL     1       5.117   4.056  12.800  0.00  0.00    +0.000 A 
ENDBRANCH  10  11
ENDBRANCH   9  10
ENDBRANCH   1   2
BRANCH   1  17
ATOM     17  C   UNL     1       3.283   6.411  18.319  0.00  0.00    +0.000 C 
BRANCH  17  22
ATOM     18  F   UNL     1       0.103  11.065  19.415  0.00  0.00    +0.000 F 
ATOM     19  C   UNL     1       0.874   9.994  19.181  0.00  0.00    +0.000 A 
ATOM     20  C   UNL     1       1.463   9.827  17.934  0.00  0.00    +0.000 A 
ATOM     21  C   UNL     1       2.258   8.688  17.683  0.00  0.00    +0.000 A 
ATOM     22  C   UNL     1       2.472   7.698  18.671  0.00  0.00    +0.000 A 
ATOM     23  C   UNL     1       1.863   7.929  19.926  0.00  0.00    +0.000 A 
ATOM     24  C   UNL     1       1.068   9.057  20.178  0.00  0.00    +0.000 A 
ENDBRANCH  17  22
BRANCH  17  25
ATOM     25  C   UNL     1       2.789   5.146  19.013  0.00  0.00    +0.000 A 
ATOM     26  C   UNL     1       1.711   4.439  18.452  0.00  0.00    +0.000 A 
ATOM     27  C   UNL     1       1.061   3.454  19.192  0.00  0.00    +0.000 A 
ATOM     28  C   UNL     1       1.494   3.171  20.482  0.00  0.00    +0.000 A 
ATOM     29  F   UNL     1       0.788   2.324  21.239  0.00  0.00    +0.000 F 
ATOM     30  C   UNL     1       2.637   3.764  20.995  0.00  0.00    +0.000 A 
ATOM     31  C   UNL     1       3.311   4.717  20.243  0.00  0.00    +0.000 A 
ENDBRANCH  17  25
ENDBRANCH   1  17
TORSDOF 6
ENDMDL
MODEL 4
REMARK VINA RESULT:      -8.9      1.209      2.044
REMARK  Name = 
REMARK  6 active torsions:
REMARK  status: ('A' for Active; 'I' for Inactive)
REMARK    1  A    between atoms: C_5  and  C_6
REMARK    2  A    between atoms: C_6  and  O_7
REMARK    3  A    between atoms: C_6  and  C_23
REMARK    4  A    between atoms: O_7  and  C_8
REMARK    5  A    between atoms: N_15  and  C_16
REMARK    6  A    between atoms: C_16  and  C_17
REMARK                            x       y       z     vdW  Elec       q    Type
REMARK                         _______ _______ _______ _____ _____    ______ ____
ROOT
ATOM      1  O   UNL     1       4.320   5.974  19.089  0.00  0.00    +0.000 OA
ENDROOT
BRANCH   1   2
ATOM      2  C   UNL     1       4.925   4.864  18.439  0.00  0.00    +0.000 C 
ATOM      3  C   UNL     1       6.435   5.033  18.406  0.00  0.00    +0.000 C 
ATOM      4  C   UNL     1       6.879   6.145  17.443  0.00  0.00    +0.000 C 
ATOM      5  C   UNL     1       6.012   7.421  17.340  0.00  0.00    +0.000 C 
ATOM      6  C   UNL     1       4.960   7.115  16.251  0.00  0.00    +0.000 C 
ATOM      7  C   UNL     1       5.175   5.631  15.937  0.00  0.00    +0.000 C 
ATOM      8  C   UNL     1       4.426   4.737  16.959  0.00  0.00    +0.000 C 
ATOM      9  N   UNL     1       6.609   5.629  16.121  0.00  0.00    +0.000 NA
BRANCH   9  10
ATOM     10  C   UNL     1       7.548   4.722  15.515  0.00  0.00    +0.000 C 
BRANCH  10  11
ATOM     11  C   UNL     1       7.132   4.462  14.072  0.00  0.00    +0.000 A 
ATOM     12  C   UNL     1       7.773   5.138  13.015  0.00  0.00    +0.000 A 
ATOM     13  C   UNL     1       7.460   4.874  11.686  0.00  0.00    +0.000 A 
ATOM     14  C   UNL     1       6.463   3.955  11.388  0.00  0.00    +0.000 A 
ATOM     15  C   UNL     1       5.788   3.300  12.419  0.00  0.00    +0.000 A 
ATOM     16  C   UNL     1       6.120   3.548  13.756  0.00  0.00    +0.000 A 
ENDBRANCH  10  11
ENDBRANCH   9  10
ENDBRANCH   1   2
BRANCH   1  17
ATOM     17  C   UNL     1       2.894   6.179  19.060  0.00  0.00    +0.000 C 
BRANCH  17  22
ATOM     18  F   UNL     1       0.059  11.171  19.161  0.00  0.00    +0.000 F 
ATOM     19  C   UNL     1       0.751  10.024  19.155  0.00  0.00    +0.000 A 
ATOM     20  C   UNL     1       1.314   9.562  17.972  0.00  0.00    +0.000 A 
ATOM     21  C   UNL     1       2.024   8.342  17.965  0.00  0.00    +0.000 A 
ATOM     22  C   UNL     1       2.178   7.564  19.137  0.00  0.00    +0.000 A 
ATOM     23  C   UNL     1       1.600   8.091  20.314  0.00  0.00    +0.000 A 
ATOM     24  C   UNL     1       0.889   9.300  20.325  0.00  0.00    +0.000 A 
ENDBRANCH  17  22
BRANCH  17  25
ATOM     25  C   UNL     1       2.219   5.076  19.869  0.00  0.00    +0.000 A 
ATOM     26  C   UNL     1       2.576   4.906  21.219  0.00  0.00    +0.000 A 
ATOM     27  C   UNL     1       2.195   3.753  21.902  0.00  0.00    +0.000 A 
ATOM     28  C   UNL     1       1.452   2.782  21.242  0.00  0.00    +0.000 A 
ATOM     29  F   UNL     1       1.204   1.619  21.855  0.00  0.00    +0.000 F 
ATOM     30  C   UNL     1       0.980   2.998  19.957  0.00  0.00    +0.000 A 
ATOM     31  C   UNL     1       1.323   4.165  19.288  0.00  0.00    +0.000 A 
ENDBRANCH  17  25
ENDBRANCH   1  17
TORSDOF 6
ENDMDL
MODEL 5
REMARK VINA RESULT:      -8.7      1.204      2.137
REMARK  Name = 
REMARK  6 active torsions:
REMARK  status: ('A' for Active; 'I' for Inactive)
REMARK    1  A    between atoms: C_5  and  C_6
REMARK    2  A    between atoms: C_6  and  O_7
REMARK    3  A    between atoms: C_6  and  C_23
REMARK    4  A    between atoms: O_7  and  C_8
REMARK    5  A    between atoms: N_15  and  C_16
REMARK    6  A    between atoms: C_16  and  C_17
REMARK                            x       y       z     vdW  Elec       q    Type
REMARK                         _______ _______ _______ _____ _____    ______ ____
ROOT
ATOM      1  O   UNL     1       4.293   6.095  19.094  0.00  0.00    +0.000 OA
ENDROOT
BRANCH   1   2
ATOM      2  C   UNL     1       4.940   4.974  18.507  0.00  0.00    +0.000 C 
ATOM      3  C   UNL     1       6.441   5.205  18.449  0.00  0.00    +0.000 C 
ATOM      4  C   UNL     1       6.829   6.274  17.416  0.00  0.00    +0.000 C 
ATOM      5  C   UNL     1       5.908   7.503  17.244  0.00  0.00    +0.000 C 
ATOM      6  C   UNL     1       4.862   7.087  16.187  0.00  0.00    +0.000 C 
ATOM      7  C   UNL     1       5.138   5.597  15.961  0.00  0.00    +0.000 C 
ATOM      8  C   UNL     1       4.436   4.737  17.043  0.00  0.00    +0.000 C 
ATOM      9  N   UNL     1       6.572   5.666  16.129  0.00  0.00    +0.000 NA
BRANCH   9  10
ATOM     10  C   UNL     1       7.544   4.765  15.571  0.00  0.00    +0.000 C 
BRANCH  10  11
ATOM     11  C   UNL     1       7.192   4.491  14.113  0.00  0.00    +0.000 A 
ATOM     12  C   UNL     1       6.207   3.538  13.788  0.00  0.00    +0.000 A 
ATOM     13  C   UNL     1       5.819   3.313  12.472  0.00  0.00    +0.000 A 
ATOM     14  C   UNL     1       6.442   4.010  11.446  0.00  0.00    +0.000 A 
ATOM     15  C   UNL     1       7.447   4.933  11.740  0.00  0.00    +0.000 A 
ATOM     16  C   UNL     1       7.821   5.177  13.068  0.00  0.00    +0.000 A 
ENDBRANCH  10  11
ENDBRANCH   9  10
ENDBRANCH   1   2
BRANCH   1  17
ATOM     17  C   UNL     1       2.862   6.257  19.034  0.00  0.00    +0.000 C 
BRANCH  17  22
ATOM     18  F   UNL     1       0.277  11.372  19.381  0.00  0.00    +0.000 F 
ATOM     19  C   UNL     1       0.849  10.164  19.282  0.00  0.00    +0.000 A 
ATOM     20  C   UNL     1       0.941   9.349  20.402  0.00  0.00    +0.000 A 
ATOM     21  C   UNL     1       1.562   8.086  20.300  0.00  0.00    +0.000 A 
ATOM     22  C   UNL     1       2.105   7.621  19.078  0.00  0.00    +0.000 A 
ATOM     23  C   UNL     1       1.967   8.485  17.967  0.00  0.00    +0.000 A 
ATOM     24  C   UNL     1       1.355   9.743  18.066  0.00  0.00    +0.000 A 
ENDBRANCH  17  22
BRANCH  17  25
ATOM     25  C   UNL     1       2.204   5.145  19.843  0.00  0.00    +0.000 A 
ATOM     26  C   UNL     1       2.569   4.975  21.191  0.00  0.00    +0.000 A 
ATOM     27  C   UNL     1       2.204   3.816  21.872  0.00  0.00    +0.000 A 
ATOM     28  C   UNL     1       1.469   2.838  21.213  0.00  0.00    +0.000 A 
ATOM     29  F   UNL     1       1.237   1.670  21.823  0.00  0.00    +0.000 F 
ATOM     30  C   UNL     1       0.989   3.052  19.931  0.00  0.00    +0.000 A 
ATOM     31  C   UNL     1       1.316   4.224  19.263  0.00  0.00    +0.000 A 
ENDBRANCH  17  25
ENDBRANCH   1  17
TORSDOF 6
ENDMDL
MODEL 6
REMARK VINA RESULT:      -8.7      1.291      4.433
REMARK  Name = 
REMARK  6 active torsions:
REMARK  status: ('A' for Active; 'I' for Inactive)
REMARK    1  A    between atoms: C_5  and  C_6
REMARK    2  A    between atoms: C_6  and  O_7
REMARK    3  A    between atoms: C_6  and  C_23
REMARK    4  A    between atoms: O_7  and  C_8
REMARK    5  A    between atoms: N_15  and  C_16
REMARK    6  A    between atoms: C_16  and  C_17
REMARK                            x       y       z     vdW  Elec       q    Type
REMARK                         _______ _______ _______ _____ _____    ______ ____
ROOT
ATOM      1  O   UNL     1       3.241   6.570  17.862  0.00  0.00    +0.000 OA
ENDROOT
BRANCH   1   2
ATOM      2  C   UNL     1       4.596   6.856  17.536  0.00  0.00    +0.000 C 
ATOM      3  C   UNL     1       4.869   6.510  16.081  0.00  0.00    +0.000 C 
ATOM      4  C   UNL     1       4.878   4.995  15.832  0.00  0.00    +0.000 C 
ATOM      5  C   UNL     1       3.865   4.114  16.598  0.00  0.00    +0.000 C 
ATOM      6  C   UNL     1       4.566   3.741  17.922  0.00  0.00    +0.000 C 
ATOM      7  C   UNL     1       5.850   4.577  17.909  0.00  0.00    +0.000 C 
ATOM      8  C   UNL     1       5.577   6.015  18.420  0.00  0.00    +0.000 C 
ATOM      9  N   UNL     1       6.075   4.512  16.483  0.00  0.00    +0.000 NA
BRANCH   9  10
ATOM     10  C   UNL     1       7.340   4.635  15.809  0.00  0.00    +0.000 C 
BRANCH  10  11
ATOM     11  C   UNL     1       7.125   4.471  14.309  0.00  0.00    +0.000 A 
ATOM     12  C   UNL     1       7.824   5.287  13.397  0.00  0.00    +0.000 A 
ATOM     13  C   UNL     1       7.696   5.117  12.023  0.00  0.00    +0.000 A 
ATOM     14  C   UNL     1       6.829   4.151  11.530  0.00  0.00    +0.000 A 
ATOM     15  C   UNL     1       6.098   3.355  12.413  0.00  0.00    +0.000 A 
ATOM     16  C   UNL     1       6.245   3.510  13.797  0.00  0.00    +0.000 A 
ENDBRANCH  10  11
ENDBRANCH   9  10
ENDBRANCH   1   2
BRANCH   1  17
ATOM     17  C   UNL     1       2.784   6.548  19.228  0.00  0.00    +0.000 C 
BRANCH  17  22
ATOM     18  F   UNL     1       0.959   1.747  21.795  0.00  0.00    +0.000 F 
ATOM     19  C   UNL     1       1.363   2.888  21.221  0.00  0.00    +0.000 A 
ATOM     20  C   UNL     1       0.838   3.268  19.993  0.00  0.00    +0.000 A 
ATOM     21  C   UNL     1       1.281   4.460  19.381  0.00  0.00    +0.000 A 
ATOM     22  C   UNL     1       2.259   5.287  19.984  0.00  0.00    +0.000 A 
ATOM     23  C   UNL     1       2.745   4.860  21.242  0.00  0.00    +0.000 A 
ATOM     24  C   UNL     1       2.311   3.674  21.851  0.00  0.00    +0.000 A 
ENDBRANCH  17  22
BRANCH  17  25
ATOM     25  C   UNL     1       1.995   7.823  19.507  0.00  0.00    +0.000 A 
ATOM     26  C   UNL     1       1.426   8.006  20.780  0.00  0.00    +0.000 A 
ATOM     27  C   UNL     1       0.480   9.008  20.984  0.00  0.00    +0.000 A 
ATOM     28  C   UNL     1       0.114   9.829  19.924  0.00  0.00    +0.000 A 
ATOM     29  F   UNL     1      -0.889  10.699  20.084  0.00  0.00    +0.000 F 
ATOM     30  C   UNL     1       0.765   9.747  18.702  0.00  0.00    +0.000 A 
ATOM     31  C   UNL     1       1.738   8.776  18.508  0.00  0.00    +0.000 A 
ENDBRANCH  17  25
ENDBRANCH   1  17
TORSDOF 6
ENDMDL
MODEL 7
REMARK VINA RESULT:      -8.6      1.269      2.394
REMARK  Name = 
REMARK  6 active torsions:
REMARK  status: ('A' for Active; 'I' for Inactive)
REMARK    1  A    between atoms: C_5  and  C_6
REMARK    2  A    between atoms: C_6  and  O_7
REMARK    3  A    between atoms: C_6  and  C_23
REMARK    4  A    between atoms: O_7  and  C_8
REMARK    5  A    between atoms: N_15  and  C_16
REMARK    6  A    between atoms: C_16  and  C_17
REMARK                            x       y       z     vdW  Elec       q    Type
REMARK                         _______ _______ _______ _____ _____    ______ ____
ROOT
ATOM      1  O   UNL     1       4.592   5.752  19.040  0.00  0.00    +0.000 OA
ENDROOT
BRANCH   1   2
ATOM      2  C   UNL     1       5.279   4.727  18.333  0.00  0.00    +0.000 C 
ATOM      3  C   UNL     1       6.755   5.070  18.214  0.00  0.00    +0.000 C 
ATOM      4  C   UNL     1       7.009   6.238  17.249  0.00  0.00    +0.000 C 
ATOM      5  C   UNL     1       5.998   7.407  17.224  0.00  0.00    +0.000 C 
ATOM      6  C   UNL     1       4.923   6.997  16.194  0.00  0.00    +0.000 C 
ATOM      7  C   UNL     1       5.285   5.552  15.837  0.00  0.00    +0.000 C 
ATOM      8  C   UNL     1       4.708   4.564  16.883  0.00  0.00    +0.000 C 
ATOM      9  N   UNL     1       6.718   5.711  15.935  0.00  0.00    +0.000 NA
BRANCH   9  10
ATOM     10  C   UNL     1       7.716   4.927  15.256  0.00  0.00    +0.000 C 
BRANCH  10  11
ATOM     11  C   UNL     1       7.198   4.549  13.873  0.00  0.00    +0.000 A 
ATOM     12  C   UNL     1       7.752   5.140  12.721  0.00  0.00    +0.000 A 
ATOM     13  C   UNL     1       7.345   4.767  11.445  0.00  0.00    +0.000 A 
ATOM     14  C   UNL     1       6.339   3.822  11.296  0.00  0.00    +0.000 A 
ATOM     15  C   UNL     1       5.749   3.248  12.423  0.00  0.00    +0.000 A 
ATOM     16  C   UNL     1       6.176   3.606  13.708  0.00  0.00    +0.000 A 
ENDBRANCH  10  11
ENDBRANCH   9  10
ENDBRANCH   1   2
BRANCH   1  17
ATOM     17  C   UNL     1       3.154   5.839  19.033  0.00  0.00    +0.000 C 
BRANCH  17  22
ATOM     18  F   UNL     1       0.318  10.783  19.725  0.00  0.00    +0.000 F 
ATOM     19  C   UNL     1       0.948   9.615  19.545  0.00  0.00    +0.000 A 
ATOM     20  C   UNL     1       1.120   8.750  20.619  0.00  0.00    +0.000 A 
ATOM     21  C   UNL     1       1.803   7.529  20.432  0.00  0.00    +0.000 A 
ATOM     22  C   UNL     1       2.328   7.156  19.171  0.00  0.00    +0.000 A 
ATOM     23  C   UNL     1       2.108   8.066  18.111  0.00  0.00    +0.000 A 
ATOM     24  C   UNL     1       1.435   9.283  18.295  0.00  0.00    +0.000 A 
ENDBRANCH  17  22
BRANCH  17  25
ATOM     25  C   UNL     1       2.582   4.654  19.804  0.00  0.00    +0.000 A 
ATOM     26  C   UNL     1       1.333   4.132  19.421  0.00  0.00    +0.000 A 
ATOM     27  C   UNL     1       0.660   3.247  20.261  0.00  0.00    +0.000 A 
ATOM     28  C   UNL     1       1.237   2.878  21.469  0.00  0.00    +0.000 A 
ATOM     29  F   UNL     1       0.533   2.138  22.333  0.00  0.00    +0.000 F 
ATOM     30  C   UNL     1       2.524   3.278  21.796  0.00  0.00    +0.000 A 
ATOM     31  C   UNL     1       3.214   4.127  20.942  0.00  0.00    +0.000 A 
ENDBRANCH  17  25
ENDBRANCH   1  17
TORSDOF 6
ENDMDL
MODEL 8
REMARK VINA RESULT:      -8.5      1.265      2.139
REMARK  Name = 
REMARK  6 active torsions:
REMARK  status: ('A' for Active; 'I' for Inactive)
REMARK    1  A    between atoms: C_5  and  C_6
REMARK    2  A    between atoms: C_6  and  O_7
REMARK    3  A    between atoms: C_6  and  C_23
REMARK    4  A    between atoms: O_7  and  C_8
REMARK    5  A    between atoms: N_15  and  C_16
REMARK    6  A    between atoms: C_16  and  C_17
REMARK                            x       y       z     vdW  Elec       q    Type
REMARK                         _______ _______ _______ _____ _____    ______ ____
ROOT
ATOM      1  O   UNL     1       4.640   5.794  19.039  0.00  0.00    +0.000 OA
ENDROOT
BRANCH   1   2
ATOM      2  C   UNL     1       5.294   4.752  18.327  0.00  0.00    +0.000 C 
ATOM      3  C   UNL     1       6.782   5.043  18.219  0.00  0.00    +0.000 C 
ATOM      4  C   UNL     1       7.082   6.209  17.265  0.00  0.00    +0.000 C 
ATOM      5  C   UNL     1       6.114   7.414  17.244  0.00  0.00    +0.000 C 
ATOM      6  C   UNL     1       5.031   7.051  16.205  0.00  0.00    +0.000 C 
ATOM      7  C   UNL     1       5.344   5.596  15.838  0.00  0.00    +0.000 C 
ATOM      8  C   UNL     1       4.726   4.621  16.873  0.00  0.00    +0.000 C 
ATOM      9  N   UNL     1       6.781   5.704  15.945  0.00  0.00    +0.000 NA
BRANCH   9  10
ATOM     10  C   UNL     1       7.754   4.891  15.265  0.00  0.00    +0.000 C 
BRANCH  10  11
ATOM     11  C   UNL     1       7.220   4.520  13.887  0.00  0.00    +0.000 A 
ATOM     12  C   UNL     1       6.155   3.606  13.760  0.00  0.00    +0.000 A 
ATOM     13  C   UNL     1       5.604   3.297  12.522  0.00  0.00    +0.000 A 
ATOM     14  C   UNL     1       6.139   3.867  11.374  0.00  0.00    +0.000 A 
ATOM     15  C   UNL     1       7.217   4.748  11.470  0.00  0.00    +0.000 A 
ATOM     16  C   UNL     1       7.756   5.077  12.720  0.00  0.00    +0.000 A 
ENDBRANCH  10  11
ENDBRANCH   9  10
ENDBRANCH   1   2
BRANCH   1  17
ATOM     17  C   UNL     1       3.204   5.913  19.052  0.00  0.00    +0.000 C 
BRANCH  17  22
ATOM     18  F   UNL     1       0.078  10.702  19.564  0.00  0.00    +0.000 F 
ATOM     19  C   UNL     1       0.837   9.603  19.463  0.00  0.00    +0.000 A 
ATOM     20  C   UNL     1       1.396   9.259  18.239  0.00  0.00    +0.000 A 
ATOM     21  C   UNL     1       2.178   8.089  18.130  0.00  0.00    +0.000 A 
ATOM     22  C   UNL     1       2.409   7.243  19.241  0.00  0.00    +0.000 A 
ATOM     23  C   UNL     1       1.831   7.651  20.465  0.00  0.00    +0.000 A 
ATOM     24  C   UNL     1       1.048   8.810  20.576  0.00  0.00    +0.000 A 
ENDBRANCH  17  22
BRANCH  17  25
ATOM     25  C   UNL     1       2.615   4.717  19.792  0.00  0.00    +0.000 A 
ATOM     26  C   UNL     1       1.361   4.219  19.393  0.00  0.00    +0.000 A 
ATOM     27  C   UNL     1       0.674   3.323  20.208  0.00  0.00    +0.000 A 
ATOM     28  C   UNL     1       1.242   2.918  21.410  0.00  0.00    +0.000 A 
ATOM     29  F   UNL     1       0.526   2.167  22.253  0.00  0.00    +0.000 F 
ATOM     30  C   UNL     1       2.532   3.295  21.750  0.00  0.00    +0.000 A 
ATOM     31  C   UNL     1       3.236   4.156  20.919  0.00  0.00    +0.000 A 
ENDBRANCH  17  25
ENDBRANCH   1  17
TORSDOF 6
ENDMDL
MODEL 9
REMARK VINA RESULT:      -8.5      1.361      4.628
REMARK  Name = 
REMARK  6 active torsions:
REMARK  status: ('A' for Active; 'I' for Inactive)
REMARK    1  A    between atoms: C_5  and  C_6
REMARK    2  A    between atoms: C_6  and  O_7
REMARK    3  A    between atoms: C_6  and  C_23
REMARK    4  A    between atoms: O_7  and  C_8
REMARK    5  A    between atoms: N_15  and  C_16
REMARK    6  A    between atoms: C_16  and  C_17
REMARK                            x       y       z     vdW  Elec       q    Type
REMARK                         _______ _______ _______ _____ _____    ______ ____
ROOT
ATOM      1  O   UNL     1       3.243   6.577  17.990  0.00  0.00    +0.000 OA
ENDROOT
BRANCH   1   2
ATOM      2  C   UNL     1       4.619   6.813  17.721  0.00  0.00    +0.000 C 
ATOM      3  C   UNL     1       4.919   6.558  16.253  0.00  0.00    +0.000 C 
ATOM      4  C   UNL     1       4.859   5.065  15.895  0.00  0.00    +0.000 C 
ATOM      5  C   UNL     1       3.779   4.187  16.569  0.00  0.00    +0.000 C 
ATOM      6  C   UNL     1       4.420   3.684  17.881  0.00  0.00    +0.000 C 
ATOM      7  C   UNL     1       5.745   4.450  17.962  0.00  0.00    +0.000 C 
ATOM      8  C   UNL     1       5.530   5.861  18.568  0.00  0.00    +0.000 C 
ATOM      9  N   UNL     1       6.009   4.475  16.541  0.00  0.00    +0.000 NA
BRANCH   9  10
ATOM     10  C   UNL     1       7.299   4.579  15.912  0.00  0.00    +0.000 C 
BRANCH  10  11
ATOM     11  C   UNL     1       7.126   4.478  14.401  0.00  0.00    +0.000 A 
ATOM     12  C   UNL     1       7.827   5.351  13.545  0.00  0.00    +0.000 A 
ATOM     13  C   UNL     1       7.739   5.240  12.162  0.00  0.00    +0.000 A 
ATOM     14  C   UNL     1       6.911   4.276  11.604  0.00  0.00    +0.000 A 
ATOM     15  C   UNL     1       6.178   3.423  12.431  0.00  0.00    +0.000 A 
ATOM     16  C   UNL     1       6.285   3.519  13.824  0.00  0.00    +0.000 A 
ENDBRANCH  10  11
ENDBRANCH   9  10
ENDBRANCH   1   2
BRANCH   1  17
ATOM     17  C   UNL     1       2.744   6.479  19.338  0.00  0.00    +0.000 C 
BRANCH  17  22
ATOM     18  F   UNL     1       0.919   1.802  22.124  0.00  0.00    +0.000 F 
ATOM     19  C   UNL     1       1.359   2.870  21.446  0.00  0.00    +0.000 A 
ATOM     20  C   UNL     1       2.491   3.547  21.880  0.00  0.00    +0.000 A 
ATOM     21  C   UNL     1       2.941   4.684  21.176  0.00  0.00    +0.000 A 
ATOM     22  C   UNL     1       2.263   5.166  20.030  0.00  0.00    +0.000 A 
ATOM     23  C   UNL     1       1.127   4.428  19.623  0.00  0.00    +0.000 A 
ATOM     24  C   UNL     1       0.674   3.300  20.324  0.00  0.00    +0.000 A 
ENDBRANCH  17  22
BRANCH  17  25
ATOM     25  C   UNL     1       1.881   7.701  19.637  0.00  0.00    +0.000 A 
ATOM     26  C   UNL     1       1.685   8.659  18.626  0.00  0.00    +0.000 A 
ATOM     27  C   UNL     1       1.145   9.904  18.941  0.00  0.00    +0.000 A 
ATOM     28  C   UNL     1       0.793  10.184  20.255  0.00  0.00    +0.000 A 
ATOM     29  F   UNL     1       0.402  11.422  20.579  0.00  0.00    +0.000 F 
ATOM     30  C   UNL     1       0.856   9.204  21.234  0.00  0.00    +0.000 A 
ATOM     31  C   UNL     1       1.355   7.949  20.915  0.00  0.00    +0.000 A 
ENDBRANCH  17  25
ENDBRANCH   1  17
TORSDOF 6
ENDMDL
