MODEL 1
REMARK VINA RESULT:      -7.3      0.000      0.000
REMARK  Name = 
REMARK  16 active torsions:
REMARK  status: ('A' for Active; 'I' for Inactive)
REMARK    1  A    between atoms: C_1  and  O_2
REMARK    2  A    between atoms: O_2  and  C_3
REMARK    3  A    between atoms: C_8  and  C_9
REMARK    4  A    between atoms: C_9  and  O_11
REMARK    5  A    between atoms: O_11  and  C_12
REMARK    6  A    between atoms: C_12  and  C_13
REMARK    7  A    between atoms: C_13  and  C_14
REMARK    8  A    between atoms: C_14  and  O_15
REMARK    9  A    between atoms: C_18  and  C_19
REMARK   10  A    between atoms: C_19  and  C_20
REMARK   11  A    between atoms: C_20  and  C_21
REMARK   12  A    between atoms: C_20  and  C_24
REMARK   13  A    between atoms: C_21  and  C_22
REMARK   14  A    between atoms: C_21  and  C_23
REMARK   15  A    between atoms: C_24  and  C_25
REMARK   16  A    between atoms: C_24  and  C_26
REMARK                            x       y       z     vdW  Elec       q    Type
REMARK                         _______ _______ _______ _____ _____    ______ ____
ROOT
ATOM      1  C   UNL     1       2.844   6.560  18.772  0.00  0.00    +0.000 C 
ATOM      2  C   UNL     1       2.646   7.805  17.903  0.00  0.00    +0.000 C 
ATOM      3  C   UNL     1       1.671   8.606  18.689  0.00  0.00    +0.000 C 
ATOM      4  C   UNL     1       0.957   9.655  18.243  0.00  0.00    +0.000 C 
ATOM      5  C   UNL     1       1.635   8.054  20.061  0.00  0.00    +0.000 C 
ATOM      6  O   UNL     1       1.063   8.515  21.032  0.00  0.00    +0.000 OA
ATOM      7  O   UNL     1       2.413   6.942  20.095  0.00  0.00    +0.000 OA
ENDROOT
BRANCH   1   8
ATOM      8  C   UNL     1       4.329   6.163  18.847  0.00  0.00    +0.000 C 
BRANCH   8   9
ATOM      9  O   UNL     1       4.493   4.923  19.569  0.00  0.00    +0.000 OA
BRANCH   9  10
ATOM     10  C   UNL     1       4.835   3.831  18.850  0.00  0.00    +0.000 C 
ATOM     11  O   UNL     1       4.548   2.680  19.151  0.00  0.00    +0.000 OA
BRANCH  10  17
ATOM     12  C   UNL     1       6.916   4.525  17.503  0.00  0.00    +0.000 A 
ATOM     13  C   UNL     1       7.496   4.700  16.233  0.00  0.00    +0.000 A 
ATOM     14  C   UNL     1       6.734   4.578  15.070  0.00  0.00    +0.000 A 
ATOM     15  C   UNL     1       5.386   4.267  15.157  0.00  0.00    +0.000 A 
ATOM     16  C   UNL     1       4.806   4.052  16.409  0.00  0.00    +0.000 A 
ATOM     17  C   UNL     1       5.559   4.167  17.590  0.00  0.00    +0.000 A 
BRANCH  12  19
ATOM     18  C   UNL     1       7.989   5.964  19.038  0.00  0.00    +0.000 C 
ATOM     19  O   UNL     1       7.663   4.625  18.648  0.00  0.00    +0.000 OA
ENDBRANCH  12  19
ENDBRANCH  10  17
ENDBRANCH   9  10
ENDBRANCH   8   9
ENDBRANCH   1   8
BRANCH   1  20
ATOM     20  C   UNL     1       1.982   5.365  18.323  0.00  0.00    +0.000 C 
BRANCH  20  21
ATOM     21  O   UNL     1       1.552   4.572  19.430  0.00  0.00    +0.000 OA
ATOM     22  H   UNL     1       1.749   5.086  20.236  0.00  0.00    +0.000 HD
ENDBRANCH  20  21
ENDBRANCH   1  20
BRANCH   4  23
ATOM     23  C   UNL     1      -0.108  10.380  19.020  0.00  0.00    +0.000 C 
BRANCH  23  24
ATOM     24  C   UNL     1      -1.062  11.344  18.245  0.00  0.00    +0.000 C 
BRANCH  24  25
ATOM     25  C   UNL     1      -2.433  10.710  17.794  0.00  0.00    +0.000 C 
ATOM     26  C   UNL     1      -3.685  11.493  18.215  0.00  0.00    +0.000 C 
ATOM     27  C   UNL     1      -2.507  10.394  16.302  0.00  0.00    +0.000 C 
ENDBRANCH  24  25
BRANCH  24  28
ATOM     28  C   UNL     1      -1.275  12.640  19.133  0.00  0.00    +0.000 C 
ATOM     29  C   UNL     1      -0.965  12.407  20.623  0.00  0.00    +0.000 C 
ATOM     30  C   UNL     1      -0.452  13.847  18.668  0.00  0.00    +0.000 C 
ENDBRANCH  24  28
ENDBRANCH  23  24
ENDBRANCH   4  23
TORSDOF 11
ENDMDL
MODEL 2
REMARK VINA RESULT:      -7.2      2.308      4.295
REMARK  Name = 
REMARK  16 active torsions:
REMARK  status: ('A' for Active; 'I' for Inactive)
REMARK    1  A    between atoms: C_1  and  O_2
REMARK    2  A    between atoms: O_2  and  C_3
REMARK    3  A    between atoms: C_8  and  C_9
REMARK    4  A    between atoms: C_9  and  O_11
REMARK    5  A    between atoms: O_11  and  C_12
REMARK    6  A    between atoms: C_12  and  C_13
REMARK    7  A    between atoms: C_13  and  C_14
REMARK    8  A    between atoms: C_14  and  O_15
REMARK    9  A    between atoms: C_18  and  C_19
REMARK   10  A    between atoms: C_19  and  C_20
REMARK   11  A    between atoms: C_20  and  C_21
REMARK   12  A    between atoms: C_20  and  C_24
REMARK   13  A    between atoms: C_21  and  C_22
REMARK   14  A    between atoms: C_21  and  C_23
REMARK   15  A    between atoms: C_24  and  C_25
REMARK   16  A    between atoms: C_24  and  C_26
REMARK                            x       y       z     vdW  Elec       q    Type
REMARK                         _______ _______ _______ _____ _____    ______ ____
ROOT
ATOM      1  C   UNL     1       3.938   6.130  17.932  0.00  0.00    +0.000 C 
ATOM      2  C   UNL     1       2.957   6.035  19.103  0.00  0.00    +0.000 C 
ATOM      3  C   UNL     1       2.403   7.414  19.183  0.00  0.00    +0.000 C 
ATOM      4  C   UNL     1       1.709   7.936  20.210  0.00  0.00    +0.000 C 
ATOM      5  C   UNL     1       2.739   8.109  17.921  0.00  0.00    +0.000 C 
ATOM      6  O   UNL     1       2.351   9.202  17.550  0.00  0.00    +0.000 OA
ATOM      7  O   UNL     1       3.530   7.292  17.180  0.00  0.00    +0.000 OA
ENDROOT
BRANCH   1   8
ATOM      8  C   UNL     1       3.829   4.900  17.012  0.00  0.00    +0.000 C 
BRANCH   8   9
ATOM      9  O   UNL     1       4.284   3.710  17.693  0.00  0.00    +0.000 OA
BRANCH   9  10
ATOM     10  C   UNL     1       3.388   2.711  17.854  0.00  0.00    +0.000 C 
ATOM     11  O   UNL     1       3.120   1.871  17.005  0.00  0.00    +0.000 OA
BRANCH  10  17
ATOM     12  C   UNL     1       3.482   2.438  20.411  0.00  0.00    +0.000 A 
ATOM     13  C   UNL     1       2.803   2.564  21.638  0.00  0.00    +0.000 A 
ATOM     14  C   UNL     1       1.444   2.876  21.681  0.00  0.00    +0.000 A 
ATOM     15  C   UNL     1       0.745   3.080  20.502  0.00  0.00    +0.000 A 
ATOM     16  C   UNL     1       1.414   2.996  19.278  0.00  0.00    +0.000 A 
ATOM     17  C   UNL     1       2.783   2.686  19.216  0.00  0.00    +0.000 A 
BRANCH  12  19
ATOM     18  C   UNL     1       5.254   1.147  21.290  0.00  0.00    +0.000 C 
ATOM     19  O   UNL     1       4.821   2.150  20.363  0.00  0.00    +0.000 OA
ENDBRANCH  12  19
ENDBRANCH  10  17
ENDBRANCH   9  10
ENDBRANCH   8   9
ENDBRANCH   1   8
BRANCH   1  20
ATOM     20  C   UNL     1       5.396   6.348  18.380  0.00  0.00    +0.000 C 
BRANCH  20  21
ATOM     21  O   UNL     1       5.784   5.424  19.397  0.00  0.00    +0.000 OA
ATOM     22  H   UNL     1       6.006   4.587  18.946  0.00  0.00    +0.000 HD
ENDBRANCH  20  21
ENDBRANCH   1  20
BRANCH   4  23
ATOM     23  C   UNL     1       1.258   9.366  20.320  0.00  0.00    +0.000 C 
BRANCH  23  24
ATOM     24  C   UNL     1      -0.260   9.646  20.563  0.00  0.00    +0.000 C 
BRANCH  24  25
ATOM     25  C   UNL     1      -0.643  10.013  22.048  0.00  0.00    +0.000 C 
ATOM     26  C   UNL     1       0.308   9.466  23.123  0.00  0.00    +0.000 C 
ATOM     27  C   UNL     1      -0.867  11.506  22.278  0.00  0.00    +0.000 C 
ENDBRANCH  24  25
BRANCH  24  28
ATOM     28  C   UNL     1      -0.722  10.766  19.541  0.00  0.00    +0.000 C 
ATOM     29  C   UNL     1       0.449  11.610  19.002  0.00  0.00    +0.000 C 
ATOM     30  C   UNL     1      -1.495  10.218  18.335  0.00  0.00    +0.000 C 
ENDBRANCH  24  28
ENDBRANCH  23  24
ENDBRANCH   4  23
TORSDOF 11
ENDMDL
MODEL 3
REMARK VINA RESULT:      -7.1      2.640      9.826
REMARK  Name = 
REMARK  16 active torsions:
REMARK  status: ('A' for Active; 'I' for Inactive)
REMARK    1  A    between atoms: C_1  and  O_2
REMARK    2  A    between atoms: O_2  and  C_3
REMARK    3  A    between atoms: C_8  and  C_9
REMARK    4  A    between atoms: C_9  and  O_11
REMARK    5  A    between atoms: O_11  and  C_12
REMARK    6  A    between atoms: C_12  and  C_13
REMARK    7  A    between atoms: C_13  and  C_14
REMARK    8  A    between atoms: C_14  and  O_15
REMARK    9  A    between atoms: C_18  and  C_19
REMARK   10  A    between atoms: C_19  and  C_20
REMARK   11  A    between atoms: C_20  and  C_21
REMARK   12  A    between atoms: C_20  and  C_24
REMARK   13  A    between atoms: C_21  and  C_22
REMARK   14  A    between atoms: C_21  and  C_23
REMARK   15  A    between atoms: C_24  and  C_25
REMARK   16  A    between atoms: C_24  and  C_26
REMARK                            x       y       z     vdW  Elec       q    Type
REMARK                         _______ _______ _______ _____ _____    ______ ____
ROOT
ATOM      1  C   UNL     1       0.852  10.122  18.669  0.00  0.00    +0.000 C 
ATOM      2  C   UNL     1       1.346   9.010  17.741  0.00  0.00    +0.000 C 
ATOM      3  C   UNL     1       2.037   8.081  18.675  0.00  0.00    +0.000 C 
ATOM      4  C   UNL     1       2.880   7.090  18.335  0.00  0.00    +0.000 C 
ATOM      5  C   UNL     1       1.621   8.431  20.050  0.00  0.00    +0.000 C 
ATOM      6  O   UNL     1       1.863   7.824  21.077  0.00  0.00    +0.000 OA
ATOM      7  O   UNL     1       0.847   9.546  19.992  0.00  0.00    +0.000 OA
ENDROOT
BRANCH   1   8
ATOM      8  C   UNL     1      -0.588  10.540  18.321  0.00  0.00    +0.000 C 
BRANCH   8   9
ATOM      9  O   UNL     1      -1.279  11.025  19.493  0.00  0.00    +0.000 OA
BRANCH   9  10
ATOM     10  C   UNL     1      -1.769  12.284  19.444  0.00  0.00    +0.000 C 
ATOM     11  O   UNL     1      -1.149  13.258  19.040  0.00  0.00    +0.000 OA
BRANCH  10  17
ATOM     12  C   UNL     1      -4.302  11.966  19.116  0.00  0.00    +0.000 A 
ATOM     13  C   UNL     1      -5.582  11.995  19.702  0.00  0.00    +0.000 A 
ATOM     14  C   UNL     1      -5.768  12.469  21.001  0.00  0.00    +0.000 A 
ATOM     15  C   UNL     1      -4.680  12.907  21.739  0.00  0.00    +0.000 A 
ATOM     16  C   UNL     1      -3.400  12.847  21.185  0.00  0.00    +0.000 A 
ATOM     17  C   UNL     1      -3.192  12.370  19.879  0.00  0.00    +0.000 A 
BRANCH  12  19
ATOM     18  C   UNL     1      -5.064  11.939  16.881  0.00  0.00    +0.000 C 
ATOM     19  O   UNL     1      -4.109  11.484  17.847  0.00  0.00    +0.000 OA
ENDBRANCH  12  19
ENDBRANCH  10  17
ENDBRANCH   9  10
ENDBRANCH   8   9
ENDBRANCH   1   8
BRANCH   1  20
ATOM     20  C   UNL     1       1.785  11.348  18.693  0.00  0.00    +0.000 C 
BRANCH  20  21
ATOM     21  O   UNL     1       1.261  12.431  17.924  0.00  0.00    +0.000 OA
ATOM     22  H   UNL     1       1.037  13.141  18.556  0.00  0.00    +0.000 HD
ENDBRANCH  20  21
ENDBRANCH   1  20
BRANCH   4  23
ATOM     23  C   UNL     1       3.657   6.237  19.300  0.00  0.00    +0.000 C 
BRANCH  23  24
ATOM     24  C   UNL     1       3.138   4.794  19.596  0.00  0.00    +0.000 C 
BRANCH  24  25
ATOM     25  C   UNL     1       1.648   4.516  19.160  0.00  0.00    +0.000 C 
ATOM     26  C   UNL     1       1.484   3.823  17.799  0.00  0.00    +0.000 C 
ATOM     27  C   UNL     1       0.824   3.775  20.211  0.00  0.00    +0.000 C 
ENDBRANCH  24  25
BRANCH  24  28
ATOM     28  C   UNL     1       4.147   3.764  18.936  0.00  0.00    +0.000 C 
ATOM     29  C   UNL     1       5.514   4.390  18.603  0.00  0.00    +0.000 C 
ATOM     30  C   UNL     1       4.401   2.517  19.791  0.00  0.00    +0.000 C 
ENDBRANCH  24  28
ENDBRANCH  23  24
ENDBRANCH   4  23
TORSDOF 11
ENDMDL
MODEL 4
REMARK VINA RESULT:      -7.0      5.268      7.681
REMARK  Name = 
REMARK  16 active torsions:
REMARK  status: ('A' for Active; 'I' for Inactive)
REMARK    1  A    between atoms: C_1  and  O_2
REMARK    2  A    between atoms: O_2  and  C_3
REMARK    3  A    between atoms: C_8  and  C_9
REMARK    4  A    between atoms: C_9  and  O_11
REMARK    5  A    between atoms: O_11  and  C_12
REMARK    6  A    between atoms: C_12  and  C_13
REMARK    7  A    between atoms: C_13  and  C_14
REMARK    8  A    between atoms: C_14  and  O_15
REMARK    9  A    between atoms: C_18  and  C_19
REMARK   10  A    between atoms: C_19  and  C_20
REMARK   11  A    between atoms: C_20  and  C_21
REMARK   12  A    between atoms: C_20  and  C_24
REMARK   13  A    between atoms: C_21  and  C_22
REMARK   14  A    between atoms: C_21  and  C_23
REMARK   15  A    between atoms: C_24  and  C_25
REMARK   16  A    between atoms: C_24  and  C_26
REMARK                            x       y       z     vdW  Elec       q    Type
REMARK                         _______ _______ _______ _____ _____    ______ ____
ROOT
ATOM      1  C   UNL     1       7.021   5.600  18.195  0.00  0.00    +0.000 C 
ATOM      2  C   UNL     1       7.949   6.430  19.087  0.00  0.00    +0.000 C 
ATOM      3  C   UNL     1       7.959   7.755  18.411  0.00  0.00    +0.000 C 
ATOM      4  C   UNL     1       8.830   8.755  18.630  0.00  0.00    +0.000 C 
ATOM      5  C   UNL     1       6.826   7.786  17.461  0.00  0.00    +0.000 C 
ATOM      6  O   UNL     1       6.421   8.737  16.818  0.00  0.00    +0.000 OA
ATOM      7  O   UNL     1       6.243   6.560  17.450  0.00  0.00    +0.000 OA
ENDROOT
BRANCH   1   8
ATOM      8  C   UNL     1       6.055   4.748  19.038  0.00  0.00    +0.000 C 
BRANCH   8   9
ATOM      9  O   UNL     1       4.705   4.856  18.536  0.00  0.00    +0.000 OA
BRANCH   9  10
ATOM     10  C   UNL     1       4.043   3.703  18.294  0.00  0.00    +0.000 C 
ATOM     11  O   UNL     1       4.149   3.038  17.272  0.00  0.00    +0.000 OA
BRANCH  10  17
ATOM     12  C   UNL     1       3.621   2.454  20.505  0.00  0.00    +0.000 A 
ATOM     13  C   UNL     1       2.745   2.222  21.582  0.00  0.00    +0.000 A 
ATOM     14  C   UNL     1       1.450   2.741  21.582  0.00  0.00    +0.000 A 
ATOM     15  C   UNL     1       1.014   3.509  20.513  0.00  0.00    +0.000 A 
ATOM     16  C   UNL     1       1.885   3.780  19.456  0.00  0.00    +0.000 A 
ATOM     17  C   UNL     1       3.195   3.269  19.441  0.00  0.00    +0.000 A 
BRANCH  12  19
ATOM     18  C   UNL     1       5.175   1.007  21.540  0.00  0.00    +0.000 C 
ATOM     19  O   UNL     1       4.901   1.963  20.509  0.00  0.00    +0.000 OA
ENDBRANCH  12  19
ENDBRANCH  10  17
ENDBRANCH   9  10
ENDBRANCH   8   9
ENDBRANCH   1   8
BRANCH   1  20
ATOM     20  C   UNL     1       7.781   4.722  17.183  0.00  0.00    +0.000 C 
BRANCH  20  21
ATOM     21  O   UNL     1       6.892   3.967  16.359  0.00  0.00    +0.000 OA
ATOM     22  H   UNL     1       7.298   3.930  15.471  0.00  0.00    +0.000 HD
ENDBRANCH  20  21
ENDBRANCH   1  20
BRANCH   4  23
ATOM     23  C   UNL     1       8.894  10.043  17.855  0.00  0.00    +0.000 C 
BRANCH  23  24
ATOM     24  C   UNL     1       9.980  11.093  18.254  0.00  0.00    +0.000 C 
BRANCH  24  25
ATOM     25  C   UNL     1       9.628  12.588  17.896  0.00  0.00    +0.000 C 
ATOM     26  C   UNL     1      10.646  13.300  16.991  0.00  0.00    +0.000 C 
ATOM     27  C   UNL     1       8.224  12.774  17.327  0.00  0.00    +0.000 C 
ENDBRANCH  24  25
BRANCH  24  28
ATOM     28  C   UNL     1      10.292  10.914  19.798  0.00  0.00    +0.000 C 
ATOM     29  C   UNL     1      11.558  11.667  20.248  0.00  0.00    +0.000 C 
ATOM     30  C   UNL     1       9.141  11.349  20.713  0.00  0.00    +0.000 C 
ENDBRANCH  24  28
ENDBRANCH  23  24
ENDBRANCH   4  23
TORSDOF 11
ENDMDL
MODEL 5
REMARK VINA RESULT:      -7.0      1.332      1.836
REMARK  Name = 
REMARK  16 active torsions:
REMARK  status: ('A' for Active; 'I' for Inactive)
REMARK    1  A    between atoms: C_1  and  O_2
REMARK    2  A    between atoms: O_2  and  C_3
REMARK    3  A    between atoms: C_8  and  C_9
REMARK    4  A    between atoms: C_9  and  O_11
REMARK    5  A    between atoms: O_11  and  C_12
REMARK    6  A    between atoms: C_12  and  C_13
REMARK    7  A    between atoms: C_13  and  C_14
REMARK    8  A    between atoms: C_14  and  O_15
REMARK    9  A    between atoms: C_18  and  C_19
REMARK   10  A    between atoms: C_19  and  C_20
REMARK   11  A    between atoms: C_20  and  C_21
REMARK   12  A    between atoms: C_20  and  C_24
REMARK   13  A    between atoms: C_21  and  C_22
REMARK   14  A    between atoms: C_21  and  C_23
REMARK   15  A    between atoms: C_24  and  C_25
REMARK   16  A    between atoms: C_24  and  C_26
REMARK                            x       y       z     vdW  Elec       q    Type
REMARK                         _______ _______ _______ _____ _____    ______ ____
ROOT
ATOM      1  C   UNL     1       2.721   6.713  18.621  0.00  0.00    +0.000 C 
ATOM      2  C   UNL     1       2.387   8.109  18.088  0.00  0.00    +0.000 C 
ATOM      3  C   UNL     1       1.504   8.665  19.148  0.00  0.00    +0.000 C 
ATOM      4  C   UNL     1       0.717   9.750  19.043  0.00  0.00    +0.000 C 
ATOM      5  C   UNL     1       1.656   7.819  20.352  0.00  0.00    +0.000 C 
ATOM      6  O   UNL     1       1.203   8.021  21.464  0.00  0.00    +0.000 OA
ATOM      7  O   UNL     1       2.455   6.767  20.037  0.00  0.00    +0.000 OA
ENDROOT
BRANCH   1   8
ATOM      8  C   UNL     1       4.212   6.384  18.423  0.00  0.00    +0.000 C 
BRANCH   8   9
ATOM      9  O   UNL     1       4.654   5.409  19.392  0.00  0.00    +0.000 OA
BRANCH   9  10
ATOM     10  C   UNL     1       5.178   4.258  18.915  0.00  0.00    +0.000 C 
ATOM     11  O   UNL     1       5.165   3.187  19.506  0.00  0.00    +0.000 OA
BRANCH  10  17
ATOM     12  C   UNL     1       7.018   4.884  17.227  0.00  0.00    +0.000 A 
ATOM     13  C   UNL     1       7.455   4.852  15.889  0.00  0.00    +0.000 A 
ATOM     14  C   UNL     1       6.617   4.399  14.869  0.00  0.00    +0.000 A 
ATOM     15  C   UNL     1       5.337   3.962  15.170  0.00  0.00    +0.000 A 
ATOM     16  C   UNL     1       4.904   3.952  16.498  0.00  0.00    +0.000 A 
ATOM     17  C   UNL     1       5.735   4.401  17.539  0.00  0.00    +0.000 A 
BRANCH  12  19
ATOM     18  C   UNL     1       7.909   6.731  18.400  0.00  0.00    +0.000 C 
ATOM     19  O   UNL     1       7.843   5.309  18.236  0.00  0.00    +0.000 OA
ENDBRANCH  12  19
ENDBRANCH  10  17
ENDBRANCH   9  10
ENDBRANCH   8   9
ENDBRANCH   1   8
BRANCH   1  20
ATOM     20  C   UNL     1       1.834   5.607  18.017  0.00  0.00    +0.000 C 
BRANCH  20  21
ATOM     21  O   UNL     1       1.734   4.474  18.879  0.00  0.00    +0.000 OA
ATOM     22  H   UNL     1       0.827   4.476  19.241  0.00  0.00    +0.000 HD
ENDBRANCH  20  21
ENDBRANCH   1  20
BRANCH   4  23
ATOM     23  C   UNL     1      -0.255  10.229  20.086  0.00  0.00    +0.000 C 
BRANCH  23  24
ATOM     24  C   UNL     1      -0.785  11.694  19.986  0.00  0.00    +0.000 C 
BRANCH  24  25
ATOM     25  C   UNL     1      -1.302  12.313  21.341  0.00  0.00    +0.000 C 
ATOM     26  C   UNL     1      -2.764  12.783  21.330  0.00  0.00    +0.000 C 
ATOM     27  C   UNL     1      -1.061  11.424  22.559  0.00  0.00    +0.000 C 
ENDBRANCH  24  25
BRANCH  24  28
ATOM     28  C   UNL     1       0.350  12.583  19.327  0.00  0.00    +0.000 C 
ATOM     29  C   UNL     1      -0.207  13.771  18.520  0.00  0.00    +0.000 C 
ATOM     30  C   UNL     1       1.361  13.139  20.337  0.00  0.00    +0.000 C 
ENDBRANCH  24  28
ENDBRANCH  23  24
ENDBRANCH   4  23
TORSDOF 11
ENDMDL
MODEL 6
REMARK VINA RESULT:      -6.9      2.685      9.709
REMARK  Name = 
REMARK  16 active torsions:
REMARK  status: ('A' for Active; 'I' for Inactive)
REMARK    1  A    between atoms: C_1  and  O_2
REMARK    2  A    between atoms: O_2  and  C_3
REMARK    3  A    between atoms: C_8  and  C_9
REMARK    4  A    between atoms: C_9  and  O_11
REMARK    5  A    between atoms: O_11  and  C_12
REMARK    6  A    between atoms: C_12  and  C_13
REMARK    7  A    between atoms: C_13  and  C_14
REMARK    8  A    between atoms: C_14  and  O_15
REMARK    9  A    between atoms: C_18  and  C_19
REMARK   10  A    between atoms: C_19  and  C_20
REMARK   11  A    between atoms: C_20  and  C_21
REMARK   12  A    between atoms: C_20  and  C_24
REMARK   13  A    between atoms: C_21  and  C_22
REMARK   14  A    between atoms: C_21  and  C_23
REMARK   15  A    between atoms: C_24  and  C_25
REMARK   16  A    between atoms: C_24  and  C_26
REMARK                            x       y       z     vdW  Elec       q    Type
REMARK                         _______ _______ _______ _____ _____    ______ ____
ROOT
ATOM      1  C   UNL     1       0.877  10.096  18.474  0.00  0.00    +0.000 C 
ATOM      2  C   UNL     1       1.427   8.948  17.623  0.00  0.00    +0.000 C 
ATOM      3  C   UNL     1       2.048   8.053  18.636  0.00  0.00    +0.000 C 
ATOM      4  C   UNL     1       2.906   7.047  18.393  0.00  0.00    +0.000 C 
ATOM      5  C   UNL     1       1.539   8.455  19.965  0.00  0.00    +0.000 C 
ATOM      6  O   UNL     1       1.706   7.885  21.029  0.00  0.00    +0.000 OA
ATOM      7  O   UNL     1       0.777   9.568  19.813  0.00  0.00    +0.000 OA
ENDROOT
BRANCH   1   8
ATOM      8  C   UNL     1      -0.534  10.504  18.011  0.00  0.00    +0.000 C 
BRANCH   8   9
ATOM      9  O   UNL     1      -1.372  10.822  19.144  0.00  0.00    +0.000 OA
BRANCH   9  10
ATOM     10  C   UNL     1      -1.958  12.040  19.155  0.00  0.00    +0.000 C 
ATOM     11  O   UNL     1      -1.355  13.104  19.135  0.00  0.00    +0.000 OA
BRANCH  10  17
ATOM     12  C   UNL     1      -4.306  12.585  20.057  0.00  0.00    +0.000 A 
ATOM     13  C   UNL     1      -5.696  12.532  19.842  0.00  0.00    +0.000 A 
ATOM     14  C   UNL     1      -6.231  11.834  18.758  0.00  0.00    +0.000 A 
ATOM     15  C   UNL     1      -5.386  11.190  17.867  0.00  0.00    +0.000 A 
ATOM     16  C   UNL     1      -4.004  11.267  18.047  0.00  0.00    +0.000 A 
ATOM     17  C   UNL     1      -3.447  11.968  19.131  0.00  0.00    +0.000 A 
BRANCH  12  19
ATOM     18  C   UNL     1      -4.064  12.740  22.402  0.00  0.00    +0.000 C 
ATOM     19  O   UNL     1      -3.774  13.285  21.109  0.00  0.00    +0.000 OA
ENDBRANCH  12  19
ENDBRANCH  10  17
ENDBRANCH   9  10
ENDBRANCH   8   9
ENDBRANCH   1   8
BRANCH   1  20
ATOM     20  C   UNL     1       1.812  11.319  18.517  0.00  0.00    +0.000 C 
BRANCH  20  21
ATOM     21  O   UNL     1       1.170  12.498  18.032  0.00  0.00    +0.000 OA
ATOM     22  H   UNL     1       0.687  12.241  17.223  0.00  0.00    +0.000 HD
ENDBRANCH  20  21
ENDBRANCH   1  20
BRANCH   4  23
ATOM     23  C   UNL     1       3.610   6.228  19.439  0.00  0.00    +0.000 C 
BRANCH  23  24
ATOM     24  C   UNL     1       3.122   4.765  19.686  0.00  0.00    +0.000 C 
BRANCH  24  25
ATOM     25  C   UNL     1       1.629   4.478  19.267  0.00  0.00    +0.000 C 
ATOM     26  C   UNL     1       1.449   3.855  17.875  0.00  0.00    +0.000 C 
ATOM     27  C   UNL     1       0.844   3.665  20.294  0.00  0.00    +0.000 C 
ENDBRANCH  24  25
BRANCH  24  28
ATOM     28  C   UNL     1       4.136   3.782  18.966  0.00  0.00    +0.000 C 
ATOM     29  C   UNL     1       5.513   4.421  18.705  0.00  0.00    +0.000 C 
ATOM     30  C   UNL     1       4.367   2.470  19.726  0.00  0.00    +0.000 C 
ENDBRANCH  24  28
ENDBRANCH  23  24
ENDBRANCH   4  23
TORSDOF 11
ENDMDL
MODEL 7
REMARK VINA RESULT:      -6.9      2.627     10.034
REMARK  Name = 
REMARK  16 active torsions:
REMARK  status: ('A' for Active; 'I' for Inactive)
REMARK    1  A    between atoms: C_1  and  O_2
REMARK    2  A    between atoms: O_2  and  C_3
REMARK    3  A    between atoms: C_8  and  C_9
REMARK    4  A    between atoms: C_9  and  O_11
REMARK    5  A    between atoms: O_11  and  C_12
REMARK    6  A    between atoms: C_12  and  C_13
REMARK    7  A    between atoms: C_13  and  C_14
REMARK    8  A    between atoms: C_14  and  O_15
REMARK    9  A    between atoms: C_18  and  C_19
REMARK   10  A    between atoms: C_19  and  C_20
REMARK   11  A    between atoms: C_20  and  C_21
REMARK   12  A    between atoms: C_20  and  C_24
REMARK   13  A    between atoms: C_21  and  C_22
REMARK   14  A    between atoms: C_21  and  C_23
REMARK   15  A    between atoms: C_24  and  C_25
REMARK   16  A    between atoms: C_24  and  C_26
REMARK                            x       y       z     vdW  Elec       q    Type
REMARK                         _______ _______ _______ _____ _____    ______ ____
ROOT
ATOM      1  C   UNL     1       0.506  10.457  19.244  0.00  0.00    +0.000 C 
ATOM      2  C   UNL     1       1.050   9.850  17.948  0.00  0.00    +0.000 C 
ATOM      3  C   UNL     1       1.841   8.688  18.433  0.00  0.00    +0.000 C 
ATOM      4  C   UNL     1       2.744   7.986  17.726  0.00  0.00    +0.000 C 
ATOM      5  C   UNL     1       1.446   8.427  19.835  0.00  0.00    +0.000 C 
ATOM      6  O   UNL     1       1.768   7.484  20.534  0.00  0.00    +0.000 OA
ATOM      7  O   UNL     1       0.589   9.404  20.227  0.00  0.00    +0.000 OA
ENDROOT
BRANCH   1   8
ATOM      8  C   UNL     1      -0.973  10.858  19.093  0.00  0.00    +0.000 C 
BRANCH   8   9
ATOM      9  O   UNL     1      -1.453  11.506  20.291  0.00  0.00    +0.000 OA
BRANCH   9  10
ATOM     10  C   UNL     1      -2.072  12.699  20.141  0.00  0.00    +0.000 C 
ATOM     11  O   UNL     1      -1.519  13.733  19.794  0.00  0.00    +0.000 OA
BRANCH  10  17
ATOM     12  C   UNL     1      -4.498  12.180  19.452  0.00  0.00    +0.000 A 
ATOM     13  C   UNL     1      -5.839  12.051  19.859  0.00  0.00    +0.000 A 
ATOM     14  C   UNL     1      -6.239  12.408  21.147  0.00  0.00    +0.000 A 
ATOM     15  C   UNL     1      -5.304  12.885  22.053  0.00  0.00    +0.000 A 
ATOM     16  C   UNL     1      -3.963  12.982  21.675  0.00  0.00    +0.000 A 
ATOM     17  C   UNL     1      -3.542  12.625  20.383  0.00  0.00    +0.000 A 
BRANCH  12  19
ATOM     18  C   UNL     1      -5.113  11.900  17.189  0.00  0.00    +0.000 C 
ATOM     19  O   UNL     1      -4.096  11.815  18.194  0.00  0.00    +0.000 OA
ENDBRANCH  12  19
ENDBRANCH  10  17
ENDBRANCH   9  10
ENDBRANCH   8   9
ENDBRANCH   1   8
BRANCH   1  20
ATOM     20  C   UNL     1       1.343  11.646  19.754  0.00  0.00    +0.000 C 
BRANCH  20  21
ATOM     21  O   UNL     1       1.296  11.759  21.176  0.00  0.00    +0.000 OA
ATOM     22  H   UNL     1       0.562  12.370  21.384  0.00  0.00    +0.000 HD
ENDBRANCH  20  21
ENDBRANCH   1  20
BRANCH   4  23
ATOM     23  C   UNL     1       3.616   6.888  18.269  0.00  0.00    +0.000 C 
BRANCH  23  24
ATOM     24  C   UNL     1       3.822   5.608  17.398  0.00  0.00    +0.000 C 
BRANCH  24  25
ATOM     25  C   UNL     1       5.323   5.255  17.072  0.00  0.00    +0.000 C 
ATOM     26  C   UNL     1       5.537   4.428  15.795  0.00  0.00    +0.000 C 
ATOM     27  C   UNL     1       6.254   6.465  17.057  0.00  0.00    +0.000 C 
ENDBRANCH  24  25
BRANCH  24  28
ATOM     28  C   UNL     1       3.075   4.405  18.111  0.00  0.00    +0.000 C 
ATOM     29  C   UNL     1       3.221   4.427  19.644  0.00  0.00    +0.000 C 
ATOM     30  C   UNL     1       1.577   4.331  17.787  0.00  0.00    +0.000 C 
ENDBRANCH  24  28
ENDBRANCH  23  24
ENDBRANCH   4  23
TORSDOF 11
ENDMDL
MODEL 8
REMARK VINA RESULT:      -6.9      3.088      9.915
REMARK  Name = 
REMARK  16 active torsions:
REMARK  status: ('A' for Active; 'I' for Inactive)
REMARK    1  A    between atoms: C_1  and  O_2
REMARK    2  A    between atoms: O_2  and  C_3
REMARK    3  A    between atoms: C_8  and  C_9
REMARK    4  A    between atoms: C_9  and  O_11
REMARK    5  A    between atoms: O_11  and  C_12
REMARK    6  A    between atoms: C_12  and  C_13
REMARK    7  A    between atoms: C_13  and  C_14
REMARK    8  A    between atoms: C_14  and  O_15
REMARK    9  A    between atoms: C_18  and  C_19
REMARK   10  A    between atoms: C_19  and  C_20
REMARK   11  A    between atoms: C_20  and  C_21
REMARK   12  A    between atoms: C_20  and  C_24
REMARK   13  A    between atoms: C_21  and  C_22
REMARK   14  A    between atoms: C_21  and  C_23
REMARK   15  A    between atoms: C_24  and  C_25
REMARK   16  A    between atoms: C_24  and  C_26
REMARK                            x       y       z     vdW  Elec       q    Type
REMARK                         _______ _______ _______ _____ _____    ______ ____
ROOT
ATOM      1  C   UNL     1       0.514  10.175  19.907  0.00  0.00    +0.000 C 
ATOM      2  C   UNL     1       1.178   8.908  20.453  0.00  0.00    +0.000 C 
ATOM      3  C   UNL     1       1.842   8.338  19.250  0.00  0.00    +0.000 C 
ATOM      4  C   UNL     1       2.328   7.091  19.123  0.00  0.00    +0.000 C 
ATOM      5  C   UNL     1       1.888   9.395  18.216  0.00  0.00    +0.000 C 
ATOM      6  O   UNL     1       2.466   9.363  17.145  0.00  0.00    +0.000 OA
ATOM      7  O   UNL     1       1.209  10.476  18.679  0.00  0.00    +0.000 OA
ENDROOT
BRANCH   1   8
ATOM      8  C   UNL     1       0.704  11.362  20.870  0.00  0.00    +0.000 C 
BRANCH   8   9
ATOM      9  O   UNL     1      -0.569  11.818  21.378  0.00  0.00    +0.000 OA
BRANCH   9  10
ATOM     10  C   UNL     1      -0.831  11.588  22.683  0.00  0.00    +0.000 C 
ATOM     11  O   UNL     1      -0.331  10.690  23.348  0.00  0.00    +0.000 OA
BRANCH  10  17
ATOM     12  C   UNL     1      -1.455  13.941  23.517  0.00  0.00    +0.000 A 
ATOM     13  C   UNL     1      -2.472  14.803  23.971  0.00  0.00    +0.000 A 
ATOM     14  C   UNL     1      -3.757  14.326  24.232  0.00  0.00    +0.000 A 
ATOM     15  C   UNL     1      -4.049  12.986  24.033  0.00  0.00    +0.000 A 
ATOM     16  C   UNL     1      -3.061  12.127  23.547  0.00  0.00    +0.000 A 
ATOM     17  C   UNL     1      -1.762  12.591  23.275  0.00  0.00    +0.000 A 
BRANCH  12  19
ATOM     18  C   UNL     1      -0.153  15.541  22.366  0.00  0.00    +0.000 C 
ATOM     19  O   UNL     1      -0.196  14.408  23.241  0.00  0.00    +0.000 OA
ENDBRANCH  12  19
ENDBRANCH  10  17
ENDBRANCH   9  10
ENDBRANCH   8   9
ENDBRANCH   1   8
BRANCH   1  20
ATOM     20  C   UNL     1      -0.976   9.979  19.570  0.00  0.00    +0.000 C 
BRANCH  20  21
ATOM     21  O   UNL     1      -1.447  10.961  18.646  0.00  0.00    +0.000 OA
ATOM     22  H   UNL     1      -1.502  11.804  19.137  0.00  0.00    +0.000 HD
ENDBRANCH  20  21
ENDBRANCH   1  20
BRANCH   4  23
ATOM     23  C   UNL     1       2.892   6.498  17.861  0.00  0.00    +0.000 C 
BRANCH  23  24
ATOM     24  C   UNL     1       4.168   5.604  17.969  0.00  0.00    +0.000 C 
BRANCH  24  25
ATOM     25  C   UNL     1       3.896   4.052  18.013  0.00  0.00    +0.000 C 
ATOM     26  C   UNL     1       4.229   3.367  19.347  0.00  0.00    +0.000 C 
ATOM     27  C   UNL     1       2.487   3.658  17.575  0.00  0.00    +0.000 C 
ENDBRANCH  24  25
BRANCH  24  28
ATOM     28  C   UNL     1       5.145   5.998  16.784  0.00  0.00    +0.000 C 
ATOM     29  C   UNL     1       6.341   6.851  17.247  0.00  0.00    +0.000 C 
ATOM     30  C   UNL     1       5.702   4.792  16.018  0.00  0.00    +0.000 C 
ENDBRANCH  24  28
ENDBRANCH  23  24
ENDBRANCH   4  23
TORSDOF 11
ENDMDL
MODEL 9
REMARK VINA RESULT:      -6.9      3.102      9.962
REMARK  Name = 
REMARK  16 active torsions:
REMARK  status: ('A' for Active; 'I' for Inactive)
REMARK    1  A    between atoms: C_1  and  O_2
REMARK    2  A    between atoms: O_2  and  C_3
REMARK    3  A    between atoms: C_8  and  C_9
REMARK    4  A    between atoms: C_9  and  O_11
REMARK    5  A    between atoms: O_11  and  C_12
REMARK    6  A    between atoms: C_12  and  C_13
REMARK    7  A    between atoms: C_13  and  C_14
REMARK    8  A    between atoms: C_14  and  O_15
REMARK    9  A    between atoms: C_18  and  C_19
REMARK   10  A    between atoms: C_19  and  C_20
REMARK   11  A    between atoms: C_20  and  C_21
REMARK   12  A    between atoms: C_20  and  C_24
REMARK   13  A    between atoms: C_21  and  C_22
REMARK   14  A    between atoms: C_21  and  C_23
REMARK   15  A    between atoms: C_24  and  C_25
REMARK   16  A    between atoms: C_24  and  C_26
REMARK                            x       y       z     vdW  Elec       q    Type
REMARK                         _______ _______ _______ _____ _____    ______ ____
ROOT
ATOM      1  C   UNL     1       0.340  10.432  19.746  0.00  0.00    +0.000 C 
ATOM      2  C   UNL     1       0.886   9.227  20.516  0.00  0.00    +0.000 C 
ATOM      3  C   UNL     1       1.612   8.464  19.464  0.00  0.00    +0.000 C 
ATOM      4  C   UNL     1       2.036   7.192  19.553  0.00  0.00    +0.000 C 
ATOM      5  C   UNL     1       1.799   9.362  18.304  0.00  0.00    +0.000 C 
ATOM      6  O   UNL     1       2.459   9.153  17.302  0.00  0.00    +0.000 OA
ATOM      7  O   UNL     1       1.147  10.526  18.554  0.00  0.00    +0.000 OA
ENDROOT
BRANCH   1   8
ATOM      8  C   UNL     1       0.517  11.734  20.550  0.00  0.00    +0.000 C 
BRANCH   8   9
ATOM      9  O   UNL     1      -0.721  12.114  21.189  0.00  0.00    +0.000 OA
BRANCH   9  10
ATOM     10  C   UNL     1      -0.843  11.843  22.508  0.00  0.00    +0.000 C 
ATOM     11  O   UNL     1      -0.211  10.982  23.105  0.00  0.00    +0.000 OA
BRANCH  10  17
ATOM     12  C   UNL     1      -1.525  14.080  23.583  0.00  0.00    +0.000 A 
ATOM     13  C   UNL     1      -2.561  14.863  24.125  0.00  0.00    +0.000 A 
ATOM     14  C   UNL     1      -3.832  14.327  24.338  0.00  0.00    +0.000 A 
ATOM     15  C   UNL     1      -4.091  13.008  24.001  0.00  0.00    +0.000 A 
ATOM     16  C   UNL     1      -3.082  12.231  23.427  0.00  0.00    +0.000 A 
ATOM     17  C   UNL     1      -1.797  12.754  23.202  0.00  0.00    +0.000 A 
BRANCH  12  19
ATOM     18  C   UNL     1      -0.213  15.547  22.277  0.00  0.00    +0.000 C 
ATOM     19  O   UNL     1      -0.279  14.606  23.354  0.00  0.00    +0.000 OA
ENDBRANCH  12  19
ENDBRANCH  10  17
ENDBRANCH   9  10
ENDBRANCH   8   9
ENDBRANCH   1   8
BRANCH   1  20
ATOM     20  C   UNL     1      -1.127  10.257  19.310  0.00  0.00    +0.000 C 
BRANCH  20  21
ATOM     21  O   UNL     1      -1.525  11.252  18.365  0.00  0.00    +0.000 OA
ATOM     22  H   UNL     1      -1.468  10.838  17.482  0.00  0.00    +0.000 HD
ENDBRANCH  20  21
ENDBRANCH   1  20
BRANCH   4  23
ATOM     23  C   UNL     1       2.665   6.402  18.437  0.00  0.00    +0.000 C 
BRANCH  23  24
ATOM     24  C   UNL     1       2.582   4.844  18.496  0.00  0.00    +0.000 C 
BRANCH  24  25
ATOM     25  C   UNL     1       3.971   4.100  18.533  0.00  0.00    +0.000 C 
ATOM     26  C   UNL     1       4.212   3.107  17.386  0.00  0.00    +0.000 C 
ATOM     27  C   UNL     1       5.171   5.036  18.657  0.00  0.00    +0.000 C 
ENDBRANCH  24  25
BRANCH  24  28
ATOM     28  C   UNL     1       1.667   4.447  19.729  0.00  0.00    +0.000 C 
ATOM     29  C   UNL     1       0.739   3.255  19.432  0.00  0.00    +0.000 C 
ATOM     30  C   UNL     1       2.458   4.117  21.001  0.00  0.00    +0.000 C 
ENDBRANCH  24  28
ENDBRANCH  23  24
ENDBRANCH   4  23
TORSDOF 11
ENDMDL
