MODEL 1
REMARK VINA RESULT:      -7.4      0.000      0.000
REMARK  Name = 
REMARK  5 active torsions:
REMARK  status: ('A' for Active; 'I' for Inactive)
REMARK    1  A    between atoms: C_1  and  C_2
REMARK    2  A    between atoms: C_3  and  O_4
REMARK    3  A    between atoms: C_5  and  C_6
REMARK    4  A    between atoms: C_9  and  O_10
REMARK    5  A    between atoms: C_14  and  C_15
REMARK                            x       y       z     vdW  Elec       q    Type
REMARK                         _______ _______ _______ _____ _____    ______ ____
ROOT
ATOM      1  C   UNL     1      -2.414  13.297  21.813  0.00  0.00    +0.000 C 
ATOM      2  C   UNL     1      -1.654  12.184  21.141  0.00  0.00    +0.000 A 
ATOM      3  C   UNL     1      -1.777  11.851  19.779  0.00  0.00    +0.000 A 
ATOM      4  C   UNL     1      -1.055  10.779  19.211  0.00  0.00    +0.000 A 
ATOM      5  C   UNL     1      -1.184  10.424  17.751  0.00  0.00    +0.000 C 
ATOM      6  C   UNL     1      -0.193  10.029  20.028  0.00  0.00    +0.000 A 
ATOM      7  C   UNL     1      -0.074  10.334  21.383  0.00  0.00    +0.000 A 
ATOM      8  C   UNL     1      -0.784  11.410  21.930  0.00  0.00    +0.000 A 
ATOM      9  C   UNL     1       0.764   9.461  22.228  0.00  0.00    +0.000 C 
ATOM     10  O   UNL     1       0.978   9.754  23.401  0.00  0.00    +0.000 OA
ATOM     11  C   UNL     1       1.250   8.190  21.600  0.00  0.00    +0.000 C 
ATOM     12  C   UNL     1       1.625   8.524  20.166  0.00  0.00    +0.000 C 
ATOM     13  O   UNL     1       0.476   8.985  19.436  0.00  0.00    +0.000 OA
ENDROOT
BRANCH  12  14
ATOM     14  C   UNL     1       2.203   7.304  19.467  0.00  0.00    +0.000 A 
ATOM     15  C   UNL     1       2.140   6.027  20.049  0.00  0.00    +0.000 A 
ATOM     16  C   UNL     1       2.674   4.916  19.390  0.00  0.00    +0.000 A 
ATOM     17  C   UNL     1       3.285   5.075  18.150  0.00  0.00    +0.000 A 
ATOM     18 CL   UNL     1       3.929   3.706  17.331  0.00  0.00    +0.000 Cl
ATOM     19  C   UNL     1       3.377   6.336  17.566  0.00  0.00    +0.000 A 
ATOM     20  C   UNL     1       2.841   7.448  18.223  0.00  0.00    +0.000 A 
ENDBRANCH  12  14
BRANCH   3  21
ATOM     21  O   UNL     1      -2.602  12.537  18.928  0.00  0.00    +0.000 OA
ATOM     22  H   UNL     1      -2.112  13.204  18.431  0.00  0.00    +0.000 HD
ENDBRANCH   3  21
BRANCH   8  23
ATOM     23  O   UNL     1      -0.677  11.742  23.259  0.00  0.00    +0.000 OA
ATOM     24  H   UNL     1      -0.443  12.696  23.328  0.00  0.00    +0.000 HD
ENDBRANCH   8  23
TORSDOF 3
ENDMDL
MODEL 2
REMARK VINA RESULT:      -7.4      3.576      7.603
REMARK  Name = 
REMARK  5 active torsions:
REMARK  status: ('A' for Active; 'I' for Inactive)
REMARK    1  A    between atoms: C_1  and  C_2
REMARK    2  A    between atoms: C_3  and  O_4
REMARK    3  A    between atoms: C_5  and  C_6
REMARK    4  A    between atoms: C_9  and  O_10
REMARK    5  A    between atoms: C_14  and  C_15
REMARK                            x       y       z     vdW  Elec       q    Type
REMARK                         _______ _______ _______ _____ _____    ______ ____
ROOT
ATOM      1  C   UNL     1       4.697   3.301  17.118  0.00  0.00    +0.000 C 
ATOM      2  C   UNL     1       3.895   4.222  17.999  0.00  0.00    +0.000 A 
ATOM      3  C   UNL     1       3.226   3.817  19.169  0.00  0.00    +0.000 A 
ATOM      4  C   UNL     1       2.470   4.723  19.941  0.00  0.00    +0.000 A 
ATOM      5  C   UNL     1       1.755   4.289  21.196  0.00  0.00    +0.000 C 
ATOM      6  C   UNL     1       2.384   6.064  19.530  0.00  0.00    +0.000 A 
ATOM      7  C   UNL     1       3.025   6.478  18.363  0.00  0.00    +0.000 A 
ATOM      8  C   UNL     1       3.786   5.571  17.615  0.00  0.00    +0.000 A 
ATOM      9  C   UNL     1       2.829   7.869  17.911  0.00  0.00    +0.000 C 
ATOM     10  O   UNL     1       3.457   8.303  16.949  0.00  0.00    +0.000 OA
ATOM     11  C   UNL     1       1.782   8.664  18.631  0.00  0.00    +0.000 C 
ATOM     12  C   UNL     1       1.892   8.304  20.103  0.00  0.00    +0.000 C 
ATOM     13  O   UNL     1       1.623   6.907  20.303  0.00  0.00    +0.000 OA
ENDROOT
BRANCH  12  14
ATOM     14  C   UNL     1       0.912   9.123  20.927  0.00  0.00    +0.000 A 
ATOM     15  C   UNL     1       0.738   8.893  22.302  0.00  0.00    +0.000 A 
ATOM     16  C   UNL     1      -0.166   9.659  23.044  0.00  0.00    +0.000 A 
ATOM     17  C   UNL     1      -0.910  10.652  22.415  0.00  0.00    +0.000 A 
ATOM     18 CL   UNL     1      -2.011  11.606  23.332  0.00  0.00    +0.000 Cl
ATOM     19  C   UNL     1      -0.768  10.882  21.049  0.00  0.00    +0.000 A 
ATOM     20  C   UNL     1       0.137  10.118  20.306  0.00  0.00    +0.000 A 
ENDBRANCH  12  14
BRANCH   3  21
ATOM     21  O   UNL     1       3.264   2.525  19.623  0.00  0.00    +0.000 OA
ATOM     22  H   UNL     1       2.600   1.981  19.178  0.00  0.00    +0.000 HD
ENDBRANCH   3  21
BRANCH   8  23
ATOM     23  O   UNL     1       4.439   5.954  16.468  0.00  0.00    +0.000 OA
ATOM     24  H   UNL     1       5.389   6.105  16.682  0.00  0.00    +0.000 HD
ENDBRANCH   8  23
TORSDOF 3
ENDMDL
MODEL 3
REMARK VINA RESULT:      -7.4      0.413      1.108
REMARK  Name = 
REMARK  5 active torsions:
REMARK  status: ('A' for Active; 'I' for Inactive)
REMARK    1  A    between atoms: C_1  and  C_2
REMARK    2  A    between atoms: C_3  and  O_4
REMARK    3  A    between atoms: C_5  and  C_6
REMARK    4  A    between atoms: C_9  and  O_10
REMARK    5  A    between atoms: C_14  and  C_15
REMARK                            x       y       z     vdW  Elec       q    Type
REMARK                         _______ _______ _______ _____ _____    ______ ____
ROOT
ATOM      1  C   UNL     1      -2.852  13.154  22.026  0.00  0.00    +0.000 C 
ATOM      2  C   UNL     1      -2.000  12.156  21.288  0.00  0.00    +0.000 A 
ATOM      3  C   UNL     1      -2.050  11.944  19.898  0.00  0.00    +0.000 A 
ATOM      4  C   UNL     1      -1.241  10.975  19.266  0.00  0.00    +0.000 A 
ATOM      5  C   UNL     1      -1.294  10.751  17.776  0.00  0.00    +0.000 C 
ATOM      6  C   UNL     1      -0.365  10.204  20.048  0.00  0.00    +0.000 A 
ATOM      7  C   UNL     1      -0.316  10.388  21.429  0.00  0.00    +0.000 A 
ATOM      8  C   UNL     1      -1.112  11.365  22.041  0.00  0.00    +0.000 A 
ATOM      9  C   UNL     1       0.544   9.492  22.226  0.00  0.00    +0.000 C 
ATOM     10  O   UNL     1       0.696   9.686  23.429  0.00  0.00    +0.000 OA
ATOM     11  C   UNL     1       1.132   8.316  21.506  0.00  0.00    +0.000 C 
ATOM     12  C   UNL     1       1.539   8.805  20.126  0.00  0.00    +0.000 C 
ATOM     13  O   UNL     1       0.391   9.262  19.393  0.00  0.00    +0.000 OA
ENDROOT
BRANCH  12  14
ATOM     14  C   UNL     1       2.218   7.691  19.345  0.00  0.00    +0.000 A 
ATOM     15  C   UNL     1       2.786   7.923  18.080  0.00  0.00    +0.000 A 
ATOM     16  C   UNL     1       3.408   6.888  17.379  0.00  0.00    +0.000 A 
ATOM     17  C   UNL     1       3.459   5.611  17.930  0.00  0.00    +0.000 A 
ATOM     18 CL   UNL     1       4.240   4.339  17.073  0.00  0.00    +0.000 Cl
ATOM     19  C   UNL     1       2.885   5.356  19.173  0.00  0.00    +0.000 A 
ATOM     20  C   UNL     1       2.263   6.391  19.876  0.00  0.00    +0.000 A 
ENDBRANCH  12  14
BRANCH   3  21
ATOM     21  O   UNL     1      -2.886  12.656  19.079  0.00  0.00    +0.000 OA
ATOM     22  H   UNL     1      -3.082  12.164  18.270  0.00  0.00    +0.000 HD
ENDBRANCH   3  21
BRANCH   8  23
ATOM     23  O   UNL     1      -1.076  11.577  23.398  0.00  0.00    +0.000 OA
ATOM     24  H   UNL     1      -1.052  12.547  23.564  0.00  0.00    +0.000 HD
ENDBRANCH   8  23
TORSDOF 3
ENDMDL
MODEL 4
REMARK VINA RESULT:      -7.3      3.590      7.690
REMARK  Name = 
REMARK  5 active torsions:
REMARK  status: ('A' for Active; 'I' for Inactive)
REMARK    1  A    between atoms: C_1  and  C_2
REMARK    2  A    between atoms: C_3  and  O_4
REMARK    3  A    between atoms: C_5  and  C_6
REMARK    4  A    between atoms: C_9  and  O_10
REMARK    5  A    between atoms: C_14  and  C_15
REMARK                            x       y       z     vdW  Elec       q    Type
REMARK                         _______ _______ _______ _____ _____    ______ ____
ROOT
ATOM      1  C   UNL     1       4.624   3.094  17.156  0.00  0.00    +0.000 C 
ATOM      2  C   UNL     1       3.836   4.042  18.022  0.00  0.00    +0.000 A 
ATOM      3  C   UNL     1       3.125   3.657  19.175  0.00  0.00    +0.000 A 
ATOM      4  C   UNL     1       2.385   4.589  19.933  0.00  0.00    +0.000 A 
ATOM      5  C   UNL     1       1.625   4.177  21.169  0.00  0.00    +0.000 C 
ATOM      6  C   UNL     1       2.358   5.933  19.525  0.00  0.00    +0.000 A 
ATOM      7  C   UNL     1       3.042   6.327  18.376  0.00  0.00    +0.000 A 
ATOM      8  C   UNL     1       3.786   5.395  17.641  0.00  0.00    +0.000 A 
ATOM      9  C   UNL     1       2.908   7.726  17.925  0.00  0.00    +0.000 C 
ATOM     10  O   UNL     1       3.575   8.139  16.980  0.00  0.00    +0.000 OA
ATOM     11  C   UNL     1       1.876   8.557  18.623  0.00  0.00    +0.000 C 
ATOM     12  C   UNL     1       1.937   8.188  20.096  0.00  0.00    +0.000 C 
ATOM     13  O   UNL     1       1.611   6.801  20.284  0.00  0.00    +0.000 OA
ENDROOT
BRANCH  12  14
ATOM     14  C   UNL     1       0.969   9.041  20.901  0.00  0.00    +0.000 A 
ATOM     15  C   UNL     1       0.205  10.053  20.296  0.00  0.00    +0.000 A 
ATOM     16  C   UNL     1      -0.682  10.824  21.052  0.00  0.00    +0.000 A 
ATOM     17  C   UNL     1      -0.804  10.598  22.419  0.00  0.00    +0.000 A 
ATOM     18 CL   UNL     1      -1.907  11.537  23.347  0.00  0.00    +0.000 Cl
ATOM     19  C   UNL     1      -0.040   9.613  23.042  0.00  0.00    +0.000 A 
ATOM     20  C   UNL     1       0.846   8.839  22.286  0.00  0.00    +0.000 A 
ENDBRANCH  12  14
BRANCH   3  21
ATOM     21  O   UNL     1       3.104   2.364  19.624  0.00  0.00    +0.000 OA
ATOM     22  H   UNL     1       3.053   1.740  18.887  0.00  0.00    +0.000 HD
ENDBRANCH   3  21
BRANCH   8  23
ATOM     23  O   UNL     1       4.480   5.757  16.512  0.00  0.00    +0.000 OA
ATOM     24  H   UNL     1       3.939   5.525  15.723  0.00  0.00    +0.000 HD
ENDBRANCH   8  23
TORSDOF 3
ENDMDL
MODEL 5
REMARK VINA RESULT:      -7.0      3.800      8.063
REMARK  Name = 
REMARK  5 active torsions:
REMARK  status: ('A' for Active; 'I' for Inactive)
REMARK    1  A    between atoms: C_1  and  C_2
REMARK    2  A    between atoms: C_3  and  O_4
REMARK    3  A    between atoms: C_5  and  C_6
REMARK    4  A    between atoms: C_9  and  O_10
REMARK    5  A    between atoms: C_14  and  C_15
REMARK                            x       y       z     vdW  Elec       q    Type
REMARK                         _______ _______ _______ _____ _____    ______ ____
ROOT
ATOM      1  C   UNL     1       4.299   1.175  17.648  0.00  0.00    +0.000 C 
ATOM      2  C   UNL     1       3.614   2.431  18.117  0.00  0.00    +0.000 A 
ATOM      3  C   UNL     1       2.459   2.452  18.921  0.00  0.00    +0.000 A 
ATOM      4  C   UNL     1       1.848   3.664  19.309  0.00  0.00    +0.000 A 
ATOM      5  C   UNL     1       0.613   3.685  20.172  0.00  0.00    +0.000 C 
ATOM      6  C   UNL     1       2.409   4.878  18.880  0.00  0.00    +0.000 A 
ATOM      7  C   UNL     1       3.542   4.875  18.067  0.00  0.00    +0.000 A 
ATOM      8  C   UNL     1       4.148   3.665  17.703  0.00  0.00    +0.000 A 
ATOM      9  C   UNL     1       4.042   6.166  17.556  0.00  0.00    +0.000 C 
ATOM     10  O   UNL     1       5.095   6.217  16.925  0.00  0.00    +0.000 OA
ATOM     11  C   UNL     1       3.163   7.359  17.779  0.00  0.00    +0.000 C 
ATOM     12  C   UNL     1       2.577   7.218  19.175  0.00  0.00    +0.000 C 
ATOM     13  O   UNL     1       1.771   6.031  19.267  0.00  0.00    +0.000 OA
ENDROOT
BRANCH  12  14
ATOM     14  C   UNL     1       1.725   8.428  19.520  0.00  0.00    +0.000 A 
ATOM     15  C   UNL     1       1.459   9.432  18.575  0.00  0.00    +0.000 A 
ATOM     16  C   UNL     1       0.670  10.536  18.911  0.00  0.00    +0.000 A 
ATOM     17  C   UNL     1       0.151  10.650  20.197  0.00  0.00    +0.000 A 
ATOM     18 CL   UNL     1      -0.833  12.001  20.606  0.00  0.00    +0.000 Cl
ATOM     19  C   UNL     1       0.420   9.675  21.155  0.00  0.00    +0.000 A 
ATOM     20  C   UNL     1       1.207   8.570  20.819  0.00  0.00    +0.000 A 
ENDBRANCH  12  14
BRANCH   3  21
ATOM     21  O   UNL     1       1.858   1.306  19.369  0.00  0.00    +0.000 OA
ATOM     22  H   UNL     1       1.051   1.119  18.871  0.00  0.00    +0.000 HD
ENDBRANCH   3  21
BRANCH   8  23
ATOM     23  O   UNL     1       5.273   3.632  16.914  0.00  0.00    +0.000 OA
ATOM     24  H   UNL     1       5.931   3.029  17.329  0.00  0.00    +0.000 HD
ENDBRANCH   8  23
TORSDOF 3
ENDMDL
MODEL 6
REMARK VINA RESULT:      -7.0      1.060      1.563
REMARK  Name = 
REMARK  5 active torsions:
REMARK  status: ('A' for Active; 'I' for Inactive)
REMARK    1  A    between atoms: C_1  and  C_2
REMARK    2  A    between atoms: C_3  and  O_4
REMARK    3  A    between atoms: C_5  and  C_6
REMARK    4  A    between atoms: C_9  and  O_10
REMARK    5  A    between atoms: C_14  and  C_15
REMARK                            x       y       z     vdW  Elec       q    Type
REMARK                         _______ _______ _______ _____ _____    ______ ____
ROOT
ATOM      1  C   UNL     1      -3.657  13.371  20.588  0.00  0.00    +0.000 C 
ATOM      2  C   UNL     1      -2.682  12.338  20.089  0.00  0.00    +0.000 A 
ATOM      3  C   UNL     1      -2.709  11.781  18.797  0.00  0.00    +0.000 A 
ATOM      4  C   UNL     1      -1.781  10.797  18.395  0.00  0.00    +0.000 A 
ATOM      5  C   UNL     1      -1.809  10.203  17.009  0.00  0.00    +0.000 C 
ATOM      6  C   UNL     1      -0.807  10.364  19.310  0.00  0.00    +0.000 A 
ATOM      7  C   UNL     1      -0.778  10.891  20.600  0.00  0.00    +0.000 A 
ATOM      8  C   UNL     1      -1.694  11.880  20.981  0.00  0.00    +0.000 A 
ATOM      9  C   UNL     1       0.196  10.339  21.561  0.00  0.00    +0.000 C 
ATOM     10  O   UNL     1       0.325  10.846  22.673  0.00  0.00    +0.000 OA
ATOM     11  C   UNL     1       0.932   9.106  21.134  0.00  0.00    +0.000 C 
ATOM     12  C   UNL     1       1.266   9.282  19.661  0.00  0.00    +0.000 C 
ATOM     13  O   UNL     1       0.064   9.392  18.881  0.00  0.00    +0.000 OA
ENDROOT
BRANCH  12  14
ATOM     14  C   UNL     1       2.084   8.105  19.155  0.00  0.00    +0.000 A 
ATOM     15  C   UNL     1       2.703   8.131  17.894  0.00  0.00    +0.000 A 
ATOM     16  C   UNL     1       3.454   7.040  17.447  0.00  0.00    +0.000 A 
ATOM     17  C   UNL     1       3.582   5.912  18.251  0.00  0.00    +0.000 A 
ATOM     18 CL   UNL     1       4.519   4.575  17.707  0.00  0.00    +0.000 Cl
ATOM     19  C   UNL     1       2.958   5.858  19.495  0.00  0.00    +0.000 A 
ATOM     20  C   UNL     1       2.209   6.950  19.945  0.00  0.00    +0.000 A 
ENDBRANCH  12  14
BRANCH   3  21
ATOM     21  O   UNL     1      -3.634  12.153  17.859  0.00  0.00    +0.000 OA
ATOM     22  H   UNL     1      -3.855  13.091  17.940  0.00  0.00    +0.000 HD
ENDBRANCH   3  21
BRANCH   8  23
ATOM     23  O   UNL     1      -1.681  12.427  22.241  0.00  0.00    +0.000 OA
ATOM     24  H   UNL     1      -1.416  11.730  22.884  0.00  0.00    +0.000 HD
ENDBRANCH   8  23
TORSDOF 3
ENDMDL
MODEL 7
REMARK VINA RESULT:      -6.9      3.804      8.012
REMARK  Name = 
REMARK  5 active torsions:
REMARK  status: ('A' for Active; 'I' for Inactive)
REMARK    1  A    between atoms: C_1  and  C_2
REMARK    2  A    between atoms: C_3  and  O_4
REMARK    3  A    between atoms: C_5  and  C_6
REMARK    4  A    between atoms: C_9  and  O_10
REMARK    5  A    between atoms: C_14  and  C_15
REMARK                            x       y       z     vdW  Elec       q    Type
REMARK                         _______ _______ _______ _____ _____    ______ ____
ROOT
ATOM      1  C   UNL     1       4.357   1.213  17.522  0.00  0.00    +0.000 C 
ATOM      2  C   UNL     1       3.663   2.456  18.010  0.00  0.00    +0.000 A 
ATOM      3  C   UNL     1       2.500   2.456  18.803  0.00  0.00    +0.000 A 
ATOM      4  C   UNL     1       1.880   3.657  19.210  0.00  0.00    +0.000 A 
ATOM      5  C   UNL     1       0.636   3.655  20.062  0.00  0.00    +0.000 C 
ATOM      6  C   UNL     1       2.441   4.882  18.813  0.00  0.00    +0.000 A 
ATOM      7  C   UNL     1       3.582   4.900  18.012  0.00  0.00    +0.000 A 
ATOM      8  C   UNL     1       4.196   3.701  17.628  0.00  0.00    +0.000 A 
ATOM      9  C   UNL     1       4.081   6.204  17.533  0.00  0.00    +0.000 C 
ATOM     10  O   UNL     1       5.140   6.272  16.914  0.00  0.00    +0.000 OA
ATOM     11  C   UNL     1       3.196   7.388  17.773  0.00  0.00    +0.000 C 
ATOM     12  C   UNL     1       2.597   7.215  19.159  0.00  0.00    +0.000 C 
ATOM     13  O   UNL     1       1.795   6.025  19.218  0.00  0.00    +0.000 OA
ENDROOT
BRANCH  12  14
ATOM     14  C   UNL     1       1.736   8.415  19.522  0.00  0.00    +0.000 A 
ATOM     15  C   UNL     1       1.173   8.554  20.801  0.00  0.00    +0.000 A 
ATOM     16  C   UNL     1       0.387   9.665  21.117  0.00  0.00    +0.000 A 
ATOM     17  C   UNL     1       0.149  10.640  20.154  0.00  0.00    +0.000 A 
ATOM     18 CL   UNL     1      -0.806  12.017  20.547  0.00  0.00    +0.000 Cl
ATOM     19  C   UNL     1       0.680  10.511  18.873  0.00  0.00    +0.000 A 
ATOM     20  C   UNL     1       1.469   9.400  18.556  0.00  0.00    +0.000 A 
ENDBRANCH  12  14
BRANCH   3  21
ATOM     21  O   UNL     1       1.899   1.298  19.220  0.00  0.00    +0.000 OA
ATOM     22  H   UNL     1       1.530   0.809  18.473  0.00  0.00    +0.000 HD
ENDBRANCH   3  21
BRANCH   8  23
ATOM     23  O   UNL     1       5.328   3.689  16.850  0.00  0.00    +0.000 OA
ATOM     24  H   UNL     1       5.060   3.623  15.905  0.00  0.00    +0.000 HD
ENDBRANCH   8  23
TORSDOF 3
ENDMDL
MODEL 8
REMARK VINA RESULT:      -6.8      3.995      7.666
REMARK  Name = 
REMARK  5 active torsions:
REMARK  status: ('A' for Active; 'I' for Inactive)
REMARK    1  A    between atoms: C_1  and  C_2
REMARK    2  A    between atoms: C_3  and  O_4
REMARK    3  A    between atoms: C_5  and  C_6
REMARK    4  A    between atoms: C_9  and  O_10
REMARK    5  A    between atoms: C_14  and  C_15
REMARK                            x       y       z     vdW  Elec       q    Type
REMARK                         _______ _______ _______ _____ _____    ______ ____
ROOT
ATOM      1  C   UNL     1       4.153   1.367  18.170  0.00  0.00    +0.000 C 
ATOM      2  C   UNL     1       3.860   2.844  18.148  0.00  0.00    +0.000 A 
ATOM      3  C   UNL     1       4.492   3.765  17.292  0.00  0.00    +0.000 A 
ATOM      4  C   UNL     1       4.191   5.143  17.335  0.00  0.00    +0.000 A 
ATOM      5  C   UNL     1       4.867   6.129  16.415  0.00  0.00    +0.000 C 
ATOM      6  C   UNL     1       3.237   5.605  18.257  0.00  0.00    +0.000 A 
ATOM      7  C   UNL     1       2.615   4.708  19.126  0.00  0.00    +0.000 A 
ATOM      8  C   UNL     1       2.911   3.341  19.061  0.00  0.00    +0.000 A 
ATOM      9  C   UNL     1       1.694   5.245  20.146  0.00  0.00    +0.000 C 
ATOM     10  O   UNL     1       1.048   4.483  20.860  0.00  0.00    +0.000 OA
ATOM     11  C   UNL     1       1.665   6.735  20.303  0.00  0.00    +0.000 C 
ATOM     12  C   UNL     1       1.752   7.326  18.905  0.00  0.00    +0.000 C 
ATOM     13  O   UNL     1       2.989   6.956  18.276  0.00  0.00    +0.000 OA
ENDROOT
BRANCH  12  14
ATOM     14  C   UNL     1       1.654   8.842  18.959  0.00  0.00    +0.000 A 
ATOM     15  C   UNL     1       0.994   9.497  20.013  0.00  0.00    +0.000 A 
ATOM     16  C   UNL     1       0.917  10.892  20.047  0.00  0.00    +0.000 A 
ATOM     17  C   UNL     1       1.488  11.642  19.023  0.00  0.00    +0.000 A 
ATOM     18 CL   UNL     1       1.407  13.360  19.074  0.00  0.00    +0.000 Cl
ATOM     19  C   UNL     1       2.129  11.011  17.960  0.00  0.00    +0.000 A 
ATOM     20  C   UNL     1       2.208   9.615  17.926  0.00  0.00    +0.000 A 
ENDBRANCH  12  14
BRANCH   3  21
ATOM     21  O   UNL     1       5.434   3.384  16.374  0.00  0.00    +0.000 OA
ATOM     22  H   UNL     1       5.394   3.938  15.583  0.00  0.00    +0.000 HD
ENDBRANCH   3  21
BRANCH   8  23
ATOM     23  O   UNL     1       2.305   2.433  19.895  0.00  0.00    +0.000 OA
ATOM     24  H   UNL     1       1.331   2.481  19.759  0.00  0.00    +0.000 HD
ENDBRANCH   8  23
TORSDOF 3
ENDMDL
MODEL 9
REMARK VINA RESULT:      -6.7      4.000      7.729
REMARK  Name = 
REMARK  5 active torsions:
REMARK  status: ('A' for Active; 'I' for Inactive)
REMARK    1  A    between atoms: C_1  and  C_2
REMARK    2  A    between atoms: C_3  and  O_4
REMARK    3  A    between atoms: C_5  and  C_6
REMARK    4  A    between atoms: C_9  and  O_10
REMARK    5  A    between atoms: C_14  and  C_15
REMARK                            x       y       z     vdW  Elec       q    Type
REMARK                         _______ _______ _______ _____ _____    ______ ____
ROOT
ATOM      1  C   UNL     1       4.130   1.340  18.191  0.00  0.00    +0.000 C 
ATOM      2  C   UNL     1       3.842   2.818  18.159  0.00  0.00    +0.000 A 
ATOM      3  C   UNL     1       4.474   3.730  17.293  0.00  0.00    +0.000 A 
ATOM      4  C   UNL     1       4.178   5.110  17.326  0.00  0.00    +0.000 A 
ATOM      5  C   UNL     1       4.854   6.086  16.396  0.00  0.00    +0.000 C 
ATOM      6  C   UNL     1       3.228   5.581  18.247  0.00  0.00    +0.000 A 
ATOM      7  C   UNL     1       2.606   4.694  19.125  0.00  0.00    +0.000 A 
ATOM      8  C   UNL     1       2.898   3.325  19.070  0.00  0.00    +0.000 A 
ATOM      9  C   UNL     1       1.690   5.242  20.143  0.00  0.00    +0.000 C 
ATOM     10  O   UNL     1       1.043   4.487  20.866  0.00  0.00    +0.000 OA
ATOM     11  C   UNL     1       1.666   6.733  20.289  0.00  0.00    +0.000 C 
ATOM     12  C   UNL     1       1.750   7.312  18.886  0.00  0.00    +0.000 C 
ATOM     13  O   UNL     1       2.984   6.933  18.256  0.00  0.00    +0.000 OA
ENDROOT
BRANCH  12  14
ATOM     14  C   UNL     1       1.657   8.829  18.929  0.00  0.00    +0.000 A 
ATOM     15  C   UNL     1       2.224   9.628  17.921  0.00  0.00    +0.000 A 
ATOM     16  C   UNL     1       2.126  11.020  17.976  0.00  0.00    +0.000 A 
ATOM     17  C   UNL     1       1.469  11.626  19.043  0.00  0.00    +0.000 A 
ATOM     18 CL   UNL     1       1.334  13.341  19.103  0.00  0.00    +0.000 Cl
ATOM     19  C   UNL     1       0.918  10.853  20.063  0.00  0.00    +0.000 A 
ATOM     20  C   UNL     1       1.014   9.459  20.008  0.00  0.00    +0.000 A 
ENDBRANCH  12  14
BRANCH   3  21
ATOM     21  O   UNL     1       5.413   3.339  16.376  0.00  0.00    +0.000 OA
ATOM     22  H   UNL     1       5.237   2.442  16.059  0.00  0.00    +0.000 HD
ENDBRANCH   3  21
BRANCH   8  23
ATOM     23  O   UNL     1       2.291   2.426  19.914  0.00  0.00    +0.000 OA
ATOM     24  H   UNL     1       2.091   2.878  20.765  0.00  0.00    +0.000 HD
ENDBRANCH   8  23
TORSDOF 3
ENDMDL
