MODEL 1
REMARK VINA RESULT:      -7.6      0.000      0.000
REMARK  Name = 
REMARK  1 active torsions:
REMARK  status: ('A' for Active; 'I' for Inactive)
REMARK    1  A    between atoms: C_6  and  C_7
REMARK                            x       y       z     vdW  Elec       q    Type
REMARK                         _______ _______ _______ _____ _____    ______ ____
ROOT
ATOM      1  C   UNL     1       5.725   4.062  17.281  0.00  0.00    +0.000 A 
ATOM      2  N   UNL     1       6.362   4.375  18.390  0.00  0.00    +0.000 NA
ATOM      3  N   UNL     1       5.523   4.069  19.447  0.00  0.00    +0.000 NA
ATOM      4  C   UNL     1       4.417   3.542  18.962  0.00  0.00    +0.000 A 
ATOM      5  N   UNL     1       3.279   3.166  19.583  0.00  0.00    +0.000 N 
ATOM      6  C   UNL     1       2.427   2.075  19.104  0.00  0.00    +0.000 C 
ATOM      7  C   UNL     1       0.966   2.440  19.406  0.00  0.00    +0.000 C 
ATOM      8  O   UNL     1       0.768   2.688  20.809  0.00  0.00    +0.000 OA
ATOM      9  C   UNL     1       1.626   3.752  21.268  0.00  0.00    +0.000 C 
ATOM     10  C   UNL     1       3.111   3.437  21.016  0.00  0.00    +0.000 C 
ATOM     11  N   UNL     1       4.514   3.529  17.600  0.00  0.00    +0.000 N 
ATOM     12  H   UNL     1       3.801   3.261  16.943  0.00  0.00    +0.000 HD
ENDROOT
BRANCH   1  18
ATOM     13  C   UNL     1       7.766   4.981  11.711  0.00  0.00    +0.000 A 
ATOM     14  C   UNL     1       6.869   3.939  11.462  0.00  0.00    +0.000 A 
ATOM     15  C   UNL     1       6.119   3.367  12.494  0.00  0.00    +0.000 A 
ATOM     16  C   UNL     1       6.319   3.891  13.770  0.00  0.00    +0.000 A 
ATOM     17  O   UNL     1       5.700   3.472  14.904  0.00  0.00    +0.000 OA
ATOM     18  C   UNL     1       6.166   4.242  15.943  0.00  0.00    +0.000 A 
ATOM     19  C   UNL     1       7.082   5.156  15.453  0.00  0.00    +0.000 A 
ATOM     20  C   UNL     1       7.196   4.930  14.055  0.00  0.00    +0.000 A 
ATOM     21  C   UNL     1       7.941   5.490  13.005  0.00  0.00    +0.000 A 
ENDBRANCH   1  18
TORSDOF 1
ENDMDL
MODEL 2
REMARK VINA RESULT:      -7.2      4.387      8.421
REMARK  Name = 
REMARK  1 active torsions:
REMARK  status: ('A' for Active; 'I' for Inactive)
REMARK    1  A    between atoms: C_6  and  C_7
REMARK                            x       y       z     vdW  Elec       q    Type
REMARK                         _______ _______ _______ _____ _____    ______ ____
ROOT
ATOM      1  C   UNL     1       2.450   6.477  18.998  0.00  0.00    +0.000 A 
ATOM      2  N   UNL     1       1.898   5.630  18.157  0.00  0.00    +0.000 NA
ATOM      3  N   UNL     1       2.918   4.891  17.586  0.00  0.00    +0.000 NA
ATOM      4  C   UNL     1       4.059   5.276  18.120  0.00  0.00    +0.000 A 
ATOM      5  N   UNL     1       5.328   4.915  17.832  0.00  0.00    +0.000 N 
ATOM      6  C   UNL     1       6.402   4.894  18.830  0.00  0.00    +0.000 C 
ATOM      7  C   UNL     1       7.709   5.299  18.134  0.00  0.00    +0.000 C 
ATOM      8  O   UNL     1       8.003   4.432  17.024  0.00  0.00    +0.000 OA
ATOM      9  C   UNL     1       6.929   4.451  16.060  0.00  0.00    +0.000 C 
ATOM     10  C   UNL     1       5.589   4.029  16.691  0.00  0.00    +0.000 C 
ATOM     11  N   UNL     1       3.796   6.277  19.010  0.00  0.00    +0.000 N 
ATOM     12  H   UNL     1       4.466   6.828  19.519  0.00  0.00    +0.000 HD
ENDROOT
BRANCH   1  18
ATOM     13  C   UNL     1      -0.253  10.530  22.507  0.00  0.00    +0.000 A 
ATOM     14  C   UNL     1      -0.074  11.301  21.354  0.00  0.00    +0.000 A 
ATOM     15  C   UNL     1       0.536  10.768  20.215  0.00  0.00    +0.000 A 
ATOM     16  C   UNL     1       0.950   9.440  20.296  0.00  0.00    +0.000 A 
ATOM     17  O   UNL     1       1.569   8.741  19.309  0.00  0.00    +0.000 OA
ATOM     18  C   UNL     1       1.807   7.472  19.781  0.00  0.00    +0.000 A 
ATOM     19  C   UNL     1       1.327   7.375  21.075  0.00  0.00    +0.000 A 
ATOM     20  C   UNL     1       0.783   8.641  21.421  0.00  0.00    +0.000 A 
ATOM     21  C   UNL     1       0.171   9.195  22.556  0.00  0.00    +0.000 A 
ENDBRANCH   1  18
TORSDOF 1
ENDMDL
MODEL 3
REMARK VINA RESULT:      -7.1      0.637      1.323
REMARK  Name = 
REMARK  1 active torsions:
REMARK  status: ('A' for Active; 'I' for Inactive)
REMARK    1  A    between atoms: C_6  and  C_7
REMARK                            x       y       z     vdW  Elec       q    Type
REMARK                         _______ _______ _______ _____ _____    ______ ____
ROOT
ATOM      1  C   UNL     1       5.728   4.022  17.237  0.00  0.00    +0.000 A 
ATOM      2  N   UNL     1       6.389   4.366  18.321  0.00  0.00    +0.000 NA
ATOM      3  N   UNL     1       5.575   4.088  19.406  0.00  0.00    +0.000 NA
ATOM      4  C   UNL     1       4.460   3.547  18.961  0.00  0.00    +0.000 A 
ATOM      5  N   UNL     1       3.337   3.186  19.618  0.00  0.00    +0.000 N 
ATOM      6  C   UNL     1       2.476   2.081  19.189  0.00  0.00    +0.000 C 
ATOM      7  C   UNL     1       1.022   2.453  19.514  0.00  0.00    +0.000 C 
ATOM      8  O   UNL     1       0.855   2.738  20.915  0.00  0.00    +0.000 OA
ATOM      9  C   UNL     1       1.722   3.816  21.325  0.00  0.00    +0.000 C 
ATOM     10  C   UNL     1       3.202   3.496  21.047  0.00  0.00    +0.000 C 
ATOM     11  N   UNL     1       4.525   3.497  17.598  0.00  0.00    +0.000 N 
ATOM     12  H   UNL     1       3.798   3.209  16.966  0.00  0.00    +0.000 HD
ENDROOT
BRANCH   1  18
ATOM     13  C   UNL     1       7.272   4.476  11.454  0.00  0.00    +0.000 A 
ATOM     14  C   UNL     1       8.111   5.453  11.997  0.00  0.00    +0.000 A 
ATOM     15  C   UNL     1       8.114   5.724  13.368  0.00  0.00    +0.000 A 
ATOM     16  C   UNL     1       7.241   4.970  14.151  0.00  0.00    +0.000 A 
ATOM     17  O   UNL     1       7.084   5.083  15.496  0.00  0.00    +0.000 OA
ATOM     18  C   UNL     1       6.137   4.166  15.885  0.00  0.00    +0.000 A 
ATOM     19  C   UNL     1       5.702   3.467  14.773  0.00  0.00    +0.000 A 
ATOM     20  C   UNL     1       6.398   3.986  13.648  0.00  0.00    +0.000 A 
ATOM     21  C   UNL     1       6.408   3.731  12.268  0.00  0.00    +0.000 A 
ENDBRANCH   1  18
TORSDOF 1
ENDMDL
MODEL 4
REMARK VINA RESULT:      -7.1      4.472      8.461
REMARK  Name = 
REMARK  1 active torsions:
REMARK  status: ('A' for Active; 'I' for Inactive)
REMARK    1  A    between atoms: C_6  and  C_7
REMARK                            x       y       z     vdW  Elec       q    Type
REMARK                         _______ _______ _______ _____ _____    ______ ____
ROOT
ATOM      1  C   UNL     1       2.443   6.680  18.948  0.00  0.00    +0.000 A 
ATOM      2  N   UNL     1       1.897   5.786  18.152  0.00  0.00    +0.000 NA
ATOM      3  N   UNL     1       2.920   5.001  17.651  0.00  0.00    +0.000 NA
ATOM      4  C   UNL     1       4.054   5.407  18.183  0.00  0.00    +0.000 A 
ATOM      5  N   UNL     1       5.324   5.014  17.946  0.00  0.00    +0.000 N 
ATOM      6  C   UNL     1       6.377   5.046  18.965  0.00  0.00    +0.000 C 
ATOM      7  C   UNL     1       7.703   5.391  18.271  0.00  0.00    +0.000 C 
ATOM      8  O   UNL     1       8.008   4.450  17.226  0.00  0.00    +0.000 OA
ATOM      9  C   UNL     1       6.955   4.418  16.242  0.00  0.00    +0.000 C 
ATOM     10  C   UNL     1       5.597   4.053  16.870  0.00  0.00    +0.000 C 
ATOM     11  N   UNL     1       3.786   6.467  19.001  0.00  0.00    +0.000 N 
ATOM     12  H   UNL     1       4.452   7.042  19.487  0.00  0.00    +0.000 HD
ENDROOT
BRANCH   1  18
ATOM     13  C   UNL     1      -0.304  11.252  21.704  0.00  0.00    +0.000 A 
ATOM     14  C   UNL     1      -0.318  10.313  22.739  0.00  0.00    +0.000 A 
ATOM     15  C   UNL     1       0.234   9.040  22.569  0.00  0.00    +0.000 A 
ATOM     16  C   UNL     1       0.792   8.768  21.321  0.00  0.00    +0.000 A 
ATOM     17  O   UNL     1       1.369   7.595  20.950  0.00  0.00    +0.000 OA
ATOM     18  C   UNL     1       1.796   7.731  19.651  0.00  0.00    +0.000 A 
ATOM     19  C   UNL     1       1.489   9.005  19.207  0.00  0.00    +0.000 A 
ATOM     20  C   UNL     1       0.831   9.677  20.271  0.00  0.00    +0.000 A 
ATOM     21  C   UNL     1       0.269  10.949  20.461  0.00  0.00    +0.000 A 
ENDBRANCH   1  18
TORSDOF 1
ENDMDL
MODEL 5
REMARK VINA RESULT:      -7.1      5.628      7.293
REMARK  Name = 
REMARK  1 active torsions:
REMARK  status: ('A' for Active; 'I' for Inactive)
REMARK    1  A    between atoms: C_6  and  C_7
REMARK                            x       y       z     vdW  Elec       q    Type
REMARK                         _______ _______ _______ _____ _____    ______ ____
ROOT
ATOM      1  C   UNL     1       2.309   7.717  18.398  0.00  0.00    +0.000 A 
ATOM      2  N   UNL     1       2.507   8.512  17.368  0.00  0.00    +0.000 NA
ATOM      3  N   UNL     1       1.937   9.735  17.676  0.00  0.00    +0.000 NA
ATOM      4  C   UNL     1       1.444   9.669  18.896  0.00  0.00    +0.000 A 
ATOM      5  N   UNL     1       0.726  10.569  19.601  0.00  0.00    +0.000 N 
ATOM      6  C   UNL     1       0.778  10.668  21.062  0.00  0.00    +0.000 C 
ATOM      7  C   UNL     1      -0.618  11.063  21.565  0.00  0.00    +0.000 C 
ATOM      8  O   UNL     1      -1.061  12.295  20.967  0.00  0.00    +0.000 OA
ATOM      9  C   UNL     1      -1.090  12.186  19.529  0.00  0.00    +0.000 C 
ATOM     10  C   UNL     1       0.290  11.814  18.957  0.00  0.00    +0.000 C 
ATOM     11  N   UNL     1       1.659   8.408  19.374  0.00  0.00    +0.000 N 
ATOM     12  H   UNL     1       1.330   8.025  20.244  0.00  0.00    +0.000 HD
ENDROOT
BRANCH   1  18
ATOM     13  C   UNL     1       3.972   1.998  19.146  0.00  0.00    +0.000 A 
ATOM     14  C   UNL     1       3.056   1.840  18.102  0.00  0.00    +0.000 A 
ATOM     15  C   UNL     1       2.380   2.937  17.560  0.00  0.00    +0.000 A 
ATOM     16  C   UNL     1       2.672   4.182  18.116  0.00  0.00    +0.000 A 
ATOM     17  O   UNL     1       2.120   5.365  17.742  0.00  0.00    +0.000 OA
ATOM     18  C   UNL     1       2.672   6.350  18.526  0.00  0.00    +0.000 A 
ATOM     19  C   UNL     1       3.583   5.777  19.396  0.00  0.00    +0.000 A 
ATOM     20  C   UNL     1       3.581   4.378  19.148  0.00  0.00    +0.000 A 
ATOM     21  C   UNL     1       4.248   3.264  19.681  0.00  0.00    +0.000 A 
ENDBRANCH   1  18
TORSDOF 1
ENDMDL
MODEL 6
REMARK VINA RESULT:      -7.0      5.594      7.362
REMARK  Name = 
REMARK  1 active torsions:
REMARK  status: ('A' for Active; 'I' for Inactive)
REMARK    1  A    between atoms: C_6  and  C_7
REMARK                            x       y       z     vdW  Elec       q    Type
REMARK                         _______ _______ _______ _____ _____    ______ ____
ROOT
ATOM      1  C   UNL     1       2.292   7.605  18.334  0.00  0.00    +0.000 A 
ATOM      2  N   UNL     1       2.590   8.424  17.348  0.00  0.00    +0.000 NA
ATOM      3  N   UNL     1       2.086   9.669  17.680  0.00  0.00    +0.000 NA
ATOM      4  C   UNL     1       1.531   9.589  18.872  0.00  0.00    +0.000 A 
ATOM      5  N   UNL     1       0.839  10.507  19.581  0.00  0.00    +0.000 N 
ATOM      6  C   UNL     1       0.828  10.547  21.046  0.00  0.00    +0.000 C 
ATOM      7  C   UNL     1      -0.562  11.013  21.501  0.00  0.00    +0.000 C 
ATOM      8  O   UNL     1      -0.897  12.293  20.935  0.00  0.00    +0.000 OA
ATOM      9  C   UNL     1      -0.864  12.241  19.494  0.00  0.00    +0.000 C 
ATOM     10  C   UNL     1       0.515  11.801  18.970  0.00  0.00    +0.000 C 
ATOM     11  N   UNL     1       1.642   8.299  19.307  0.00  0.00    +0.000 N 
ATOM     12  H   UNL     1       1.248   7.906  20.145  0.00  0.00    +0.000 HD
ENDROOT
BRANCH   1  18
ATOM     13  C   UNL     1       3.258   1.683  18.520  0.00  0.00    +0.000 A 
ATOM     14  C   UNL     1       4.279   2.112  19.371  0.00  0.00    +0.000 A 
ATOM     15  C   UNL     1       4.463   3.469  19.654  0.00  0.00    +0.000 A 
ATOM     16  C   UNL     1       3.578   4.356  19.043  0.00  0.00    +0.000 A 
ATOM     17  O   UNL     1       3.591   5.707  19.177  0.00  0.00    +0.000 OA
ATOM     18  C   UNL     1       2.560   6.213  18.422  0.00  0.00    +0.000 A 
ATOM     19  C   UNL     1       1.891   5.166  17.813  0.00  0.00    +0.000 A 
ATOM     20  C   UNL     1       2.547   3.965  18.197  0.00  0.00    +0.000 A 
ATOM     21  C   UNL     1       2.380   2.599  17.924  0.00  0.00    +0.000 A 
ENDBRANCH   1  18
TORSDOF 1
ENDMDL
MODEL 7
REMARK VINA RESULT:      -7.0      6.027      9.564
REMARK  Name = 
REMARK  1 active torsions:
REMARK  status: ('A' for Active; 'I' for Inactive)
REMARK    1  A    between atoms: C_6  and  C_7
REMARK                            x       y       z     vdW  Elec       q    Type
REMARK                         _______ _______ _______ _____ _____    ______ ____
ROOT
ATOM      1  C   UNL     1       1.553   9.015  18.936  0.00  0.00    +0.000 A 
ATOM      2  N   UNL     1       1.846   9.432  17.723  0.00  0.00    +0.000 NA
ATOM      3  N   UNL     1       2.731   8.520  17.176  0.00  0.00    +0.000 NA
ATOM      4  C   UNL     1       2.924   7.553  18.050  0.00  0.00    +0.000 A 
ATOM      5  N   UNL     1       3.757   6.491  18.012  0.00  0.00    +0.000 N 
ATOM      6  C   UNL     1       3.459   5.215  18.669  0.00  0.00    +0.000 C 
ATOM      7  C   UNL     1       4.780   4.620  19.178  0.00  0.00    +0.000 C 
ATOM      8  O   UNL     1       5.728   4.455  18.109  0.00  0.00    +0.000 OA
ATOM      9  C   UNL     1       5.996   5.716  17.462  0.00  0.00    +0.000 C 
ATOM     10  C   UNL     1       4.712   6.357  16.905  0.00  0.00    +0.000 C 
ATOM     11  N   UNL     1       2.199   7.840  19.171  0.00  0.00    +0.000 N 
ATOM     12  H   UNL     1       2.199   7.335  20.040  0.00  0.00    +0.000 HD
ENDROOT
BRANCH   1  18
ATOM     13  C   UNL     1      -1.842  11.560  23.184  0.00  0.00    +0.000 A 
ATOM     14  C   UNL     1      -2.198  12.356  22.092  0.00  0.00    +0.000 A 
ATOM     15  C   UNL     1      -1.648  12.137  20.825  0.00  0.00    +0.000 A 
ATOM     16  C   UNL     1      -0.733  11.090  20.719  0.00  0.00    +0.000 A 
ATOM     17  O   UNL     1      -0.080  10.720  19.587  0.00  0.00    +0.000 OA
ATOM     18  C   UNL     1       0.724   9.650  19.899  0.00  0.00    +0.000 A 
ATOM     19  C   UNL     1       0.568   9.343  21.239  0.00  0.00    +0.000 A 
ATOM     20  C   UNL     1      -0.360  10.274  21.780  0.00  0.00    +0.000 A 
ATOM     21  C   UNL     1      -0.922  10.511  23.044  0.00  0.00    +0.000 A 
ENDBRANCH   1  18
TORSDOF 1
ENDMDL
MODEL 8
REMARK VINA RESULT:      -6.9      5.296      6.660
REMARK  Name = 
REMARK  1 active torsions:
REMARK  status: ('A' for Active; 'I' for Inactive)
REMARK    1  A    between atoms: C_6  and  C_7
REMARK                            x       y       z     vdW  Elec       q    Type
REMARK                         _______ _______ _______ _____ _____    ______ ____
ROOT
ATOM      1  C   UNL     1       7.403   7.744  17.397  0.00  0.00    +0.000 A 
ATOM      2  N   UNL     1       7.853   6.896  16.496  0.00  0.00    +0.000 NA
ATOM      3  N   UNL     1       6.891   5.914  16.338  0.00  0.00    +0.000 NA
ATOM      4  C   UNL     1       5.866   6.207  17.112  0.00  0.00    +0.000 A 
ATOM      5  N   UNL     1       4.734   5.517  17.367  0.00  0.00    +0.000 N 
ATOM      6  C   UNL     1       3.460   6.161  17.696  0.00  0.00    +0.000 C 
ATOM      7  C   UNL     1       2.718   5.267  18.700  0.00  0.00    +0.000 C 
ATOM      8  O   UNL     1       2.520   3.942  18.176  0.00  0.00    +0.000 OA
ATOM      9  C   UNL     1       3.782   3.329  17.841  0.00  0.00    +0.000 C 
ATOM     10  C   UNL     1       4.568   4.167  16.816  0.00  0.00    +0.000 C 
ATOM     11  N   UNL     1       6.162   7.352  17.795  0.00  0.00    +0.000 N 
ATOM     12  H   UNL     1       5.615   7.786  18.519  0.00  0.00    +0.000 HD
ENDROOT
BRANCH   1  18
ATOM     13  C   UNL     1      10.313  12.424  19.778  0.00  0.00    +0.000 A 
ATOM     14  C   UNL     1       9.685  13.061  18.705  0.00  0.00    +0.000 A 
ATOM     15  C   UNL     1       8.860  12.354  17.825  0.00  0.00    +0.000 A 
ATOM     16  C   UNL     1       8.705  10.992  18.080  0.00  0.00    +0.000 A 
ATOM     17  O   UNL     1       7.958  10.128  17.343  0.00  0.00    +0.000 OA
ATOM     18  C   UNL     1       8.062   8.887  17.923  0.00  0.00    +0.000 A 
ATOM     19  C   UNL     1       8.878   8.975  19.037  0.00  0.00    +0.000 A 
ATOM     20  C   UNL     1       9.307  10.326  19.140  0.00  0.00    +0.000 A 
ATOM     21  C   UNL     1      10.133  11.053  20.011  0.00  0.00    +0.000 A 
ENDBRANCH   1  18
TORSDOF 1
ENDMDL
MODEL 9
REMARK VINA RESULT:      -6.9      5.912      9.380
REMARK  Name = 
REMARK  1 active torsions:
REMARK  status: ('A' for Active; 'I' for Inactive)
REMARK    1  A    between atoms: C_6  and  C_7
REMARK                            x       y       z     vdW  Elec       q    Type
REMARK                         _______ _______ _______ _____ _____    ______ ____
ROOT
ATOM      1  C   UNL     1       1.653   8.954  18.785  0.00  0.00    +0.000 A 
ATOM      2  N   UNL     1       2.052   9.300  17.581  0.00  0.00    +0.000 NA
ATOM      3  N   UNL     1       2.909   8.312  17.130  0.00  0.00    +0.000 NA
ATOM      4  C   UNL     1       2.979   7.371  18.051  0.00  0.00    +0.000 A 
ATOM      5  N   UNL     1       3.741   6.258  18.110  0.00  0.00    +0.000 N 
ATOM      6  C   UNL     1       3.317   5.032  18.792  0.00  0.00    +0.000 C 
ATOM      7  C   UNL     1       4.558   4.376  19.414  0.00  0.00    +0.000 C 
ATOM      8  O   UNL     1       5.562   4.107  18.418  0.00  0.00    +0.000 OA
ATOM      9  C   UNL     1       5.956   5.320  17.746  0.00  0.00    +0.000 C 
ATOM     10  C   UNL     1       4.756   6.018  17.078  0.00  0.00    +0.000 C 
ATOM     11  N   UNL     1       2.202   7.751  19.107  0.00  0.00    +0.000 N 
ATOM     12  H   UNL     1       2.111   7.283  19.993  0.00  0.00    +0.000 HD
ENDROOT
BRANCH   1  18
ATOM     13  C   UNL     1      -2.026  12.142  22.299  0.00  0.00    +0.000 A 
ATOM     14  C   UNL     1      -1.532  11.235  23.240  0.00  0.00    +0.000 A 
ATOM     15  C   UNL     1      -0.602  10.254  22.882  0.00  0.00    +0.000 A 
ATOM     16  C   UNL     1      -0.203  10.236  21.547  0.00  0.00    +0.000 A 
ATOM     17  O   UNL     1       0.679   9.362  20.995  0.00  0.00    +0.000 OA
ATOM     18  C   UNL     1       0.805   9.679  19.664  0.00  0.00    +0.000 A 
ATOM     19  C   UNL     1      -0.003  10.767  19.381  0.00  0.00    +0.000 A 
ATOM     20  C   UNL     1      -0.666  11.125  20.585  0.00  0.00    +0.000 A 
ATOM     21  C   UNL     1      -1.601  12.101  20.964  0.00  0.00    +0.000 A 
ENDBRANCH   1  18
TORSDOF 1
ENDMDL
