MODEL 1
REMARK VINA RESULT:      -9.2      0.000      0.000
REMARK  Name = 
REMARK  3 active torsions:
REMARK  status: ('A' for Active; 'I' for Inactive)
REMARK    1  A    between atoms: C_1  and  C_2
REMARK    2  A    between atoms: C_5  and  C_6
REMARK    3  A    between atoms: C_6  and  N_7
REMARK                            x       y       z     vdW  Elec       q    Type
REMARK                         _______ _______ _______ _____ _____    ______ ____
ROOT
ATOM      1  N   UNL     1       2.219   6.417  19.587  0.00  0.00    +0.000 N 
ATOM      2  C   UNL     1       1.371   5.870  20.500  0.00  0.00    +0.000 A 
ATOM      3  C   UNL     1       1.188   4.492  20.643  0.00  0.00    +0.000 A 
ATOM      4  C   UNL     1       1.859   3.623  19.781  0.00  0.00    +0.000 A 
ATOM      5  C   UNL     1       1.769   2.222  19.720  0.00  0.00    +0.000 A 
ATOM      6  C   UNL     1       2.505   1.549  18.741  0.00  0.00    +0.000 A 
ATOM      7  N   UNL     1       3.323   2.144  17.836  0.00  0.00    +0.000 NA
ATOM      8  C   UNL     1       3.409   3.522  17.917  0.00  0.00    +0.000 A 
ATOM      9  C   UNL     1       2.695   4.220  18.881  0.00  0.00    +0.000 A 
ATOM     10  C   UNL     1       2.895   5.602  18.774  0.00  0.00    +0.000 A 
ATOM     11  C   UNL     1       3.875   5.799  17.639  0.00  0.00    +0.000 A 
ATOM     12  C   UNL     1       4.446   6.917  17.087  0.00  0.00    +0.000 A 
ATOM     13  C   UNL     1       5.270   6.727  15.968  0.00  0.00    +0.000 A 
ATOM     14  C   UNL     1       5.512   5.448  15.430  0.00  0.00    +0.000 A 
ATOM     15  C   UNL     1       4.959   4.309  16.012  0.00  0.00    +0.000 A 
ATOM     16  C   UNL     1       4.157   4.514  17.106  0.00  0.00    +0.000 A 
ENDROOT
BRANCH   1  17
ATOM     17  C   UNL     1       2.269   7.890  19.447  0.00  0.00    +0.000 C 
BRANCH  17  22
ATOM     18  C   UNL     1      -1.100  11.094  22.962  0.00  0.00    +0.000 C 
ATOM     19  C   UNL     1      -0.302  10.207  22.055  0.00  0.00    +0.000 A 
ATOM     20  C   UNL     1       0.636   9.309  22.566  0.00  0.00    +0.000 A 
ATOM     21  C   UNL     1       1.419   8.530  21.711  0.00  0.00    +0.000 A 
ATOM     22  C   UNL     1       1.277   8.624  20.316  0.00  0.00    +0.000 A 
ATOM     23  C   UNL     1       0.307   9.506  19.811  0.00  0.00    +0.000 A 
ATOM     24  C   UNL     1      -0.473  10.286  20.666  0.00  0.00    +0.000 A 
ENDBRANCH  17  22
ENDBRANCH   1  17
TORSDOF 2
ENDMDL
MODEL 2
REMARK VINA RESULT:      -9.0      0.944      1.444
REMARK  Name = 
REMARK  3 active torsions:
REMARK  status: ('A' for Active; 'I' for Inactive)
REMARK    1  A    between atoms: C_1  and  C_2
REMARK    2  A    between atoms: C_5  and  C_6
REMARK    3  A    between atoms: C_6  and  N_7
REMARK                            x       y       z     vdW  Elec       q    Type
REMARK                         _______ _______ _______ _____ _____    ______ ____
ROOT
ATOM      1  N   UNL     1       2.442   6.492  19.604  0.00  0.00    +0.000 N 
ATOM      2  C   UNL     1       1.557   6.018  20.525  0.00  0.00    +0.000 A 
ATOM      3  C   UNL     1       1.232   4.665  20.644  0.00  0.00    +0.000 A 
ATOM      4  C   UNL     1       1.791   3.748  19.752  0.00  0.00    +0.000 A 
ATOM      5  C   UNL     1       1.551   2.367  19.665  0.00  0.00    +0.000 A 
ATOM      6  C   UNL     1       2.193   1.640  18.659  0.00  0.00    +0.000 A 
ATOM      7  N   UNL     1       3.053   2.165  17.749  0.00  0.00    +0.000 NA
ATOM      8  C   UNL     1       3.287   3.525  17.855  0.00  0.00    +0.000 A 
ATOM      9  C   UNL     1       2.668   4.273  18.847  0.00  0.00    +0.000 A 
ATOM     10  C   UNL     1       3.012   5.629  18.762  0.00  0.00    +0.000 A 
ATOM     11  C   UNL     1       3.986   5.745  17.612  0.00  0.00    +0.000 A 
ATOM     12  C   UNL     1       4.663   6.808  17.070  0.00  0.00    +0.000 A 
ATOM     13  C   UNL     1       5.442   6.555  15.931  0.00  0.00    +0.000 A 
ATOM     14  C   UNL     1       5.536   5.270  15.363  0.00  0.00    +0.000 A 
ATOM     15  C   UNL     1       4.876   4.184  15.934  0.00  0.00    +0.000 A 
ATOM     16  C   UNL     1       4.121   4.449  17.048  0.00  0.00    +0.000 A 
ENDROOT
BRANCH   1  17
ATOM     17  C   UNL     1       2.646   7.955  19.492  0.00  0.00    +0.000 C 
BRANCH  17  22
ATOM     18  C   UNL     1      -1.959  11.474  18.881  0.00  0.00    +0.000 C 
ATOM     19  C   UNL     1      -0.834  10.497  19.030  0.00  0.00    +0.000 A 
ATOM     20  C   UNL     1      -0.377  10.108  20.291  0.00  0.00    +0.000 A 
ATOM     21  C   UNL     1       0.713   9.244  20.420  0.00  0.00    +0.000 A 
ATOM     22  C   UNL     1       1.372   8.738  19.287  0.00  0.00    +0.000 A 
ATOM     23  C   UNL     1       0.885   9.109  18.022  0.00  0.00    +0.000 A 
ATOM     24  C   UNL     1      -0.202   9.975  17.893  0.00  0.00    +0.000 A 
ENDBRANCH  17  22
ENDBRANCH   1  17
TORSDOF 2
ENDMDL
MODEL 3
REMARK VINA RESULT:      -9.0      1.723      2.281
REMARK  Name = 
REMARK  3 active torsions:
REMARK  status: ('A' for Active; 'I' for Inactive)
REMARK    1  A    between atoms: C_1  and  C_2
REMARK    2  A    between atoms: C_5  and  C_6
REMARK    3  A    between atoms: C_6  and  N_7
REMARK                            x       y       z     vdW  Elec       q    Type
REMARK                         _______ _______ _______ _____ _____    ______ ____
ROOT
ATOM      1  N   UNL     1       2.489   7.547  18.925  0.00  0.00    +0.000 N 
ATOM      2  C   UNL     1       1.680   7.566  20.020  0.00  0.00    +0.000 A 
ATOM      3  C   UNL     1       1.459   6.446  20.826  0.00  0.00    +0.000 A 
ATOM      4  C   UNL     1       2.047   5.229  20.477  0.00  0.00    +0.000 A 
ATOM      5  C   UNL     1       1.905   3.984  21.113  0.00  0.00    +0.000 A 
ATOM      6  C   UNL     1       2.557   2.877  20.564  0.00  0.00    +0.000 A 
ATOM      7  N   UNL     1       3.339   2.906  19.455  0.00  0.00    +0.000 NA
ATOM      8  C   UNL     1       3.477   4.141  18.847  0.00  0.00    +0.000 A 
ATOM      9  C   UNL     1       2.846   5.261  19.370  0.00  0.00    +0.000 A 
ATOM     10  C   UNL     1       3.086   6.401  18.592  0.00  0.00    +0.000 A 
ATOM     11  C   UNL     1       4.002   5.961  17.472  0.00  0.00    +0.000 A 
ATOM     12  C   UNL     1       4.577   6.632  16.422  0.00  0.00    +0.000 A 
ATOM     13  C   UNL     1       5.324   5.872  15.511  0.00  0.00    +0.000 A 
ATOM     14  C   UNL     1       5.489   4.481  15.660  0.00  0.00    +0.000 A 
ATOM     15  C   UNL     1       4.934   3.805  16.745  0.00  0.00    +0.000 A 
ATOM     16  C   UNL     1       4.207   4.565  17.628  0.00  0.00    +0.000 A 
ENDROOT
BRANCH   1  17
ATOM     17  C   UNL     1       2.581   8.759  18.079  0.00  0.00    +0.000 C 
BRANCH  17  22
ATOM     18  C   UNL     1      -2.264  11.894  18.896  0.00  0.00    +0.000 C 
ATOM     19  C   UNL     1      -0.998  11.144  18.614  0.00  0.00    +0.000 A 
ATOM     20  C   UNL     1      -1.002   9.990  17.830  0.00  0.00    +0.000 A 
ATOM     21  C   UNL     1       0.173   9.262  17.624  0.00  0.00    +0.000 A 
ATOM     22  C   UNL     1       1.389   9.678  18.192  0.00  0.00    +0.000 A 
ATOM     23  C   UNL     1       1.390  10.860  18.953  0.00  0.00    +0.000 A 
ATOM     24  C   UNL     1       0.215  11.583  19.162  0.00  0.00    +0.000 A 
ENDBRANCH  17  22
ENDBRANCH   1  17
TORSDOF 2
ENDMDL
MODEL 4
REMARK VINA RESULT:      -8.8      1.726      2.115
REMARK  Name = 
REMARK  3 active torsions:
REMARK  status: ('A' for Active; 'I' for Inactive)
REMARK    1  A    between atoms: C_1  and  C_2
REMARK    2  A    between atoms: C_5  and  C_6
REMARK    3  A    between atoms: C_6  and  N_7
REMARK                            x       y       z     vdW  Elec       q    Type
REMARK                         _______ _______ _______ _____ _____    ______ ____
ROOT
ATOM      1  N   UNL     1       2.548   7.355  18.916  0.00  0.00    +0.000 N 
ATOM      2  C   UNL     1       1.784   7.276  20.040  0.00  0.00    +0.000 A 
ATOM      3  C   UNL     1       1.698   6.123  20.825  0.00  0.00    +0.000 A 
ATOM      4  C   UNL     1       2.379   4.973  20.423  0.00  0.00    +0.000 A 
ATOM      5  C   UNL     1       2.377   3.707  21.032  0.00  0.00    +0.000 A 
ATOM      6  C   UNL     1       3.104   2.676  20.431  0.00  0.00    +0.000 A 
ATOM      7  N   UNL     1       3.835   2.801  19.294  0.00  0.00    +0.000 NA
ATOM      8  C   UNL     1       3.836   4.056  18.713  0.00  0.00    +0.000 A 
ATOM      9  C   UNL     1       3.128   5.102  19.288  0.00  0.00    +0.000 A 
ATOM     10  C   UNL     1       3.233   6.276  18.531  0.00  0.00    +0.000 A 
ATOM     11  C   UNL     1       4.139   5.946  17.367  0.00  0.00    +0.000 A 
ATOM     12  C   UNL     1       4.609   6.690  16.314  0.00  0.00    +0.000 A 
ATOM     13  C   UNL     1       5.385   6.022  15.356  0.00  0.00    +0.000 A 
ATOM     14  C   UNL     1       5.682   4.649  15.464  0.00  0.00    +0.000 A 
ATOM     15  C   UNL     1       5.234   3.902  16.551  0.00  0.00    +0.000 A 
ATOM     16  C   UNL     1       4.477   4.572  17.479  0.00  0.00    +0.000 A 
ENDROOT
BRANCH   1  17
ATOM     17  C   UNL     1       2.496   8.589  18.098  0.00  0.00    +0.000 C 
BRANCH  17  22
ATOM     18  C   UNL     1      -1.991  12.265  18.667  0.00  0.00    +0.000 C 
ATOM     19  C   UNL     1      -0.876  11.267  18.588  0.00  0.00    +0.000 A 
ATOM     20  C   UNL     1       0.313  11.455  19.294  0.00  0.00    +0.000 A 
ATOM     21  C   UNL     1       1.370  10.552  19.166  0.00  0.00    +0.000 A 
ATOM     22  C   UNL     1       1.262   9.427  18.330  0.00  0.00    +0.000 A 
ATOM     23  C   UNL     1       0.049   9.227  17.649  0.00  0.00    +0.000 A 
ATOM     24  C   UNL     1      -1.005  10.133  17.775  0.00  0.00    +0.000 A 
ENDBRANCH  17  22
ENDBRANCH   1  17
TORSDOF 2
ENDMDL
MODEL 5
REMARK VINA RESULT:      -8.8      1.058      1.798
REMARK  Name = 
REMARK  3 active torsions:
REMARK  status: ('A' for Active; 'I' for Inactive)
REMARK    1  A    between atoms: C_1  and  C_2
REMARK    2  A    between atoms: C_5  and  C_6
REMARK    3  A    between atoms: C_6  and  N_7
REMARK                            x       y       z     vdW  Elec       q    Type
REMARK                         _______ _______ _______ _____ _____    ______ ____
ROOT
ATOM      1  N   UNL     1       2.449   6.625  19.554  0.00  0.00    +0.000 N 
ATOM      2  C   UNL     1       1.530   6.218  20.473  0.00  0.00    +0.000 A 
ATOM      3  C   UNL     1       1.130   4.887  20.614  0.00  0.00    +0.000 A 
ATOM      4  C   UNL     1       1.648   3.924  19.747  0.00  0.00    +0.000 A 
ATOM      5  C   UNL     1       1.334   2.556  19.683  0.00  0.00    +0.000 A 
ATOM      6  C   UNL     1       1.946   1.776  18.699  0.00  0.00    +0.000 A 
ATOM      7  N   UNL     1       2.842   2.236  17.789  0.00  0.00    +0.000 NA
ATOM      8  C   UNL     1       3.149   3.582  17.871  0.00  0.00    +0.000 A 
ATOM      9  C   UNL     1       2.562   4.383  18.842  0.00  0.00    +0.000 A 
ATOM     10  C   UNL     1       2.980   5.715  18.735  0.00  0.00    +0.000 A 
ATOM     11  C   UNL     1       3.971   5.755  17.593  0.00  0.00    +0.000 A 
ATOM     12  C   UNL     1       4.710   6.769  17.039  0.00  0.00    +0.000 A 
ATOM     13  C   UNL     1       5.485   6.453  15.914  0.00  0.00    +0.000 A 
ATOM     14  C   UNL     1       5.516   5.153  15.372  0.00  0.00    +0.000 A 
ATOM     15  C   UNL     1       4.791   4.116  15.956  0.00  0.00    +0.000 A 
ATOM     16  C   UNL     1       4.040   4.443  17.057  0.00  0.00    +0.000 A 
ENDROOT
BRANCH   1  17
ATOM     17  C   UNL     1       2.733   8.072  19.416  0.00  0.00    +0.000 C 
BRANCH  17  22
ATOM     18  C   UNL     1      -2.306  10.845  18.473  0.00  0.00    +0.000 C 
ATOM     19  C   UNL     1      -0.968  10.215  18.719  0.00  0.00    +0.000 A 
ATOM     20  C   UNL     1      -0.178   9.763  17.661  0.00  0.00    +0.000 A 
ATOM     21  C   UNL     1       1.039   9.121  17.903  0.00  0.00    +0.000 A 
ATOM     22  C   UNL     1       1.503   8.923  19.215  0.00  0.00    +0.000 A 
ATOM     23  C   UNL     1       0.717   9.412  20.272  0.00  0.00    +0.000 A 
ATOM     24  C   UNL     1      -0.501  10.049  20.029  0.00  0.00    +0.000 A 
ENDBRANCH  17  22
ENDBRANCH   1  17
TORSDOF 2
ENDMDL
MODEL 6
REMARK VINA RESULT:      -8.6      2.186      5.689
REMARK  Name = 
REMARK  3 active torsions:
REMARK  status: ('A' for Active; 'I' for Inactive)
REMARK    1  A    between atoms: C_1  and  C_2
REMARK    2  A    between atoms: C_5  and  C_6
REMARK    3  A    between atoms: C_6  and  N_7
REMARK                            x       y       z     vdW  Elec       q    Type
REMARK                         _______ _______ _______ _____ _____    ______ ____
ROOT
ATOM      1  N   UNL     1       4.099   3.645  17.346  0.00  0.00    +0.000 N 
ATOM      2  C   UNL     1       4.195   2.307  17.578  0.00  0.00    +0.000 A 
ATOM      3  C   UNL     1       3.494   1.657  18.596  0.00  0.00    +0.000 A 
ATOM      4  C   UNL     1       2.693   2.407  19.458  0.00  0.00    +0.000 A 
ATOM      5  C   UNL     1       1.960   1.959  20.570  0.00  0.00    +0.000 A 
ATOM      6  C   UNL     1       1.254   2.898  21.326  0.00  0.00    +0.000 A 
ATOM      7  N   UNL     1       1.207   4.230  21.065  0.00  0.00    +0.000 NA
ATOM      8  C   UNL     1       1.925   4.653  19.961  0.00  0.00    +0.000 A 
ATOM      9  C   UNL     1       2.633   3.744  19.186  0.00  0.00    +0.000 A 
ATOM     10  C   UNL     1       3.314   4.376  18.139  0.00  0.00    +0.000 A 
ATOM     11  C   UNL     1       2.969   5.845  18.239  0.00  0.00    +0.000 A 
ATOM     12  C   UNL     1       3.326   6.937  17.489  0.00  0.00    +0.000 A 
ATOM     13  C   UNL     1       2.871   8.189  17.928  0.00  0.00    +0.000 A 
ATOM     14  C   UNL     1       2.077   8.330  19.083  0.00  0.00    +0.000 A 
ATOM     15  C   UNL     1       1.686   7.217  19.824  0.00  0.00    +0.000 A 
ATOM     16  C   UNL     1       2.139   6.000  19.380  0.00  0.00    +0.000 A 
ENDROOT
BRANCH   1  17
ATOM     17  C   UNL     1       4.958   4.256  16.305  0.00  0.00    +0.000 C 
BRANCH  17  22
ATOM     18  C   UNL     1       8.593   8.191  18.602  0.00  0.00    +0.000 C 
ATOM     19  C   UNL     1       7.731   7.142  17.968  0.00  0.00    +0.000 A 
ATOM     20  C   UNL     1       7.035   7.397  16.786  0.00  0.00    +0.000 A 
ATOM     21  C   UNL     1       6.186   6.435  16.234  0.00  0.00    +0.000 A 
ATOM     22  C   UNL     1       6.018   5.183  16.850  0.00  0.00    +0.000 A 
ATOM     23  C   UNL     1       6.749   4.922  18.022  0.00  0.00    +0.000 A 
ATOM     24  C   UNL     1       7.593   5.886  18.574  0.00  0.00    +0.000 A 
ENDBRANCH  17  22
ENDBRANCH   1  17
TORSDOF 2
ENDMDL
MODEL 7
REMARK VINA RESULT:      -8.3      2.029      7.090
REMARK  Name = 
REMARK  3 active torsions:
REMARK  status: ('A' for Active; 'I' for Inactive)
REMARK    1  A    between atoms: C_1  and  C_2
REMARK    2  A    between atoms: C_5  and  C_6
REMARK    3  A    between atoms: C_6  and  N_7
REMARK                            x       y       z     vdW  Elec       q    Type
REMARK                         _______ _______ _______ _____ _____    ______ ____
ROOT
ATOM      1  N   UNL     1       4.516   5.171  17.359  0.00  0.00    +0.000 N 
ATOM      2  C   UNL     1       4.959   3.901  17.572  0.00  0.00    +0.000 A 
ATOM      3  C   UNL     1       4.493   3.095  18.613  0.00  0.00    +0.000 A 
ATOM      4  C   UNL     1       3.567   3.618  19.518  0.00  0.00    +0.000 A 
ATOM      5  C   UNL     1       3.023   2.999  20.656  0.00  0.00    +0.000 A 
ATOM      6  C   UNL     1       2.136   3.729  21.452  0.00  0.00    +0.000 A 
ATOM      7  N   UNL     1       1.741   5.004  21.207  0.00  0.00    +0.000 NA
ATOM      8  C   UNL     1       2.278   5.595  20.077  0.00  0.00    +0.000 A 
ATOM      9  C   UNL     1       3.157   4.895  19.263  0.00  0.00    +0.000 A 
ATOM     10  C   UNL     1       3.608   5.680  18.194  0.00  0.00    +0.000 A 
ATOM     11  C   UNL     1       2.906   7.013  18.324  0.00  0.00    +0.000 A 
ATOM     12  C   UNL     1       2.940   8.159  17.572  0.00  0.00    +0.000 A 
ATOM     13  C   UNL     1       2.203   9.255  18.044  0.00  0.00    +0.000 A 
ATOM     14  C   UNL     1       1.451   9.190  19.234  0.00  0.00    +0.000 A 
ATOM     15  C   UNL     1       1.390   8.015  19.979  0.00  0.00    +0.000 A 
ATOM     16  C   UNL     1       2.116   6.953  19.502  0.00  0.00    +0.000 A 
ENDROOT
BRANCH   1  17
ATOM     17  C   UNL     1       5.144   5.980  16.289  0.00  0.00    +0.000 C 
BRANCH  17  22
ATOM     18  C   UNL     1       7.030   3.191  11.531  0.00  0.00    +0.000 C 
ATOM     19  C   UNL     1       6.577   3.836  12.805  0.00  0.00    +0.000 A 
ATOM     20  C   UNL     1       5.266   3.692  13.261  0.00  0.00    +0.000 A 
ATOM     21  C   UNL     1       4.836   4.348  14.417  0.00  0.00    +0.000 A 
ATOM     22  C   UNL     1       5.713   5.162  15.155  0.00  0.00    +0.000 A 
ATOM     23  C   UNL     1       7.040   5.274  14.707  0.00  0.00    +0.000 A 
ATOM     24  C   UNL     1       7.468   4.622  13.550  0.00  0.00    +0.000 A 
ENDBRANCH  17  22
ENDBRANCH   1  17
TORSDOF 2
ENDMDL
MODEL 8
REMARK VINA RESULT:      -8.2      3.625      8.514
REMARK  Name = 
REMARK  3 active torsions:
REMARK  status: ('A' for Active; 'I' for Inactive)
REMARK    1  A    between atoms: C_1  and  C_2
REMARK    2  A    between atoms: C_5  and  C_6
REMARK    3  A    between atoms: C_6  and  N_7
REMARK                            x       y       z     vdW  Elec       q    Type
REMARK                         _______ _______ _______ _____ _____    ______ ____
ROOT
ATOM      1  N   UNL     1       0.077  11.558  19.695  0.00  0.00    +0.000 N 
ATOM      2  C   UNL     1       0.456  12.177  20.846  0.00  0.00    +0.000 A 
ATOM      3  C   UNL     1      -0.444  12.820  21.699  0.00  0.00    +0.000 A 
ATOM      4  C   UNL     1      -1.792  12.885  21.344  0.00  0.00    +0.000 A 
ATOM      5  C   UNL     1      -2.838  13.529  22.025  0.00  0.00    +0.000 A 
ATOM      6  C   UNL     1      -4.117  13.503  21.462  0.00  0.00    +0.000 A 
ATOM      7  N   UNL     1      -4.440  12.887  20.296  0.00  0.00    +0.000 NA
ATOM      8  C   UNL     1      -3.401  12.249  19.643  0.00  0.00    +0.000 A 
ATOM      9  C   UNL     1      -2.121  12.252  20.179  0.00  0.00    +0.000 A 
ATOM     10  C   UNL     1      -1.212  11.581  19.351  0.00  0.00    +0.000 A 
ATOM     11  C   UNL     1      -2.014  11.062  18.179  0.00  0.00    +0.000 A 
ATOM     12  C   UNL     1      -1.672  10.331  17.069  0.00  0.00    +0.000 A 
ATOM     13  C   UNL     1      -2.683  10.091  16.127  0.00  0.00    +0.000 A 
ATOM     14  C   UNL     1      -3.996  10.569  16.304  0.00  0.00    +0.000 A 
ATOM     15  C   UNL     1      -4.350  11.282  17.448  0.00  0.00    +0.000 A 
ATOM     16  C   UNL     1      -3.349  11.507  18.360  0.00  0.00    +0.000 A 
ENDROOT
BRANCH   1  17
ATOM     17  C   UNL     1       1.119  10.990  18.809  0.00  0.00    +0.000 C 
BRANCH  17  22
ATOM     18  C   UNL     1       2.832   5.505  19.782  0.00  0.00    +0.000 C 
ATOM     19  C   UNL     1       2.307   6.882  19.511  0.00  0.00    +0.000 A 
ATOM     20  C   UNL     1       2.477   7.487  18.265  0.00  0.00    +0.000 A 
ATOM     21  C   UNL     1       2.039   8.794  18.040  0.00  0.00    +0.000 A 
ATOM     22  C   UNL     1       1.409   9.530  19.058  0.00  0.00    +0.000 A 
ATOM     23  C   UNL     1       1.212   8.901  20.299  0.00  0.00    +0.000 A 
ATOM     24  C   UNL     1       1.654   7.596  20.524  0.00  0.00    +0.000 A 
ENDBRANCH  17  22
ENDBRANCH   1  17
TORSDOF 2
ENDMDL
MODEL 9
REMARK VINA RESULT:      -8.2      1.250      1.589
REMARK  Name = 
REMARK  3 active torsions:
REMARK  status: ('A' for Active; 'I' for Inactive)
REMARK    1  A    between atoms: C_1  and  C_2
REMARK    2  A    between atoms: C_5  and  C_6
REMARK    3  A    between atoms: C_6  and  N_7
REMARK                            x       y       z     vdW  Elec       q    Type
REMARK                         _______ _______ _______ _____ _____    ______ ____
ROOT
ATOM      1  N   UNL     1       2.370   6.439  19.626  0.00  0.00    +0.000 N 
ATOM      2  C   UNL     1       1.483   5.869  20.488  0.00  0.00    +0.000 A 
ATOM      3  C   UNL     1       1.651   4.587  21.017  0.00  0.00    +0.000 A 
ATOM      4  C   UNL     1       2.745   3.821  20.615  0.00  0.00    +0.000 A 
ATOM      5  C   UNL     1       3.061   2.501  20.979  0.00  0.00    +0.000 A 
ATOM      6  C   UNL     1       4.194   1.907  20.418  0.00  0.00    +0.000 A 
ATOM      7  N   UNL     1       5.038   2.513  19.544  0.00  0.00    +0.000 NA
ATOM      8  C   UNL     1       4.719   3.815  19.203  0.00  0.00    +0.000 A 
ATOM      9  C   UNL     1       3.603   4.436  19.747  0.00  0.00    +0.000 A 
ATOM     10  C   UNL     1       3.440   5.736  19.252  0.00  0.00    +0.000 A 
ATOM     11  C   UNL     1       4.605   5.979  18.319  0.00  0.00    +0.000 A 
ATOM     12  C   UNL     1       4.980   7.061  17.563  0.00  0.00    +0.000 A 
ATOM     13  C   UNL     1       6.102   6.903  16.737  0.00  0.00    +0.000 A 
ATOM     14  C   UNL     1       6.824   5.694  16.682  0.00  0.00    +0.000 A 
ATOM     15  C   UNL     1       6.462   4.608  17.476  0.00  0.00    +0.000 A 
ATOM     16  C   UNL     1       5.363   4.780  18.279  0.00  0.00    +0.000 A 
ENDROOT
BRANCH   1  17
ATOM     17  C   UNL     1       2.053   7.763  19.044  0.00  0.00    +0.000 C 
BRANCH  17  22
ATOM     18  C   UNL     1      -1.031  11.166  22.633  0.00  0.00    +0.000 C 
ATOM     19  C   UNL     1      -0.167  10.351  21.720  0.00  0.00    +0.000 A 
ATOM     20  C   UNL     1      -0.231  10.508  20.334  0.00  0.00    +0.000 A 
ATOM     21  C   UNL     1       0.534   9.700  19.488  0.00  0.00    +0.000 A 
ATOM     22  C   UNL     1       1.391   8.716  20.009  0.00  0.00    +0.000 A 
ATOM     23  C   UNL     1       1.475   8.588  21.406  0.00  0.00    +0.000 A 
ATOM     24  C   UNL     1       0.708   9.392  22.250  0.00  0.00    +0.000 A 
ENDBRANCH  17  22
ENDBRANCH   1  17
TORSDOF 2
ENDMDL
