MODEL 1
REMARK VINA RESULT:      -7.6      0.000      0.000
REMARK  Name = 
REMARK  7 active torsions:
REMARK  status: ('A' for Active; 'I' for Inactive)
REMARK    1  A    between atoms: C_1  and  C_2
REMARK    2  A    between atoms: C_2  and  C_3
REMARK    3  A    between atoms: C_3  and  C_4
REMARK    4  A    between atoms: C_4  and  C_5
REMARK    5  A    between atoms: C_5  and  C_6
REMARK    6  A    between atoms: C_8  and  C_9
REMARK    7  A    between atoms: C_9  and  N_10
REMARK                            x       y       z     vdW  Elec       q    Type
REMARK                         _______ _______ _______ _____ _____    ______ ____
ROOT
ATOM      1  N   UNL     1       6.267   4.969  16.953  0.00  0.00    +0.000 N 
ATOM      2  C   UNL     1       7.281   5.788  16.515  0.00  0.00    +0.000 A 
ATOM      3  N   UNL     1       7.698   5.865  15.294  0.00  0.00    +0.000 NA
ATOM      4  C   UNL     1       7.089   5.033  14.347  0.00  0.00    +0.000 A 
ATOM      5  C   UNL     1       7.588   5.022  13.042  0.00  0.00    +0.000 A 
ATOM      6  C   UNL     1       7.068   4.138  12.092  0.00  0.00    +0.000 A 
ATOM      7  C   UNL     1       6.015   3.290  12.437  0.00  0.00    +0.000 A 
ATOM      8 CL   UNL     1       5.399   2.181  11.276  0.00  0.00    +0.000 Cl
ATOM      9  C   UNL     1       5.480   3.314  13.721  0.00  0.00    +0.000 A 
ATOM     10  C   UNL     1       6.036   4.175  14.674  0.00  0.00    +0.000 A 
ATOM     11  C   UNL     1       5.580   4.145  16.077  0.00  0.00    +0.000 A 
ATOM     12  O   UNL     1       4.667   3.396  16.408  0.00  0.00    +0.000 OA
ENDROOT
BRANCH   1  13
ATOM     13  C   UNL     1       5.959   4.905  18.373  0.00  0.00    +0.000 C 
BRANCH  13  16
ATOM     14  C   UNL     1       2.714   5.723  19.757  0.00  0.00    +0.000 A 
ATOM     15  N   UNL     1       3.841   5.039  19.677  0.00  0.00    +0.000 NA
ATOM     16  C   UNL     1       4.647   5.567  18.675  0.00  0.00    +0.000 A 
ATOM     17  C   UNL     1       4.100   6.647  18.006  0.00  0.00    +0.000 A 
ATOM     18  S   UNL     1       2.552   7.014  18.639  0.00  0.00    +0.000 S 
BRANCH  14  19
ATOM     19  C   UNL     1       1.628   5.419  20.741  0.00  0.00    +0.000 C 
BRANCH  19  20
ATOM     20  C   UNL     1       1.596   3.922  21.064  0.00  0.00    +0.000 C 
BRANCH  20  21
ATOM     21  C   UNL     1       0.778   3.151  20.030  0.00  0.00    +0.000 C 
BRANCH  21  23
ATOM     22  C   UNL     1       2.038   2.373  17.997  0.00  0.00    +0.000 C 
ATOM     23  C   UNL     1       1.599   2.022  19.408  0.00  0.00    +0.000 C 
ENDBRANCH  21  23
ENDBRANCH  20  21
ENDBRANCH  19  20
ENDBRANCH  14  19
ENDBRANCH  13  16
ENDBRANCH   1  13
TORSDOF 6
ENDMDL
MODEL 2
REMARK VINA RESULT:      -7.3      4.043      7.801
REMARK  Name = 
REMARK  7 active torsions:
REMARK  status: ('A' for Active; 'I' for Inactive)
REMARK    1  A    between atoms: C_1  and  C_2
REMARK    2  A    between atoms: C_2  and  C_3
REMARK    3  A    between atoms: C_3  and  C_4
REMARK    4  A    between atoms: C_4  and  C_5
REMARK    5  A    between atoms: C_5  and  C_6
REMARK    6  A    between atoms: C_8  and  C_9
REMARK    7  A    between atoms: C_9  and  N_10
REMARK                            x       y       z     vdW  Elec       q    Type
REMARK                         _______ _______ _______ _____ _____    ______ ____
ROOT
ATOM      1  N   UNL     1       3.004   5.818  18.665  0.00  0.00    +0.000 N 
ATOM      2  C   UNL     1       3.124   6.842  17.755  0.00  0.00    +0.000 A 
ATOM      3  N   UNL     1       2.666   8.039  17.919  0.00  0.00    +0.000 NA
ATOM      4  C   UNL     1       1.973   8.311  19.104  0.00  0.00    +0.000 A 
ATOM      5  C   UNL     1       1.381   9.567  19.264  0.00  0.00    +0.000 A 
ATOM      6  C   UNL     1       0.602   9.845  20.391  0.00  0.00    +0.000 A 
ATOM      7  C   UNL     1       0.449   8.877  21.384  0.00  0.00    +0.000 A 
ATOM      8 CL   UNL     1      -0.536   9.211  22.754  0.00  0.00    +0.000 Cl
ATOM      9  C   UNL     1       1.063   7.635  21.261  0.00  0.00    +0.000 A 
ATOM     10  C   UNL     1       1.806   7.354  20.109  0.00  0.00    +0.000 A 
ATOM     11  C   UNL     1       2.370   6.010  19.882  0.00  0.00    +0.000 A 
ATOM     12  O   UNL     1       2.235   5.137  20.733  0.00  0.00    +0.000 OA
ENDROOT
BRANCH   1  13
ATOM     13  C   UNL     1       3.477   4.487  18.317  0.00  0.00    +0.000 C 
BRANCH  13  16
ATOM     14  C   UNL     1       6.223   4.391  15.957  0.00  0.00    +0.000 A 
ATOM     15  N   UNL     1       4.951   4.360  16.313  0.00  0.00    +0.000 NA
ATOM     16  C   UNL     1       4.837   4.543  17.686  0.00  0.00    +0.000 A 
ATOM     17  C   UNL     1       6.042   4.701  18.348  0.00  0.00    +0.000 A 
ATOM     18  S   UNL     1       7.343   4.624  17.237  0.00  0.00    +0.000 S 
BRANCH  14  19
ATOM     19  C   UNL     1       6.693   4.234  14.545  0.00  0.00    +0.000 C 
BRANCH  19  20
ATOM     20  C   UNL     1       5.574   3.673  13.663  0.00  0.00    +0.000 C 
BRANCH  20  21
ATOM     21  C   UNL     1       6.026   3.545  12.211  0.00  0.00    +0.000 C 
BRANCH  21  23
ATOM     22  C   UNL     1       6.789   1.417  11.108  0.00  0.00    +0.000 C 
ATOM     23  C   UNL     1       5.594   2.207  11.613  0.00  0.00    +0.000 C 
ENDBRANCH  21  23
ENDBRANCH  20  21
ENDBRANCH  19  20
ENDBRANCH  14  19
ENDBRANCH  13  16
ENDBRANCH   1  13
TORSDOF 6
ENDMDL
MODEL 3
REMARK VINA RESULT:      -7.3      5.032      7.761
REMARK  Name = 
REMARK  7 active torsions:
REMARK  status: ('A' for Active; 'I' for Inactive)
REMARK    1  A    between atoms: C_1  and  C_2
REMARK    2  A    between atoms: C_2  and  C_3
REMARK    3  A    between atoms: C_3  and  C_4
REMARK    4  A    between atoms: C_4  and  C_5
REMARK    5  A    between atoms: C_5  and  C_6
REMARK    6  A    between atoms: C_8  and  C_9
REMARK    7  A    between atoms: C_9  and  N_10
REMARK                            x       y       z     vdW  Elec       q    Type
REMARK                         _______ _______ _______ _____ _____    ______ ____
ROOT
ATOM      1  N   UNL     1       2.376   7.878  18.778  0.00  0.00    +0.000 N 
ATOM      2  C   UNL     1       2.201   7.172  19.946  0.00  0.00    +0.000 A 
ATOM      3  N   UNL     1       1.458   7.546  20.935  0.00  0.00    +0.000 NA
ATOM      4  C   UNL     1       0.797   8.775  20.822  0.00  0.00    +0.000 A 
ATOM      5  C   UNL     1       0.068   9.250  21.915  0.00  0.00    +0.000 A 
ATOM      6  C   UNL     1      -0.527  10.514  21.874  0.00  0.00    +0.000 A 
ATOM      7  C   UNL     1      -0.429  11.290  20.719  0.00  0.00    +0.000 A 
ATOM      8 CL   UNL     1      -1.136  12.858  20.683  0.00  0.00    +0.000 Cl
ATOM      9  C   UNL     1       0.260  10.818  19.607  0.00  0.00    +0.000 A 
ATOM     10  C   UNL     1       0.886   9.568  19.674  0.00  0.00    +0.000 A 
ATOM     11  C   UNL     1       1.727   9.083  18.564  0.00  0.00    +0.000 A 
ATOM     12  O   UNL     1       1.842   9.755  17.544  0.00  0.00    +0.000 OA
ENDROOT
BRANCH   1  13
ATOM     13  C   UNL     1       3.319   7.395  17.782  0.00  0.00    +0.000 C 
BRANCH  13  16
ATOM     14  C   UNL     1       3.319   3.782  18.019  0.00  0.00    +0.000 A 
ATOM     15  N   UNL     1       2.833   4.956  17.659  0.00  0.00    +0.000 NA
ATOM     16  C   UNL     1       3.703   5.969  18.043  0.00  0.00    +0.000 A 
ATOM     17  C   UNL     1       4.840   5.533  18.701  0.00  0.00    +0.000 A 
ATOM     18  S   UNL     1       4.825   3.826  18.841  0.00  0.00    +0.000 S 
BRANCH  14  19
ATOM     19  C   UNL     1       2.631   2.481  17.747  0.00  0.00    +0.000 C 
BRANCH  19  20
ATOM     20  C   UNL     1       2.007   1.922  19.029  0.00  0.00    +0.000 C 
BRANCH  20  21
ATOM     21  C   UNL     1       0.811   2.761  19.473  0.00  0.00    +0.000 C 
BRANCH  21  23
ATOM     22  C   UNL     1       2.243   2.807  21.541  0.00  0.00    +0.000 C 
ATOM     23  C   UNL     1       1.092   3.466  20.799  0.00  0.00    +0.000 C 
ENDBRANCH  21  23
ENDBRANCH  20  21
ENDBRANCH  19  20
ENDBRANCH  14  19
ENDBRANCH  13  16
ENDBRANCH   1  13
TORSDOF 6
ENDMDL
MODEL 4
REMARK VINA RESULT:      -7.2      4.531      8.101
REMARK  Name = 
REMARK  7 active torsions:
REMARK  status: ('A' for Active; 'I' for Inactive)
REMARK    1  A    between atoms: C_1  and  C_2
REMARK    2  A    between atoms: C_2  and  C_3
REMARK    3  A    between atoms: C_3  and  C_4
REMARK    4  A    between atoms: C_4  and  C_5
REMARK    5  A    between atoms: C_5  and  C_6
REMARK    6  A    between atoms: C_8  and  C_9
REMARK    7  A    between atoms: C_9  and  N_10
REMARK                            x       y       z     vdW  Elec       q    Type
REMARK                         _______ _______ _______ _____ _____    ______ ____
ROOT
ATOM      1  N   UNL     1       2.302   6.908  18.726  0.00  0.00    +0.000 N 
ATOM      2  C   UNL     1       2.360   7.968  17.851  0.00  0.00    +0.000 A 
ATOM      3  N   UNL     1       1.962   9.169  18.112  0.00  0.00    +0.000 NA
ATOM      4  C   UNL     1       1.405   9.408  19.374  0.00  0.00    +0.000 A 
ATOM      5  C   UNL     1       0.875  10.673  19.646  0.00  0.00    +0.000 A 
ATOM      6  C   UNL     1       0.228  10.923  20.860  0.00  0.00    +0.000 A 
ATOM      7  C   UNL     1       0.146   9.916  21.823  0.00  0.00    +0.000 A 
ATOM      8 CL   UNL     1      -0.679  10.217  23.302  0.00  0.00    +0.000 Cl
ATOM      9  C   UNL     1       0.702   8.663  21.584  0.00  0.00    +0.000 A 
ATOM     10  C   UNL     1       1.312   8.413  20.350  0.00  0.00    +0.000 A 
ATOM     11  C   UNL     1       1.805   7.065  20.010  0.00  0.00    +0.000 A 
ATOM     12  O   UNL     1       1.730   6.159  20.834  0.00  0.00    +0.000 OA
ENDROOT
BRANCH   1  13
ATOM     13  C   UNL     1       2.692   5.582  18.275  0.00  0.00    +0.000 C 
BRANCH  13  16
ATOM     14  C   UNL     1       6.060   5.238  16.991  0.00  0.00    +0.000 A 
ATOM     15  N   UNL     1       4.751   5.388  16.889  0.00  0.00    +0.000 NA
ATOM     16  C   UNL     1       4.182   5.466  18.154  0.00  0.00    +0.000 A 
ATOM     17  C   UNL     1       5.084   5.363  19.199  0.00  0.00    +0.000 A 
ATOM     18  S   UNL     1       6.673   5.169  18.592  0.00  0.00    +0.000 S 
BRANCH  14  19
ATOM     19  C   UNL     1       6.976   5.129  15.812  0.00  0.00    +0.000 C 
BRANCH  19  20
ATOM     20  C   UNL     1       6.173   5.034  14.511  0.00  0.00    +0.000 C 
BRANCH  20  21
ATOM     21  C   UNL     1       6.147   3.603  13.981  0.00  0.00    +0.000 C 
BRANCH  21  23
ATOM     22  C   UNL     1       4.820   3.138  11.895  0.00  0.00    +0.000 C 
ATOM     23  C   UNL     1       6.163   3.580  12.453  0.00  0.00    +0.000 C 
ENDBRANCH  21  23
ENDBRANCH  20  21
ENDBRANCH  19  20
ENDBRANCH  14  19
ENDBRANCH  13  16
ENDBRANCH   1  13
TORSDOF 6
ENDMDL
MODEL 5
REMARK VINA RESULT:      -7.2      5.072      8.655
REMARK  Name = 
REMARK  7 active torsions:
REMARK  status: ('A' for Active; 'I' for Inactive)
REMARK    1  A    between atoms: C_1  and  C_2
REMARK    2  A    between atoms: C_2  and  C_3
REMARK    3  A    between atoms: C_3  and  C_4
REMARK    4  A    between atoms: C_4  and  C_5
REMARK    5  A    between atoms: C_5  and  C_6
REMARK    6  A    between atoms: C_8  and  C_9
REMARK    7  A    between atoms: C_9  and  N_10
REMARK                            x       y       z     vdW  Elec       q    Type
REMARK                         _______ _______ _______ _____ _____    ______ ____
ROOT
ATOM      1  N   UNL     1       2.263   7.297  18.566  0.00  0.00    +0.000 N 
ATOM      2  C   UNL     1       2.213   8.372  17.710  0.00  0.00    +0.000 A 
ATOM      3  N   UNL     1       1.727   9.533  18.004  0.00  0.00    +0.000 NA
ATOM      4  C   UNL     1       1.186   9.705  19.284  0.00  0.00    +0.000 A 
ATOM      5  C   UNL     1       0.564  10.917  19.594  0.00  0.00    +0.000 A 
ATOM      6  C   UNL     1      -0.069  11.093  20.828  0.00  0.00    +0.000 A 
ATOM      7  C   UNL     1      -0.044  10.068  21.773  0.00  0.00    +0.000 A 
ATOM      8 CL   UNL     1      -0.850  10.275  23.278  0.00  0.00    +0.000 Cl
ATOM      9  C   UNL     1       0.605   8.868  21.497  0.00  0.00    +0.000 A 
ATOM     10  C   UNL     1       1.200   8.689  20.243  0.00  0.00    +0.000 A 
ATOM     11  C   UNL     1       1.789   7.391  19.865  0.00  0.00    +0.000 A 
ATOM     12  O   UNL     1       1.809   6.468  20.673  0.00  0.00    +0.000 OA
ENDROOT
BRANCH   1  13
ATOM     13  C   UNL     1       2.746   6.014  18.080  0.00  0.00    +0.000 C 
BRANCH  13  16
ATOM     14  C   UNL     1       6.346   6.352  17.896  0.00  0.00    +0.000 A 
ATOM     15  N   UNL     1       5.099   6.666  17.593  0.00  0.00    +0.000 NA
ATOM     16  C   UNL     1       4.220   5.865  18.312  0.00  0.00    +0.000 A 
ATOM     17  C   UNL     1       4.830   4.946  19.148  0.00  0.00    +0.000 A 
ATOM     18  S   UNL     1       6.533   5.084  19.038  0.00  0.00    +0.000 S 
BRANCH  14  19
ATOM     19  C   UNL     1       7.539   7.032  17.302  0.00  0.00    +0.000 C 
BRANCH  19  20
ATOM     20  C   UNL     1       8.281   7.847  18.365  0.00  0.00    +0.000 C 
BRANCH  20  21
ATOM     21  C   UNL     1       8.297   9.333  18.012  0.00  0.00    +0.000 C 
BRANCH  21  23
ATOM     22  C   UNL     1       9.836  11.303  18.285  0.00  0.00    +0.000 C 
ATOM     23  C   UNL     1       9.181  10.121  18.978  0.00  0.00    +0.000 C 
ENDBRANCH  21  23
ENDBRANCH  20  21
ENDBRANCH  19  20
ENDBRANCH  14  19
ENDBRANCH  13  16
ENDBRANCH   1  13
TORSDOF 6
ENDMDL
MODEL 6
REMARK VINA RESULT:      -7.0      2.017      3.201
REMARK  Name = 
REMARK  7 active torsions:
REMARK  status: ('A' for Active; 'I' for Inactive)
REMARK    1  A    between atoms: C_1  and  C_2
REMARK    2  A    between atoms: C_2  and  C_3
REMARK    3  A    between atoms: C_3  and  C_4
REMARK    4  A    between atoms: C_4  and  C_5
REMARK    5  A    between atoms: C_5  and  C_6
REMARK    6  A    between atoms: C_8  and  C_9
REMARK    7  A    between atoms: C_9  and  N_10
REMARK                            x       y       z     vdW  Elec       q    Type
REMARK                         _______ _______ _______ _____ _____    ______ ____
ROOT
ATOM      1  N   UNL     1       5.902   5.118  17.002  0.00  0.00    +0.000 N 
ATOM      2  C   UNL     1       7.042   5.810  16.664  0.00  0.00    +0.000 A 
ATOM      3  N   UNL     1       7.592   5.809  15.495  0.00  0.00    +0.000 NA
ATOM      4  C   UNL     1       6.998   5.025  14.499  0.00  0.00    +0.000 A 
ATOM      5  C   UNL     1       7.628   4.927  13.255  0.00  0.00    +0.000 A 
ATOM      6  C   UNL     1       7.116   4.082  12.267  0.00  0.00    +0.000 A 
ATOM      7  C   UNL     1       5.945   3.362  12.507  0.00  0.00    +0.000 A 
ATOM      8 CL   UNL     1       5.335   2.299  11.301  0.00  0.00    +0.000 Cl
ATOM      9  C   UNL     1       5.283   3.477  13.725  0.00  0.00    +0.000 A 
ATOM     10  C   UNL     1       5.827   4.296  14.721  0.00  0.00    +0.000 A 
ATOM     11  C   UNL     1       5.225   4.351  16.067  0.00  0.00    +0.000 A 
ATOM     12  O   UNL     1       4.204   3.715  16.308  0.00  0.00    +0.000 OA
ENDROOT
BRANCH   1  13
ATOM     13  C   UNL     1       5.440   5.123  18.381  0.00  0.00    +0.000 C 
BRANCH  13  16
ATOM     14  C   UNL     1       2.460   6.754  19.634  0.00  0.00    +0.000 A 
ATOM     15  N   UNL     1       3.466   5.899  19.685  0.00  0.00    +0.000 NA
ATOM     16  C   UNL     1       4.266   6.038  18.557  0.00  0.00    +0.000 A 
ATOM     17  C   UNL     1       3.836   7.003  17.662  0.00  0.00    +0.000 A 
ATOM     18  S   UNL     1       2.409   7.753  18.239  0.00  0.00    +0.000 S 
BRANCH  14  19
ATOM     19  C   UNL     1       1.415   6.869  20.699  0.00  0.00    +0.000 C 
BRANCH  19  20
ATOM     20  C   UNL     1       1.436   8.266  21.326  0.00  0.00    +0.000 C 
BRANCH  20  21
ATOM     21  C   UNL     1       0.056   8.918  21.268  0.00  0.00    +0.000 C 
BRANCH  21  23
ATOM     22  C   UNL     1      -0.892  10.241  23.187  0.00  0.00    +0.000 C 
ATOM     23  C   UNL     1       0.050  10.263  21.995  0.00  0.00    +0.000 C 
ENDBRANCH  21  23
ENDBRANCH  20  21
ENDBRANCH  19  20
ENDBRANCH  14  19
ENDBRANCH  13  16
ENDBRANCH   1  13
TORSDOF 6
ENDMDL
MODEL 7
REMARK VINA RESULT:      -6.9      5.453      8.456
REMARK  Name = 
REMARK  7 active torsions:
REMARK  status: ('A' for Active; 'I' for Inactive)
REMARK    1  A    between atoms: C_1  and  C_2
REMARK    2  A    between atoms: C_2  and  C_3
REMARK    3  A    between atoms: C_3  and  C_4
REMARK    4  A    between atoms: C_4  and  C_5
REMARK    5  A    between atoms: C_5  and  C_6
REMARK    6  A    between atoms: C_8  and  C_9
REMARK    7  A    between atoms: C_9  and  N_10
REMARK                            x       y       z     vdW  Elec       q    Type
REMARK                         _______ _______ _______ _____ _____    ______ ____
ROOT
ATOM      1  N   UNL     1       1.723   8.536  19.279  0.00  0.00    +0.000 N 
ATOM      2  C   UNL     1       1.803   7.711  20.377  0.00  0.00    +0.000 A 
ATOM      3  N   UNL     1       1.189   7.904  21.498  0.00  0.00    +0.000 NA
ATOM      4  C   UNL     1       0.400   9.055  21.615  0.00  0.00    +0.000 A 
ATOM      5  C   UNL     1      -0.194   9.340  22.847  0.00  0.00    +0.000 A 
ATOM      6  C   UNL     1      -0.912  10.526  23.030  0.00  0.00    +0.000 A 
ATOM      7  C   UNL     1      -1.073  11.411  21.963  0.00  0.00    +0.000 A 
ATOM      8 CL   UNL     1      -1.929  12.883  22.200  0.00  0.00    +0.000 Cl
ATOM      9  C   UNL     1      -0.522  11.124  20.718  0.00  0.00    +0.000 A 
ATOM     10  C   UNL     1       0.229   9.954  20.559  0.00  0.00    +0.000 A 
ATOM     11  C   UNL     1       0.931   9.673  19.293  0.00  0.00    +0.000 A 
ATOM     12  O   UNL     1       0.818  10.444  18.345  0.00  0.00    +0.000 OA
ENDROOT
BRANCH   1  13
ATOM     13  C   UNL     1       2.542   8.258  18.111  0.00  0.00    +0.000 C 
BRANCH  13  16
ATOM     14  C   UNL     1       2.691   4.645  17.919  0.00  0.00    +0.000 A 
ATOM     15  N   UNL     1       2.102   5.823  17.826  0.00  0.00    +0.000 NA
ATOM     16  C   UNL     1       3.014   6.834  18.104  0.00  0.00    +0.000 A 
ATOM     17  C   UNL     1       4.288   6.391  18.413  0.00  0.00    +0.000 A 
ATOM     18  S   UNL     1       4.351   4.681  18.353  0.00  0.00    +0.000 S 
BRANCH  14  19
ATOM     19  C   UNL     1       1.990   3.346  17.672  0.00  0.00    +0.000 C 
BRANCH  19  20
ATOM     20  C   UNL     1       1.912   2.522  18.960  0.00  0.00    +0.000 C 
BRANCH  20  21
ATOM     21  C   UNL     1       0.824   3.053  19.891  0.00  0.00    +0.000 C 
BRANCH  21  23
ATOM     22  C   UNL     1       2.728   2.585  21.466  0.00  0.00    +0.000 C 
ATOM     23  C   UNL     1       1.271   3.000  21.351  0.00  0.00    +0.000 C 
ENDBRANCH  21  23
ENDBRANCH  20  21
ENDBRANCH  19  20
ENDBRANCH  14  19
ENDBRANCH  13  16
ENDBRANCH   1  13
TORSDOF 6
ENDMDL
MODEL 8
REMARK VINA RESULT:      -6.9      2.255      3.461
REMARK  Name = 
REMARK  7 active torsions:
REMARK  status: ('A' for Active; 'I' for Inactive)
REMARK    1  A    between atoms: C_1  and  C_2
REMARK    2  A    between atoms: C_2  and  C_3
REMARK    3  A    between atoms: C_3  and  C_4
REMARK    4  A    between atoms: C_4  and  C_5
REMARK    5  A    between atoms: C_5  and  C_6
REMARK    6  A    between atoms: C_8  and  C_9
REMARK    7  A    between atoms: C_9  and  N_10
REMARK                            x       y       z     vdW  Elec       q    Type
REMARK                         _______ _______ _______ _____ _____    ______ ____
ROOT
ATOM      1  N   UNL     1       5.950   4.954  17.189  0.00  0.00    +0.000 N 
ATOM      2  C   UNL     1       7.055   5.703  16.859  0.00  0.00    +0.000 A 
ATOM      3  N   UNL     1       7.576   5.777  15.678  0.00  0.00    +0.000 NA
ATOM      4  C   UNL     1       6.986   5.019  14.660  0.00  0.00    +0.000 A 
ATOM      5  C   UNL     1       7.588   5.002  13.399  0.00  0.00    +0.000 A 
ATOM      6  C   UNL     1       7.082   4.185  12.384  0.00  0.00    +0.000 A 
ATOM      7  C   UNL     1       5.944   3.412  12.617  0.00  0.00    +0.000 A 
ATOM      8 CL   UNL     1       5.343   2.384  11.377  0.00  0.00    +0.000 Cl
ATOM      9  C   UNL     1       5.309   3.446  13.854  0.00  0.00    +0.000 A 
ATOM     10  C   UNL     1       5.848   4.237  14.875  0.00  0.00    +0.000 A 
ATOM     11  C   UNL     1       5.278   4.207  16.235  0.00  0.00    +0.000 A 
ATOM     12  O   UNL     1       4.287   3.523  16.470  0.00  0.00    +0.000 OA
ENDROOT
BRANCH   1  13
ATOM     13  C   UNL     1       5.523   4.878  18.577  0.00  0.00    +0.000 C 
BRANCH  13  16
ATOM     14  C   UNL     1       2.871   7.330  18.311  0.00  0.00    +0.000 A 
ATOM     15  N   UNL     1       3.961   6.699  17.910  0.00  0.00    +0.000 NA
ATOM     16  C   UNL     1       4.283   5.690  18.809  0.00  0.00    +0.000 A 
ATOM     17  C   UNL     1       3.423   5.583  19.889  0.00  0.00    +0.000 A 
ATOM     18  S   UNL     1       2.187   6.763  19.780  0.00  0.00    +0.000 S 
BRANCH  14  19
ATOM     19  C   UNL     1       2.249   8.467  17.564  0.00  0.00    +0.000 C 
BRANCH  19  20
ATOM     20  C   UNL     1       1.709   9.521  18.535  0.00  0.00    +0.000 C 
BRANCH  20  21
ATOM     21  C   UNL     1       0.222   9.778  18.299  0.00  0.00    +0.000 C 
BRANCH  21  23
ATOM     22  C   UNL     1      -0.263  10.091  20.748  0.00  0.00    +0.000 C 
ATOM     23  C   UNL     1      -0.352  10.712  19.364  0.00  0.00    +0.000 C 
ENDBRANCH  21  23
ENDBRANCH  20  21
ENDBRANCH  19  20
ENDBRANCH  14  19
ENDBRANCH  13  16
ENDBRANCH   1  13
TORSDOF 6
ENDMDL
MODEL 9
REMARK VINA RESULT:      -6.8      4.772      8.540
REMARK  Name = 
REMARK  7 active torsions:
REMARK  status: ('A' for Active; 'I' for Inactive)
REMARK    1  A    between atoms: C_1  and  C_2
REMARK    2  A    between atoms: C_2  and  C_3
REMARK    3  A    between atoms: C_3  and  C_4
REMARK    4  A    between atoms: C_4  and  C_5
REMARK    5  A    between atoms: C_5  and  C_6
REMARK    6  A    between atoms: C_8  and  C_9
REMARK    7  A    between atoms: C_9  and  N_10
REMARK                            x       y       z     vdW  Elec       q    Type
REMARK                         _______ _______ _______ _____ _____    ______ ____
ROOT
ATOM      1  N   UNL     1       2.818   6.541  18.535  0.00  0.00    +0.000 N 
ATOM      2  C   UNL     1       2.517   6.008  19.766  0.00  0.00    +0.000 A 
ATOM      3  N   UNL     1       1.845   6.609  20.692  0.00  0.00    +0.000 NA
ATOM      4  C   UNL     1       1.410   7.914  20.434  0.00  0.00    +0.000 A 
ATOM      5  C   UNL     1       0.770   8.624  21.453  0.00  0.00    +0.000 A 
ATOM      6  C   UNL     1       0.404   9.960  21.264  0.00  0.00    +0.000 A 
ATOM      7  C   UNL     1       0.642  10.577  20.036  0.00  0.00    +0.000 A 
ATOM      8 CL   UNL     1       0.220  12.230  19.817  0.00  0.00    +0.000 Cl
ATOM      9  C   UNL     1       1.243   9.875  18.996  0.00  0.00    +0.000 A 
ATOM     10  C   UNL     1       1.641   8.550  19.211  0.00  0.00    +0.000 A 
ATOM     11  C   UNL     1       2.390   7.810  18.179  0.00  0.00    +0.000 A 
ATOM     12  O   UNL     1       2.625   8.336  17.096  0.00  0.00    +0.000 OA
ENDROOT
BRANCH   1  13
ATOM     13  C   UNL     1       3.667   5.797  17.618  0.00  0.00    +0.000 C 
BRANCH  13  16
ATOM     14  C   UNL     1       7.047   7.089  17.766  0.00  0.00    +0.000 A 
ATOM     15  N   UNL     1       5.772   7.114  17.422  0.00  0.00    +0.000 NA
ATOM     16  C   UNL     1       5.118   6.000  17.936  0.00  0.00    +0.000 A 
ATOM     17  C   UNL     1       5.928   5.142  18.660  0.00  0.00    +0.000 A 
ATOM     18  S   UNL     1       7.532   5.736  18.704  0.00  0.00    +0.000 S 
BRANCH  14  19
ATOM     19  C   UNL     1       8.030   8.148  17.380  0.00  0.00    +0.000 C 
BRANCH  19  20
ATOM     20  C   UNL     1       8.549   8.881  18.620  0.00  0.00    +0.000 C 
BRANCH  20  21
ATOM     21  C   UNL     1       8.967  10.311  18.283  0.00  0.00    +0.000 C 
BRANCH  21  23
ATOM     22  C   UNL     1      11.051  11.433  19.133  0.00  0.00    +0.000 C 
ATOM     23  C   UNL     1       9.641  10.985  19.477  0.00  0.00    +0.000 C 
ENDBRANCH  21  23
ENDBRANCH  20  21
ENDBRANCH  19  20
ENDBRANCH  14  19
ENDBRANCH  13  16
ENDBRANCH   1  13
TORSDOF 6
ENDMDL
