MODEL 1
REMARK VINA RESULT:      -8.9      0.000      0.000
REMARK  Name = 
REMARK  3 active torsions:
REMARK  status: ('A' for Active; 'I' for Inactive)
REMARK    1  A    between atoms: C_1  and  S_2
REMARK    2  A    between atoms: S_2  and  C_3
REMARK    3  A    between atoms: C_10  and  O_11
REMARK                            x       y       z     vdW  Elec       q    Type
REMARK                         _______ _______ _______ _____ _____    ______ ____
ROOT
ATOM      1  C   UNL     1       6.713   5.449  16.416  0.00  0.00    +0.000 A 
ATOM      2  N   UNL     1       7.088   6.694  16.647  0.00  0.00    +0.000 NA
ATOM      3  N   UNL     1       5.958   7.442  16.490  0.00  0.00    +0.000 NA
ATOM      4  C   UNL     1       4.941   6.637  16.676  0.00  0.00    +0.000 A 
ATOM      5  N   UNL     1       3.702   7.001  17.006  0.00  0.00    +0.000 NA
ATOM      6  C   UNL     1       3.220   6.386  18.040  0.00  0.00    +0.000 A 
ATOM      7  C   UNL     1       3.581   4.970  18.504  0.00  0.00    +0.000 A 
ATOM      8  C   UNL     1       4.672   4.488  17.817  0.00  0.00    +0.000 A 
ATOM      9  N   UNL     1       5.400   5.357  16.918  0.00  0.00    +0.000 N 
ATOM     10  C   UNL     1       2.600   4.426  19.624  0.00  0.00    +0.000 C 
ATOM     11  C   UNL     1       1.183   4.110  19.035  0.00  0.00    +0.000 C 
ATOM     12  C   UNL     1       0.907   2.632  19.267  0.00  0.00    +0.000 C 
ATOM     13  C   UNL     1       1.653   2.315  20.541  0.00  0.00    +0.000 C 
ATOM     14  C   UNL     1       2.948   3.129  20.433  0.00  0.00    +0.000 C 
ATOM     15  C   UNL     1       2.400   5.542  20.714  0.00  0.00    +0.000 C 
ATOM     16  C   UNL     1       1.959   6.866  20.152  0.00  0.00    +0.000 A 
ATOM     17  C   UNL     1       1.252   7.798  20.934  0.00  0.00    +0.000 A 
ATOM     18  C   UNL     1       0.984   9.093  20.457  0.00  0.00    +0.000 A 
ATOM     19  C   UNL     1       1.430   9.475  19.203  0.00  0.00    +0.000 A 
ATOM     20  C   UNL     1       2.101   8.549  18.413  0.00  0.00    +0.000 A 
ATOM     21  C   UNL     1       2.343   7.241  18.872  0.00  0.00    +0.000 A 
ENDROOT
BRANCH   1  23
ATOM     22  C   UNL     1       5.707   4.013  14.243  0.00  0.00    +0.000 C 
ATOM     23  S   UNL     1       7.298   4.777  14.882  0.00  0.00    +0.000 S 
ENDBRANCH   1  23
BRANCH   8  24
ATOM     24  O   UNL     1       5.159   3.199  17.978  0.00  0.00    +0.000 OA
ATOM     25  H   UNL     1       6.049   3.241  18.329  0.00  0.00    +0.000 HD
ENDBRANCH   8  24
TORSDOF 2
ENDMDL
MODEL 2
REMARK VINA RESULT:      -7.7      3.136      6.573
REMARK  Name = 
REMARK  3 active torsions:
REMARK  status: ('A' for Active; 'I' for Inactive)
REMARK    1  A    between atoms: C_1  and  S_2
REMARK    2  A    between atoms: S_2  and  C_3
REMARK    3  A    between atoms: C_10  and  O_11
REMARK                            x       y       z     vdW  Elec       q    Type
REMARK                         _______ _______ _______ _____ _____    ______ ____
ROOT
ATOM      1  C   UNL     1       2.865   2.767  19.532  0.00  0.00    +0.000 A 
ATOM      2  N   UNL     1       2.757   1.676  18.795  0.00  0.00    +0.000 NA
ATOM      3  N   UNL     1       2.587   2.123  17.518  0.00  0.00    +0.000 NA
ATOM      4  C   UNL     1       3.084   3.335  17.472  0.00  0.00    +0.000 A 
ATOM      5  N   UNL     1       3.485   3.978  16.374  0.00  0.00    +0.000 NA
ATOM      6  C   UNL     1       4.686   4.460  16.445  0.00  0.00    +0.000 A 
ATOM      7  C   UNL     1       5.405   4.923  17.717  0.00  0.00    +0.000 A 
ATOM      8  C   UNL     1       4.706   4.552  18.843  0.00  0.00    +0.000 A 
ATOM      9  N   UNL     1       3.546   3.697  18.722  0.00  0.00    +0.000 N 
ATOM     10  C   UNL     1       6.740   5.721  17.408  0.00  0.00    +0.000 C 
ATOM     11  C   UNL     1       6.432   7.133  16.803  0.00  0.00    +0.000 C 
ATOM     12  C   UNL     1       7.026   8.174  17.740  0.00  0.00    +0.000 C 
ATOM     13  C   UNL     1       8.228   7.485  18.340  0.00  0.00    +0.000 C 
ATOM     14  C   UNL     1       7.767   6.038  18.549  0.00  0.00    +0.000 C 
ATOM     15  C   UNL     1       7.566   4.934  16.325  0.00  0.00    +0.000 C 
ATOM     16  C   UNL     1       6.784   4.612  15.082  0.00  0.00    +0.000 A 
ATOM     17  C   UNL     1       7.422   4.397  13.846  0.00  0.00    +0.000 A 
ATOM     18  C   UNL     1       6.705   3.939  12.727  0.00  0.00    +0.000 A 
ATOM     19  C   UNL     1       5.349   3.678  12.832  0.00  0.00    +0.000 A 
ATOM     20  C   UNL     1       4.706   3.919  14.042  0.00  0.00    +0.000 A 
ATOM     21  C   UNL     1       5.412   4.408  15.156  0.00  0.00    +0.000 A 
ENDROOT
BRANCH   1  23
ATOM     22  C   UNL     1       1.521   4.978  20.580  0.00  0.00    +0.000 C 
ATOM     23  S   UNL     1       1.458   3.102  20.559  0.00  0.00    +0.000 S 
ENDBRANCH   1  23
BRANCH   8  24
ATOM     24  O   UNL     1       5.088   4.916  20.126  0.00  0.00    +0.000 OA
ATOM     25  H   UNL     1       6.036   5.049  20.146  0.00  0.00    +0.000 HD
ENDBRANCH   8  24
TORSDOF 2
ENDMDL
MODEL 3
REMARK VINA RESULT:      -6.9      8.817     10.805
REMARK  Name = 
REMARK  3 active torsions:
REMARK  status: ('A' for Active; 'I' for Inactive)
REMARK    1  A    between atoms: C_1  and  S_2
REMARK    2  A    between atoms: S_2  and  C_3
REMARK    3  A    between atoms: C_10  and  O_11
REMARK                            x       y       z     vdW  Elec       q    Type
REMARK                         _______ _______ _______ _____ _____    ______ ____
ROOT
ATOM      1  C   UNL     1      -3.063  13.171  23.861  0.00  0.00    +0.000 A 
ATOM      2  N   UNL     1      -4.012  12.252  23.823  0.00  0.00    +0.000 NA
ATOM      3  N   UNL     1      -4.575  12.370  22.587  0.00  0.00    +0.000 NA
ATOM      4  C   UNL     1      -3.681  12.939  21.816  0.00  0.00    +0.000 A 
ATOM      5  N   UNL     1      -3.647  12.887  20.484  0.00  0.00    +0.000 NA
ATOM      6  C   UNL     1      -2.510  12.504  19.993  0.00  0.00    +0.000 A 
ATOM      7  C   UNL     1      -1.130  12.709  20.629  0.00  0.00    +0.000 A 
ATOM      8  C   UNL     1      -1.245  13.156  21.925  0.00  0.00    +0.000 A 
ATOM      9  N   UNL     1      -2.548  13.226  22.551  0.00  0.00    +0.000 N 
ATOM     10  C   UNL     1       0.057  12.381  19.631  0.00  0.00    +0.000 C 
ATOM     11  C   UNL     1       0.171  13.464  18.505  0.00  0.00    +0.000 C 
ATOM     12  C   UNL     1       1.554  14.090  18.606  0.00  0.00    +0.000 C 
ATOM     13  C   UNL     1       2.423  12.976  19.138  0.00  0.00    +0.000 C 
ATOM     14  C   UNL     1       1.530  12.252  20.152  0.00  0.00    +0.000 C 
ATOM     15  C   UNL     1      -0.241  11.012  18.916  0.00  0.00    +0.000 C 
ATOM     16  C   UNL     1      -1.588  10.957  18.249  0.00  0.00    +0.000 A 
ATOM     17  C   UNL     1      -1.841  10.090  17.170  0.00  0.00    +0.000 A 
ATOM     18  C   UNL     1      -3.139   9.925  16.657  0.00  0.00    +0.000 A 
ATOM     19  C   UNL     1      -4.200  10.612  17.224  0.00  0.00    +0.000 A 
ATOM     20  C   UNL     1      -3.952  11.494  18.270  0.00  0.00    +0.000 A 
ATOM     21  C   UNL     1      -2.650  11.688  18.765  0.00  0.00    +0.000 A 
ENDROOT
BRANCH   1  23
ATOM     22  C   UNL     1      -2.790  15.949  23.815  0.00  0.00    +0.000 C 
ATOM     23  S   UNL     1      -3.425  14.559  24.905  0.00  0.00    +0.000 S 
ENDBRANCH   1  23
BRANCH   8  24
ATOM     24  O   UNL     1      -0.153  13.504  22.706  0.00  0.00    +0.000 OA
ATOM     25  H   UNL     1      -0.146  14.453  22.834  0.00  0.00    +0.000 HD
ENDBRANCH   8  24
TORSDOF 2
ENDMDL
MODEL 4
REMARK VINA RESULT:      -6.8      9.201     11.339
REMARK  Name = 
REMARK  3 active torsions:
REMARK  status: ('A' for Active; 'I' for Inactive)
REMARK    1  A    between atoms: C_1  and  S_2
REMARK    2  A    between atoms: S_2  and  C_3
REMARK    3  A    between atoms: C_10  and  O_11
REMARK                            x       y       z     vdW  Elec       q    Type
REMARK                         _______ _______ _______ _____ _____    ______ ____
ROOT
ATOM      1  C   UNL     1      -5.784  12.721  22.630  0.00  0.00    +0.000 A 
ATOM      2  N   UNL     1      -6.643  11.856  22.121  0.00  0.00    +0.000 NA
ATOM      3  N   UNL     1      -6.615  12.075  20.775  0.00  0.00    +0.000 NA
ATOM      4  C   UNL     1      -5.464  12.641  20.507  0.00  0.00    +0.000 A 
ATOM      5  N   UNL     1      -4.858  12.665  19.319  0.00  0.00    +0.000 NA
ATOM      6  C   UNL     1      -3.629  12.252  19.336  0.00  0.00    +0.000 A 
ATOM      7  C   UNL     1      -2.656  12.348  20.516  0.00  0.00    +0.000 A 
ATOM      8  C   UNL     1      -3.310  12.724  21.667  0.00  0.00    +0.000 A 
ATOM      9  N   UNL     1      -4.753  12.825  21.676  0.00  0.00    +0.000 N 
ATOM     10  C   UNL     1      -1.161  12.017  20.103  0.00  0.00    +0.000 C 
ATOM     11  C   UNL     1      -0.549  13.157  19.219  0.00  0.00    +0.000 C 
ATOM     12  C   UNL     1       0.668  13.704  19.951  0.00  0.00    +0.000 C 
ATOM     13  C   UNL     1       1.198  12.517  20.719  0.00  0.00    +0.000 C 
ATOM     14  C   UNL     1      -0.061  11.782  21.195  0.00  0.00    +0.000 C 
ATOM     15  C   UNL     1      -1.151  10.710  19.228  0.00  0.00    +0.000 C 
ATOM     16  C   UNL     1      -2.079  10.764  18.046  0.00  0.00    +0.000 A 
ATOM     17  C   UNL     1      -1.860   9.976  16.901  0.00  0.00    +0.000 A 
ATOM     18  C   UNL     1      -2.813   9.909  15.870  0.00  0.00    +0.000 A 
ATOM     19  C   UNL     1      -3.999  10.616  15.976  0.00  0.00    +0.000 A 
ATOM     20  C   UNL     1      -4.208  11.421  17.090  0.00  0.00    +0.000 A 
ATOM     21  C   UNL     1      -3.243  11.518  18.110  0.00  0.00    +0.000 A 
ENDROOT
BRANCH   1  23
ATOM     22  C   UNL     1      -5.304  15.426  23.123  0.00  0.00    +0.000 C 
ATOM     23  S   UNL     1      -6.531  14.062  23.519  0.00  0.00    +0.000 S 
ENDBRANCH   1  23
BRANCH   8  24
ATOM     24  O   UNL     1      -2.654  12.969  22.865  0.00  0.00    +0.000 OA
ATOM     25  H   UNL     1      -3.085  12.478  23.565  0.00  0.00    +0.000 HD
ENDBRANCH   8  24
TORSDOF 2
ENDMDL
MODEL 5
REMARK VINA RESULT:      -6.8      2.727      5.397
REMARK  Name = 
REMARK  3 active torsions:
REMARK  status: ('A' for Active; 'I' for Inactive)
REMARK    1  A    between atoms: C_1  and  S_2
REMARK    2  A    between atoms: S_2  and  C_3
REMARK    3  A    between atoms: C_10  and  O_11
REMARK                            x       y       z     vdW  Elec       q    Type
REMARK                         _______ _______ _______ _____ _____    ______ ____
ROOT
ATOM      1  C   UNL     1       1.229   8.671  19.086  0.00  0.00    +0.000 A 
ATOM      2  N   UNL     1       1.215   9.178  17.867  0.00  0.00    +0.000 NA
ATOM      3  N   UNL     1       2.497   9.060  17.416  0.00  0.00    +0.000 NA
ATOM      4  C   UNL     1       3.055   8.098  18.109  0.00  0.00    +0.000 A 
ATOM      5  N   UNL     1       4.128   7.392  17.750  0.00  0.00    +0.000 NA
ATOM      6  C   UNL     1       3.964   6.107  17.797  0.00  0.00    +0.000 A 
ATOM      7  C   UNL     1       3.024   5.346  18.738  0.00  0.00    +0.000 A 
ATOM      8  C   UNL     1       2.176   6.208  19.394  0.00  0.00    +0.000 A 
ATOM      9  N   UNL     1       2.156   7.610  19.036  0.00  0.00    +0.000 N 
ATOM     10  C   UNL     1       3.286   3.782  18.728  0.00  0.00    +0.000 C 
ATOM     11  C   UNL     1       4.639   3.427  19.435  0.00  0.00    +0.000 C 
ATOM     12  C   UNL     1       4.318   2.513  20.609  0.00  0.00    +0.000 C 
ATOM     13  C   UNL     1       3.093   1.755  20.160  0.00  0.00    +0.000 C 
ATOM     14  C   UNL     1       2.266   2.794  19.393  0.00  0.00    +0.000 C 
ATOM     15  C   UNL     1       3.411   3.294  17.239  0.00  0.00    +0.000 C 
ATOM     16  C   UNL     1       4.429   4.056  16.435  0.00  0.00    +0.000 A 
ATOM     17  C   UNL     1       5.052   3.487  15.308  0.00  0.00    +0.000 A 
ATOM     18  C   UNL     1       5.878   4.255  14.469  0.00  0.00    +0.000 A 
ATOM     19  C   UNL     1       6.080   5.598  14.736  0.00  0.00    +0.000 A 
ATOM     20  C   UNL     1       5.493   6.158  15.865  0.00  0.00    +0.000 A 
ATOM     21  C   UNL     1       4.692   5.387  16.727  0.00  0.00    +0.000 A 
ENDROOT
BRANCH   1  23
ATOM     22  C   UNL     1       0.018   8.899  21.591  0.00  0.00    +0.000 C 
ATOM     23  S   UNL     1       1.077   9.870  20.384  0.00  0.00    +0.000 S 
ENDBRANCH   1  23
BRANCH   8  24
ATOM     24  O   UNL     1       1.278   5.794  20.367  0.00  0.00    +0.000 OA
ATOM     25  H   UNL     1       0.394   5.793  20.000  0.00  0.00    +0.000 HD
ENDBRANCH   8  24
TORSDOF 2
ENDMDL
MODEL 6
REMARK VINA RESULT:      -6.6      9.099     11.462
REMARK  Name = 
REMARK  3 active torsions:
REMARK  status: ('A' for Active; 'I' for Inactive)
REMARK    1  A    between atoms: C_1  and  S_2
REMARK    2  A    between atoms: S_2  and  C_3
REMARK    3  A    between atoms: C_10  and  O_11
REMARK                            x       y       z     vdW  Elec       q    Type
REMARK                         _______ _______ _______ _____ _____    ______ ____
ROOT
ATOM      1  C   UNL     1      -5.112  13.265  23.098  0.00  0.00    +0.000 A 
ATOM      2  N   UNL     1      -5.903  12.244  22.820  0.00  0.00    +0.000 NA
ATOM      3  N   UNL     1      -6.020  12.242  21.462  0.00  0.00    +0.000 NA
ATOM      4  C   UNL     1      -4.973  12.873  20.990  0.00  0.00    +0.000 A 
ATOM      5  N   UNL     1      -4.482  12.765  19.755  0.00  0.00    +0.000 NA
ATOM      6  C   UNL     1      -3.216  12.491  19.704  0.00  0.00    +0.000 A 
ATOM      7  C   UNL     1      -2.161  12.880  20.745  0.00  0.00    +0.000 A 
ATOM      8  C   UNL     1      -2.750  13.369  21.888  0.00  0.00    +0.000 A 
ATOM      9  N   UNL     1      -4.189  13.318  22.035  0.00  0.00    +0.000 N 
ATOM     10  C   UNL     1      -0.680  12.643  20.230  0.00  0.00    +0.000 C 
ATOM     11  C   UNL     1      -0.289  13.680  19.123  0.00  0.00    +0.000 C 
ATOM     12  C   UNL     1       0.914  14.463  19.630  0.00  0.00    +0.000 C 
ATOM     13  C   UNL     1       1.648  13.479  20.509  0.00  0.00    +0.000 C 
ATOM     14  C   UNL     1       0.533  12.705  21.222  0.00  0.00    +0.000 C 
ATOM     15  C   UNL     1      -0.590  11.219  19.569  0.00  0.00    +0.000 C 
ATOM     16  C   UNL     1      -1.619  10.982  18.498  0.00  0.00    +0.000 A 
ATOM     17  C   UNL     1      -1.409  10.044  17.470  0.00  0.00    +0.000 A 
ATOM     18  C   UNL     1      -2.434   9.711  16.569  0.00  0.00    +0.000 A 
ATOM     19  C   UNL     1      -3.682  10.298  16.691  0.00  0.00    +0.000 A 
ATOM     20  C   UNL     1      -3.887  11.248  17.685  0.00  0.00    +0.000 A 
ATOM     21  C   UNL     1      -2.855  11.611  18.569  0.00  0.00    +0.000 A 
ENDROOT
BRANCH   1  23
ATOM     22  C   UNL     1      -7.610  13.877  24.184  0.00  0.00    +0.000 C 
ATOM     23  S   UNL     1      -5.932  14.648  23.846  0.00  0.00    +0.000 S 
ENDBRANCH   1  23
BRANCH   8  24
ATOM     24  O   UNL     1      -2.025  13.872  22.958  0.00  0.00    +0.000 OA
ATOM     25  H   UNL     1      -2.397  14.714  23.222  0.00  0.00    +0.000 HD
ENDBRANCH   8  24
TORSDOF 2
ENDMDL
MODEL 7
REMARK VINA RESULT:      -6.6      9.405     11.871
REMARK  Name = 
REMARK  3 active torsions:
REMARK  status: ('A' for Active; 'I' for Inactive)
REMARK    1  A    between atoms: C_1  and  S_2
REMARK    2  A    between atoms: S_2  and  C_3
REMARK    3  A    between atoms: C_10  and  O_11
REMARK                            x       y       z     vdW  Elec       q    Type
REMARK                         _______ _______ _______ _____ _____    ______ ____
ROOT
ATOM      1  C   UNL     1      -6.743  12.571  22.471  0.00  0.00    +0.000 A 
ATOM      2  N   UNL     1      -7.310  11.507  21.932  0.00  0.00    +0.000 NA
ATOM      3  N   UNL     1      -7.089  11.625  20.591  0.00  0.00    +0.000 NA
ATOM      4  C   UNL     1      -6.044  12.403  20.446  0.00  0.00    +0.000 A 
ATOM      5  N   UNL     1      -5.256  12.466  19.373  0.00  0.00    +0.000 NA
ATOM      6  C   UNL     1      -3.992  12.329  19.628  0.00  0.00    +0.000 A 
ATOM      7  C   UNL     1      -3.280  12.719  20.928  0.00  0.00    +0.000 A 
ATOM      8  C   UNL     1      -4.188  13.032  21.913  0.00  0.00    +0.000 A 
ATOM      9  N   UNL     1      -5.601  12.822  21.685  0.00  0.00    +0.000 N 
ATOM     10  C   UNL     1      -1.701  12.686  20.792  0.00  0.00    +0.000 C 
ATOM     11  C   UNL     1      -1.181  13.860  19.895  0.00  0.00    +0.000 C 
ATOM     12  C   UNL     1      -0.245  14.708  20.745  0.00  0.00    +0.000 C 
ATOM     13  C   UNL     1       0.366  13.723  21.712  0.00  0.00    +0.000 C 
ATOM     14  C   UNL     1      -0.786  12.774  22.062  0.00  0.00    +0.000 C 
ATOM     15  C   UNL     1      -1.278  11.349  20.080  0.00  0.00    +0.000 C 
ATOM     16  C   UNL     1      -1.975  11.114  18.768  0.00  0.00    +0.000 A 
ATOM     17  C   UNL     1      -1.405  10.308  17.765  0.00  0.00    +0.000 A 
ATOM     18  C   UNL     1      -2.130   9.961  16.612  0.00  0.00    +0.000 A 
ATOM     19  C   UNL     1      -3.432  10.403  16.452  0.00  0.00    +0.000 A 
ATOM     20  C   UNL     1      -3.990  11.227  17.424  0.00  0.00    +0.000 A 
ATOM     21  C   UNL     1      -3.258  11.604  18.565  0.00  0.00    +0.000 A 
ENDROOT
BRANCH   1  23
ATOM     22  C   UNL     1      -6.714  15.232  23.315  0.00  0.00    +0.000 C 
ATOM     23  S   UNL     1      -7.885  13.784  23.079  0.00  0.00    +0.000 S 
ENDBRANCH   1  23
BRANCH   8  24
ATOM     24  O   UNL     1      -3.815  13.500  23.165  0.00  0.00    +0.000 OA
ATOM     25  H   UNL     1      -4.594  13.578  23.717  0.00  0.00    +0.000 HD
ENDBRANCH   8  24
TORSDOF 2
ENDMDL
MODEL 8
REMARK VINA RESULT:      -6.5      3.072      5.470
REMARK  Name = 
REMARK  3 active torsions:
REMARK  status: ('A' for Active; 'I' for Inactive)
REMARK    1  A    between atoms: C_1  and  S_2
REMARK    2  A    between atoms: S_2  and  C_3
REMARK    3  A    between atoms: C_10  and  O_11
REMARK                            x       y       z     vdW  Elec       q    Type
REMARK                         _______ _______ _______ _____ _____    ______ ____
ROOT
ATOM      1  C   UNL     1       0.824   9.705  19.246  0.00  0.00    +0.000 A 
ATOM      2  N   UNL     1       0.973  10.050  17.980  0.00  0.00    +0.000 NA
ATOM      3  N   UNL     1       2.241   9.666  17.652  0.00  0.00    +0.000 NA
ATOM      4  C   UNL     1       2.580   8.721  18.494  0.00  0.00    +0.000 A 
ATOM      5  N   UNL     1       3.535   7.809  18.307  0.00  0.00    +0.000 NA
ATOM      6  C   UNL     1       3.148   6.585  18.486  0.00  0.00    +0.000 A 
ATOM      7  C   UNL     1       2.033   6.113  19.426  0.00  0.00    +0.000 A 
ATOM      8  C   UNL     1       1.309   7.179  19.908  0.00  0.00    +0.000 A 
ATOM      9  N   UNL     1       1.554   8.509  19.393  0.00  0.00    +0.000 N 
ATOM     10  C   UNL     1       2.021   4.539  19.617  0.00  0.00    +0.000 C 
ATOM     11  C   UNL     1       3.245   4.059  20.468  0.00  0.00    +0.000 C 
ATOM     12  C   UNL     1       2.699   3.365  21.708  0.00  0.00    +0.000 C 
ATOM     13  C   UNL     1       1.391   2.768  21.248  0.00  0.00    +0.000 C 
ATOM     14  C   UNL     1       0.806   3.824  20.303  0.00  0.00    +0.000 C 
ATOM     15  C   UNL     1       2.152   3.853  18.208  0.00  0.00    +0.000 C 
ATOM     16  C   UNL     1       3.334   4.329  17.409  0.00  0.00    +0.000 A 
ATOM     17  C   UNL     1       3.918   3.529  16.409  0.00  0.00    +0.000 A 
ATOM     18  C   UNL     1       4.914   4.038  15.559  0.00  0.00    +0.000 A 
ATOM     19  C   UNL     1       5.329   5.353  15.687  0.00  0.00    +0.000 A 
ATOM     20  C   UNL     1       4.779   6.140  16.694  0.00  0.00    +0.000 A 
ATOM     21  C   UNL     1       3.805   5.626  17.569  0.00  0.00    +0.000 A 
ENDROOT
BRANCH   1  23
ATOM     22  C   UNL     1       0.031  10.225  21.871  0.00  0.00    +0.000 C 
ATOM     23  S   UNL     1       0.802  11.067  20.382  0.00  0.00    +0.000 S 
ENDBRANCH   1  23
BRANCH   8  24
ATOM     24  O   UNL     1       0.294   7.044  20.845  0.00  0.00    +0.000 OA
ATOM     25  H   UNL     1       0.331   6.166  21.223  0.00  0.00    +0.000 HD
ENDBRANCH   8  24
TORSDOF 2
ENDMDL
MODEL 9
REMARK VINA RESULT:      -6.5      8.219     11.087
REMARK  Name = 
REMARK  3 active torsions:
REMARK  status: ('A' for Active; 'I' for Inactive)
REMARK    1  A    between atoms: C_1  and  S_2
REMARK    2  A    between atoms: S_2  and  C_3
REMARK    3  A    between atoms: C_10  and  O_11
REMARK                            x       y       z     vdW  Elec       q    Type
REMARK                         _______ _______ _______ _____ _____    ______ ____
ROOT
ATOM      1  C   UNL     1      -0.751  11.399  19.767  0.00  0.00    +0.000 A 
ATOM      2  N   UNL     1      -0.666  10.750  20.914  0.00  0.00    +0.000 NA
ATOM      3  N   UNL     1      -1.275  11.558  21.829  0.00  0.00    +0.000 NA
ATOM      4  C   UNL     1      -2.090  12.338  21.161  0.00  0.00    +0.000 A 
ATOM      5  N   UNL     1      -3.144  12.983  21.661  0.00  0.00    +0.000 NA
ATOM      6  C   UNL     1      -4.250  12.784  21.014  0.00  0.00    +0.000 A 
ATOM      7  C   UNL     1      -4.383  12.469  19.519  0.00  0.00    +0.000 A 
ATOM      8  C   UNL     1      -3.156  12.186  18.963  0.00  0.00    +0.000 A 
ATOM      9  N   UNL     1      -1.990  12.068  19.811  0.00  0.00    +0.000 N 
ATOM     10  C   UNL     1      -5.879  12.574  19.004  0.00  0.00    +0.000 C 
ATOM     11  C   UNL     1      -6.362  14.064  18.959  0.00  0.00    +0.000 C 
ATOM     12  C   UNL     1      -6.735  14.382  17.519  0.00  0.00    +0.000 C 
ATOM     13  C   UNL     1      -7.217  13.064  16.964  0.00  0.00    +0.000 C 
ATOM     14  C   UNL     1      -6.280  12.025  17.592  0.00  0.00    +0.000 C 
ATOM     15  C   UNL     1      -6.821  11.823  20.015  0.00  0.00    +0.000 C 
ATOM     16  C   UNL     1      -6.667  12.277  21.440  0.00  0.00    +0.000 A 
ATOM     17  C   UNL     1      -7.709  12.134  22.375  0.00  0.00    +0.000 A 
ATOM     18  C   UNL     1      -7.507  12.410  23.738  0.00  0.00    +0.000 A 
ATOM     19  C   UNL     1      -6.261  12.818  24.185  0.00  0.00    +0.000 A 
ATOM     20  C   UNL     1      -5.236  12.992  23.262  0.00  0.00    +0.000 A 
ATOM     21  C   UNL     1      -5.442  12.749  21.892  0.00  0.00    +0.000 A 
ENDROOT
BRANCH   1  23
ATOM     22  C   UNL     1       0.192  13.752  18.599  0.00  0.00    +0.000 C 
ATOM     23  S   UNL     1       0.785  12.071  19.188  0.00  0.00    +0.000 S 
ENDBRANCH   1  23
BRANCH   8  24
ATOM     24  O   UNL     1      -2.976  11.948  17.608  0.00  0.00    +0.000 OA
ATOM     25  H   UNL     1      -3.073  12.771  17.129  0.00  0.00    +0.000 HD
ENDBRANCH   8  24
TORSDOF 2
ENDMDL
