MODEL 1
REMARK VINA RESULT:      -7.9      0.000      0.000
REMARK  Name = 
REMARK  12 active torsions:
REMARK  status: ('A' for Active; 'I' for Inactive)
REMARK    1  A    between atoms: C_1  and  C_2
REMARK    2  A    between atoms: C_2  and  O_3
REMARK    3  A    between atoms: C_2  and  C_4
REMARK    4  A    between atoms: C_8  and  C_9
REMARK    5  A    between atoms: C_9  and  O_11
REMARK    6  A    between atoms: C_12  and  S_13
REMARK    7  A    between atoms: S_13  and  C_14
REMARK    8  A    between atoms: C_17  and  C_18
REMARK    9  A    between atoms: N_21  and  C_22
REMARK   10  A    between atoms: N_21  and  C_23
REMARK   11  A    between atoms: C_23  and  C_24
REMARK   12  A    between atoms: C_29  and  C_30
REMARK                            x       y       z     vdW  Elec       q    Type
REMARK                         _______ _______ _______ _____ _____    ______ ____
ROOT
ATOM      1  S   UNL     1       2.156   7.733  20.505  0.00  0.00    +0.000 S 
ENDROOT
BRANCH   1   7
ATOM      2  C   UNL     1      -0.940  11.447  18.302  0.00  0.00    +0.000 C 
ATOM      3  C   UNL     1      -0.916  11.538  19.840  0.00  0.00    +0.000 C 
ATOM      4  O   UNL     1      -0.890  12.389  20.702  0.00  0.00    +0.000 OA
ATOM      5  N   UNL     1      -0.818  10.188  19.970  0.00  0.00    +0.000 N 
ATOM      6  C   UNL     1       0.127   9.578  20.768  0.00  0.00    +0.000 C 
ATOM      7  C   UNL     1       1.114   9.031  20.034  0.00  0.00    +0.000 C 
ATOM      8  C   UNL     1       0.952   9.392  18.568  0.00  0.00    +0.000 C 
ATOM      9  C   UNL     1       1.963  10.420  18.075  0.00  0.00    +0.000 C 
ATOM     10  C   UNL     1      -0.482   9.958  18.534  0.00  0.00    +0.000 C 
BRANCH   2  12
ATOM     11  C   UNL     1      -2.882  10.259  17.207  0.00  0.00    +0.000 C 
ATOM     12  C   UNL     1      -2.311  11.599  17.648  0.00  0.00    +0.000 C 
BRANCH  12  13
ATOM     13  O   UNL     1      -3.186  12.214  18.595  0.00  0.00    +0.000 OA
ATOM     14  H   UNL     1      -2.949  13.155  18.676  0.00  0.00    +0.000 HD
ENDBRANCH  12  13
ENDBRANCH   2  12
BRANCH   6  15
ATOM     15  C   UNL     1      -0.109   9.454  22.234  0.00  0.00    +0.000 C 
ATOM     16  O   UNL     1       0.306  10.235  23.075  0.00  0.00    +0.000 OA
BRANCH  15  17
ATOM     17  O   UNL     1      -0.896   8.404  22.562  0.00  0.00    +0.000 OA
ATOM     18  H   UNL     1      -1.676   8.262  21.980  0.00  0.00    +0.000 HD
ENDBRANCH  15  17
ENDBRANCH   6  15
ENDBRANCH   1   7
BRANCH   1  19
ATOM     19  C   UNL     1       1.602   6.241  19.630  0.00  0.00    +0.000 C 
ATOM     20  C   UNL     1       1.949   5.036  20.507  0.00  0.00    +0.000 C 
ATOM     21  N   UNL     1       1.993   3.875  19.611  0.00  0.00    +0.000 NA
ATOM     22  C   UNL     1       2.427   4.370  18.285  0.00  0.00    +0.000 C 
ATOM     23  C   UNL     1       2.295   5.902  18.311  0.00  0.00    +0.000 C 
ATOM     24  H   UNL     1       1.040   3.508  19.531  0.00  0.00    +0.000 HD
BRANCH  22  25
ATOM     25  C   UNL     1       3.799   3.804  17.782  0.00  0.00    +0.000 C 
ATOM     26  C   UNL     1       4.773   3.522  18.907  0.00  0.00    +0.000 C 
ATOM     27  C   UNL     1       5.558   4.810  18.994  0.00  0.00    +0.000 C 
ATOM     28  N   UNL     1       5.698   5.206  17.542  0.00  0.00    +0.000 N 
ATOM     29  C   UNL     1       5.672   6.699  17.269  0.00  0.00    +0.000 C 
ATOM     30  O   UNL     1       4.526   4.641  16.851  0.00  0.00    +0.000 OA
BRANCH  28  31
ATOM     31  C   UNL     1       7.018   4.662  16.902  0.00  0.00    +0.000 C 
BRANCH  31  32
ATOM     32  C   UNL     1       6.998   4.623  15.351  0.00  0.00    +0.000 C 
ATOM     33  N   UNL     1       6.295   3.600  14.778  0.00  0.00    +0.000 N 
ATOM     34  O   UNL     1       7.631   5.397  14.633  0.00  0.00    +0.000 OA
ATOM     35  H   UNL     1       5.343   3.511  15.156  0.00  0.00    +0.000 HD
ATOM     36  H   UNL     1       6.226   3.718  13.771  0.00  0.00    +0.000 HD
ENDBRANCH  31  32
ENDBRANCH  28  31
ENDBRANCH  22  25
ENDBRANCH   1  19
TORSDOF 9
ENDMDL
MODEL 2
REMARK VINA RESULT:      -7.4      2.723      9.534
REMARK  Name = 
REMARK  12 active torsions:
REMARK  status: ('A' for Active; 'I' for Inactive)
REMARK    1  A    between atoms: C_1  and  C_2
REMARK    2  A    between atoms: C_2  and  O_3
REMARK    3  A    between atoms: C_2  and  C_4
REMARK    4  A    between atoms: C_8  and  C_9
REMARK    5  A    between atoms: C_9  and  O_11
REMARK    6  A    between atoms: C_12  and  S_13
REMARK    7  A    between atoms: S_13  and  C_14
REMARK    8  A    between atoms: C_17  and  C_18
REMARK    9  A    between atoms: N_21  and  C_22
REMARK   10  A    between atoms: N_21  and  C_23
REMARK   11  A    between atoms: C_23  and  C_24
REMARK   12  A    between atoms: C_29  and  C_30
REMARK                            x       y       z     vdW  Elec       q    Type
REMARK                         _______ _______ _______ _____ _____    ______ ____
ROOT
ATOM      1  S   UNL     1       0.999   6.817  21.098  0.00  0.00    +0.000 S 
ENDROOT
BRANCH   1   7
ATOM      2  C   UNL     1       4.835   4.752  18.056  0.00  0.00    +0.000 C 
ATOM      3  C   UNL     1       3.879   3.677  18.607  0.00  0.00    +0.000 C 
ATOM      4  O   UNL     1       3.340   2.658  18.232  0.00  0.00    +0.000 OA
ATOM      5  N   UNL     1       3.707   4.354  19.774  0.00  0.00    +0.000 N 
ATOM      6  C   UNL     1       2.465   4.622  20.310  0.00  0.00    +0.000 C 
ATOM      7  C   UNL     1       2.125   5.914  20.146  0.00  0.00    +0.000 C 
ATOM      8  C   UNL     1       3.152   6.631  19.286  0.00  0.00    +0.000 C 
ATOM      9  C   UNL     1       2.663   6.940  17.877  0.00  0.00    +0.000 C 
ATOM     10  C   UNL     1       4.315   5.618  19.265  0.00  0.00    +0.000 C 
BRANCH   2  12
ATOM     11  C   UNL     1       7.035   4.777  16.815  0.00  0.00    +0.000 C 
ATOM     12  C   UNL     1       6.322   4.409  18.109  0.00  0.00    +0.000 C 
BRANCH  12  13
ATOM     13  O   UNL     1       6.900   5.120  19.203  0.00  0.00    +0.000 OA
ATOM     14  H   UNL     1       6.200   5.328  19.848  0.00  0.00    +0.000 HD
ENDBRANCH  12  13
ENDBRANCH   2  12
BRANCH   6  15
ATOM     15  C   UNL     1       1.756   3.576  21.099  0.00  0.00    +0.000 C 
ATOM     16  O   UNL     1       2.129   3.143  22.178  0.00  0.00    +0.000 OA
BRANCH  15  17
ATOM     17  O   UNL     1       0.596   3.174  20.530  0.00  0.00    +0.000 OA
ATOM     18  H   UNL     1       0.223   3.782  19.853  0.00  0.00    +0.000 HD
ENDBRANCH  15  17
ENDBRANCH   6  15
ENDBRANCH   1   7
BRANCH   1  19
ATOM     19  C   UNL     1       1.372   8.579  20.863  0.00  0.00    +0.000 C 
ATOM     20  C   UNL     1       1.178   9.276  22.212  0.00  0.00    +0.000 C 
ATOM     21  N   UNL     1       0.963  10.696  21.913  0.00  0.00    +0.000 NA
ATOM     22  C   UNL     1       0.302  10.763  20.590  0.00  0.00    +0.000 C 
ATOM     23  C   UNL     1       0.451   9.376  19.942  0.00  0.00    +0.000 C 
ATOM     24  H   UNL     1       1.882  11.143  21.846  0.00  0.00    +0.000 HD
BRANCH  22  25
ATOM     25  C   UNL     1      -1.143  11.369  20.601  0.00  0.00    +0.000 C 
ATOM     26  C   UNL     1      -1.305  12.534  19.646  0.00  0.00    +0.000 C 
ATOM     27  C   UNL     1      -1.010  13.726  20.526  0.00  0.00    +0.000 C 
ATOM     28  N   UNL     1      -1.648  13.331  21.838  0.00  0.00    +0.000 N 
ATOM     29  C   UNL     1      -0.925  13.806  23.085  0.00  0.00    +0.000 C 
ATOM     30  O   UNL     1      -1.615  11.858  21.879  0.00  0.00    +0.000 OA
BRANCH  28  31
ATOM     31  C   UNL     1      -3.121  13.842  21.959  0.00  0.00    +0.000 C 
BRANCH  31  32
ATOM     32  C   UNL     1      -4.130  12.759  22.428  0.00  0.00    +0.000 C 
ATOM     33  N   UNL     1      -3.915  12.225  23.668  0.00  0.00    +0.000 N 
ATOM     34  O   UNL     1      -5.039  12.313  21.728  0.00  0.00    +0.000 OA
ATOM     35  H   UNL     1      -3.789  12.943  24.393  0.00  0.00    +0.000 HD
ATOM     36  H   UNL     1      -4.684  11.623  23.949  0.00  0.00    +0.000 HD
ENDBRANCH  31  32
ENDBRANCH  28  31
ENDBRANCH  22  25
ENDBRANCH   1  19
TORSDOF 9
ENDMDL
MODEL 3
REMARK VINA RESULT:      -7.1      0.989      1.083
REMARK  Name = 
REMARK  12 active torsions:
REMARK  status: ('A' for Active; 'I' for Inactive)
REMARK    1  A    between atoms: C_1  and  C_2
REMARK    2  A    between atoms: C_2  and  O_3
REMARK    3  A    between atoms: C_2  and  C_4
REMARK    4  A    between atoms: C_8  and  C_9
REMARK    5  A    between atoms: C_9  and  O_11
REMARK    6  A    between atoms: C_12  and  S_13
REMARK    7  A    between atoms: S_13  and  C_14
REMARK    8  A    between atoms: C_17  and  C_18
REMARK    9  A    between atoms: N_21  and  C_22
REMARK   10  A    between atoms: N_21  and  C_23
REMARK   11  A    between atoms: C_23  and  C_24
REMARK   12  A    between atoms: C_29  and  C_30
REMARK                            x       y       z     vdW  Elec       q    Type
REMARK                         _______ _______ _______ _____ _____    ______ ____
ROOT
ATOM      1  S   UNL     1       2.303   7.494  20.585  0.00  0.00    +0.000 S 
ENDROOT
BRANCH   1   7
ATOM      2  C   UNL     1      -0.864  11.105  18.313  0.00  0.00    +0.000 C 
ATOM      3  C   UNL     1      -0.808  11.254  19.846  0.00  0.00    +0.000 C 
ATOM      4  O   UNL     1      -0.769  12.136  20.675  0.00  0.00    +0.000 OA
ATOM      5  N   UNL     1      -0.698   9.910  20.023  0.00  0.00    +0.000 N 
ATOM      6  C   UNL     1       0.267   9.335  20.823  0.00  0.00    +0.000 C 
ATOM      7  C   UNL     1       1.242   8.767  20.089  0.00  0.00    +0.000 C 
ATOM      8  C   UNL     1       1.047   9.073  18.614  0.00  0.00    +0.000 C 
ATOM      9  C   UNL     1       2.041  10.087  18.062  0.00  0.00    +0.000 C 
ATOM     10  C   UNL     1      -0.392   9.628  18.590  0.00  0.00    +0.000 C 
BRANCH   2  12
ATOM     11  C   UNL     1      -3.215  11.989  18.580  0.00  0.00    +0.000 C 
ATOM     12  C   UNL     1      -2.250  11.226  17.684  0.00  0.00    +0.000 C 
BRANCH  12  13
ATOM     13  O   UNL     1      -2.109  11.898  16.433  0.00  0.00    +0.000 OA
ATOM     14  H   UNL     1      -2.107  11.236  15.718  0.00  0.00    +0.000 HD
ENDBRANCH  12  13
ENDBRANCH   2  12
BRANCH   6  15
ATOM     15  C   UNL     1       0.064   9.265  22.297  0.00  0.00    +0.000 C 
ATOM     16  O   UNL     1       0.646   9.959  23.116  0.00  0.00    +0.000 OA
BRANCH  15  17
ATOM     17  O   UNL     1      -0.893   8.381  22.662  0.00  0.00    +0.000 OA
ATOM     18  H   UNL     1      -0.766   7.958  23.541  0.00  0.00    +0.000 HD
ENDBRANCH  15  17
ENDBRANCH   6  15
ENDBRANCH   1   7
BRANCH   1  19
ATOM     19  C   UNL     1       1.495   5.919  20.177  0.00  0.00    +0.000 C 
ATOM     20  C   UNL     1       2.166   4.826  21.013  0.00  0.00    +0.000 C 
ATOM     21  N   UNL     1       1.899   3.559  20.323  0.00  0.00    +0.000 NA
ATOM     22  C   UNL     1       1.801   3.868  18.878  0.00  0.00    +0.000 C 
ATOM     23  C   UNL     1       1.657   5.394  18.752  0.00  0.00    +0.000 C 
ATOM     24  H   UNL     1       0.992   3.213  20.648  0.00  0.00    +0.000 HD
BRANCH  22  25
ATOM     25  C   UNL     1       2.901   3.202  17.982  0.00  0.00    +0.000 C 
ATOM     26  C   UNL     1       4.157   2.847  18.750  0.00  0.00    +0.000 C 
ATOM     27  C   UNL     1       5.019   4.072  18.557  0.00  0.00    +0.000 C 
ATOM     28  N   UNL     1       4.722   4.460  17.127  0.00  0.00    +0.000 N 
ATOM     29  C   UNL     1       4.718   5.951  16.842  0.00  0.00    +0.000 C 
ATOM     30  O   UNL     1       3.356   3.984  16.852  0.00  0.00    +0.000 OA
BRANCH  28  31
ATOM     31  C   UNL     1       5.731   3.820  16.116  0.00  0.00    +0.000 C 
BRANCH  31  32
ATOM     32  C   UNL     1       7.106   4.538  16.056  0.00  0.00    +0.000 C 
ATOM     33  N   UNL     1       7.938   4.347  17.125  0.00  0.00    +0.000 N 
ATOM     34  O   UNL     1       7.443   5.310  15.159  0.00  0.00    +0.000 OA
ATOM     35  H   UNL     1       8.057   3.354  17.364  0.00  0.00    +0.000 HD
ATOM     36  H   UNL     1       8.858   4.742  16.951  0.00  0.00    +0.000 HD
ENDBRANCH  31  32
ENDBRANCH  28  31
ENDBRANCH  22  25
ENDBRANCH   1  19
TORSDOF 9
ENDMDL
MODEL 4
REMARK VINA RESULT:      -7.0      1.666      2.771
REMARK  Name = 
REMARK  12 active torsions:
REMARK  status: ('A' for Active; 'I' for Inactive)
REMARK    1  A    between atoms: C_1  and  C_2
REMARK    2  A    between atoms: C_2  and  O_3
REMARK    3  A    between atoms: C_2  and  C_4
REMARK    4  A    between atoms: C_8  and  C_9
REMARK    5  A    between atoms: C_9  and  O_11
REMARK    6  A    between atoms: C_12  and  S_13
REMARK    7  A    between atoms: S_13  and  C_14
REMARK    8  A    between atoms: C_17  and  C_18
REMARK    9  A    between atoms: N_21  and  C_22
REMARK   10  A    between atoms: N_21  and  C_23
REMARK   11  A    between atoms: C_23  and  C_24
REMARK   12  A    between atoms: C_29  and  C_30
REMARK                            x       y       z     vdW  Elec       q    Type
REMARK                         _______ _______ _______ _____ _____    ______ ____
ROOT
ATOM      1  S   UNL     1       2.324   7.678  20.438  0.00  0.00    +0.000 S 
ENDROOT
BRANCH   1   7
ATOM      2  C   UNL     1      -1.069  11.602  21.584  0.00  0.00    +0.000 C 
ATOM      3  C   UNL     1      -1.041  11.270  20.079  0.00  0.00    +0.000 C 
ATOM      4  O   UNL     1      -1.817  11.170  19.154  0.00  0.00    +0.000 OA
ATOM      5  N   UNL     1       0.287  10.979  20.117  0.00  0.00    +0.000 N 
ATOM      6  C   UNL     1       0.816   9.821  19.588  0.00  0.00    +0.000 C 
ATOM      7  C   UNL     1       1.156   8.948  20.555  0.00  0.00    +0.000 C 
ATOM      8  C   UNL     1       0.707   9.456  21.914  0.00  0.00    +0.000 C 
ATOM      9  C   UNL     1      -0.491   8.705  22.483  0.00  0.00    +0.000 C 
ATOM     10  C   UNL     1       0.352  10.925  21.606  0.00  0.00    +0.000 C 
BRANCH   2  12
ATOM     11  C   UNL     1      -2.433  13.726  21.683  0.00  0.00    +0.000 C 
ATOM     12  C   UNL     1      -1.075  13.088  21.936  0.00  0.00    +0.000 C 
BRANCH  12  13
ATOM     13  O   UNL     1      -0.725  13.215  23.315  0.00  0.00    +0.000 OA
ATOM     14  H   UNL     1       0.150  12.811  23.455  0.00  0.00    +0.000 HD
ENDBRANCH  12  13
ENDBRANCH   2  12
BRANCH   6  15
ATOM     15  C   UNL     1       1.088   9.729  18.126  0.00  0.00    +0.000 C 
ATOM     16  O   UNL     1       2.200   9.715  17.622  0.00  0.00    +0.000 OA
BRANCH  15  17
ATOM     17  O   UNL     1      -0.035   9.598  17.382  0.00  0.00    +0.000 OA
ATOM     18  H   UNL     1      -0.880   9.753  17.859  0.00  0.00    +0.000 HD
ENDBRANCH  15  17
ENDBRANCH   6  15
ENDBRANCH   1   7
BRANCH   1  19
ATOM     19  C   UNL     1       1.631   6.395  19.355  0.00  0.00    +0.000 C 
ATOM     20  C   UNL     1       1.790   5.051  20.070  0.00  0.00    +0.000 C 
ATOM     21  N   UNL     1       1.731   4.022  19.026  0.00  0.00    +0.000 NA
ATOM     22  C   UNL     1       2.279   4.627  17.791  0.00  0.00    +0.000 C 
ATOM     23  C   UNL     1       2.333   6.147  18.021  0.00  0.00    +0.000 C 
ATOM     24  H   UNL     1       0.745   3.791  18.872  0.00  0.00    +0.000 HD
BRANCH  22  25
ATOM     25  C   UNL     1       3.591   3.963  17.252  0.00  0.00    +0.000 C 
ATOM     26  C   UNL     1       4.430   3.334  18.346  0.00  0.00    +0.000 C 
ATOM     27  C   UNL     1       5.379   4.449  18.717  0.00  0.00    +0.000 C 
ATOM     28  N   UNL     1       5.680   5.082  17.378  0.00  0.00    +0.000 N 
ATOM     29  C   UNL     1       5.884   6.586  17.398  0.00  0.00    +0.000 C 
ATOM     30  O   UNL     1       4.496   4.838  16.536  0.00  0.00    +0.000 OA
BRANCH  28  31
ATOM     31  C   UNL     1       6.955   4.472  16.706  0.00  0.00    +0.000 C 
BRANCH  31  32
ATOM     32  C   UNL     1       6.972   4.591  15.159  0.00  0.00    +0.000 C 
ATOM     33  N   UNL     1       6.296   3.624  14.468  0.00  0.00    +0.000 N 
ATOM     34  O   UNL     1       7.612   5.440  14.539  0.00  0.00    +0.000 OA
ATOM     35  H   UNL     1       5.336   3.488  14.812  0.00  0.00    +0.000 HD
ATOM     36  H   UNL     1       6.249   3.843  13.477  0.00  0.00    +0.000 HD
ENDBRANCH  31  32
ENDBRANCH  28  31
ENDBRANCH  22  25
ENDBRANCH   1  19
TORSDOF 9
ENDMDL
MODEL 5
REMARK VINA RESULT:      -6.9      2.500      8.951
REMARK  Name = 
REMARK  12 active torsions:
REMARK  status: ('A' for Active; 'I' for Inactive)
REMARK    1  A    between atoms: C_1  and  C_2
REMARK    2  A    between atoms: C_2  and  O_3
REMARK    3  A    between atoms: C_2  and  C_4
REMARK    4  A    between atoms: C_8  and  C_9
REMARK    5  A    between atoms: C_9  and  O_11
REMARK    6  A    between atoms: C_12  and  S_13
REMARK    7  A    between atoms: S_13  and  C_14
REMARK    8  A    between atoms: C_17  and  C_18
REMARK    9  A    between atoms: N_21  and  C_22
REMARK   10  A    between atoms: N_21  and  C_23
REMARK   11  A    between atoms: C_23  and  C_24
REMARK   12  A    between atoms: C_29  and  C_30
REMARK                            x       y       z     vdW  Elec       q    Type
REMARK                         _______ _______ _______ _____ _____    ______ ____
ROOT
ATOM      1  S   UNL     1       2.604   8.490  17.845  0.00  0.00    +0.000 S 
ENDROOT
BRANCH   1   7
ATOM      2  C   UNL     1       3.461   3.467  19.352  0.00  0.00    +0.000 C 
ATOM      3  C   UNL     1       4.716   4.120  18.741  0.00  0.00    +0.000 C 
ATOM      4  O   UNL     1       5.913   4.145  18.928  0.00  0.00    +0.000 OA
ATOM      5  N   UNL     1       3.973   4.845  17.863  0.00  0.00    +0.000 N 
ATOM      6  C   UNL     1       4.133   6.204  17.687  0.00  0.00    +0.000 C 
ATOM      7  C   UNL     1       3.133   6.897  18.263  0.00  0.00    +0.000 C 
ATOM      8  C   UNL     1       2.227   5.969  19.053  0.00  0.00    +0.000 C 
ATOM      9  C   UNL     1       2.387   6.097  20.564  0.00  0.00    +0.000 C 
ATOM     10  C   UNL     1       2.679   4.580  18.559  0.00  0.00    +0.000 C 
BRANCH   2  12
ATOM     11  C   UNL     1       1.796   1.915  18.257  0.00  0.00    +0.000 C 
ATOM     12  C   UNL     1       3.169   2.038  18.903  0.00  0.00    +0.000 C 
BRANCH  12  13
ATOM     13  O   UNL     1       4.182   1.652  17.974  0.00  0.00    +0.000 OA
ATOM     14  H   UNL     1       4.931   2.269  18.052  0.00  0.00    +0.000 HD
ENDBRANCH  12  13
ENDBRANCH   2  12
BRANCH   6  15
ATOM     15  C   UNL     1       5.222   6.715  16.809  0.00  0.00    +0.000 C 
ATOM     16  O   UNL     1       5.104   6.951  15.617  0.00  0.00    +0.000 OA
BRANCH  15  17
ATOM     17  O   UNL     1       6.374   6.960  17.474  0.00  0.00    +0.000 OA
ATOM     18  H   UNL     1       6.563   6.360  18.230  0.00  0.00    +0.000 HD
ENDBRANCH  15  17
ENDBRANCH   6  15
ENDBRANCH   1   7
BRANCH   1  19
ATOM     19  C   UNL     1       0.987   8.753  18.631  0.00  0.00    +0.000 C 
ATOM     20  C   UNL     1       0.184   9.694  17.730  0.00  0.00    +0.000 C 
ATOM     21  N   UNL     1      -0.844  10.300  18.583  0.00  0.00    +0.000 NA
ATOM     22  C   UNL     1      -0.280  10.380  19.950  0.00  0.00    +0.000 C 
ATOM     23  C   UNL     1       0.969   9.481  19.973  0.00  0.00    +0.000 C 
ATOM     24  H   UNL     1      -1.650   9.669  18.595  0.00  0.00    +0.000 HD
BRANCH  22  25
ATOM     25  C   UNL     1      -0.097  11.832  20.509  0.00  0.00    +0.000 C 
ATOM     26  C   UNL     1      -0.917  12.863  19.761  0.00  0.00    +0.000 C 
ATOM     27  C   UNL     1       0.051  13.355  18.710  0.00  0.00    +0.000 C 
ATOM     28  N   UNL     1       1.363  13.381  19.460  0.00  0.00    +0.000 N 
ATOM     29  C   UNL     1       2.590  13.031  18.638  0.00  0.00    +0.000 C 
ATOM     30  O   UNL     1       1.257  12.346  20.502  0.00  0.00    +0.000 OA
BRANCH  28  31
ATOM     31  C   UNL     1       1.648  14.776  20.109  0.00  0.00    +0.000 C 
BRANCH  31  32
ATOM     32  C   UNL     1       1.731  14.747  21.658  0.00  0.00    +0.000 C 
ATOM     33  N   UNL     1       0.553  14.912  22.333  0.00  0.00    +0.000 N 
ATOM     34  O   UNL     1       2.783  14.664  22.292  0.00  0.00    +0.000 OA
ATOM     35  H   UNL     1      -0.189  14.284  21.996  0.00  0.00    +0.000 HD
ATOM     36  H   UNL     1       0.673  14.754  23.329  0.00  0.00    +0.000 HD
ENDBRANCH  31  32
ENDBRANCH  28  31
ENDBRANCH  22  25
ENDBRANCH   1  19
TORSDOF 9
ENDMDL
MODEL 6
REMARK VINA RESULT:      -6.9      1.629      2.690
REMARK  Name = 
REMARK  12 active torsions:
REMARK  status: ('A' for Active; 'I' for Inactive)
REMARK    1  A    between atoms: C_1  and  C_2
REMARK    2  A    between atoms: C_2  and  O_3
REMARK    3  A    between atoms: C_2  and  C_4
REMARK    4  A    between atoms: C_8  and  C_9
REMARK    5  A    between atoms: C_9  and  O_11
REMARK    6  A    between atoms: C_12  and  S_13
REMARK    7  A    between atoms: S_13  and  C_14
REMARK    8  A    between atoms: C_17  and  C_18
REMARK    9  A    between atoms: N_21  and  C_22
REMARK   10  A    between atoms: N_21  and  C_23
REMARK   11  A    between atoms: C_23  and  C_24
REMARK   12  A    between atoms: C_29  and  C_30
REMARK                            x       y       z     vdW  Elec       q    Type
REMARK                         _______ _______ _______ _____ _____    ______ ____
ROOT
ATOM      1  S   UNL     1       2.354   7.726  20.530  0.00  0.00    +0.000 S 
ENDROOT
BRANCH   1   7
ATOM      2  C   UNL     1      -1.322  11.549  20.851  0.00  0.00    +0.000 C 
ATOM      3  C   UNL     1      -0.992  11.172  19.394  0.00  0.00    +0.000 C 
ATOM      4  O   UNL     1      -1.569  11.014  18.340  0.00  0.00    +0.000 OA
ATOM      5  N   UNL     1       0.312  10.935  19.697  0.00  0.00    +0.000 N 
ATOM      6  C   UNL     1       0.971   9.782  19.325  0.00  0.00    +0.000 C 
ATOM      7  C   UNL     1       1.145   8.953  20.372  0.00  0.00    +0.000 C 
ATOM      8  C   UNL     1       0.425   9.484  21.598  0.00  0.00    +0.000 C 
ATOM      9  C   UNL     1      -0.836   8.706  21.953  0.00  0.00    +0.000 C 
ATOM     10  C   UNL     1       0.089  10.929  21.173  0.00  0.00    +0.000 C 
BRANCH   2  12
ATOM     11  C   UNL     1      -0.200  13.592  21.825  0.00  0.00    +0.000 C 
ATOM     12  C   UNL     1      -1.444  13.043  21.140  0.00  0.00    +0.000 C 
BRANCH  12  13
ATOM     13  O   UNL     1      -1.654  13.717  19.899  0.00  0.00    +0.000 OA
ATOM     14  H   UNL     1      -2.034  13.087  19.260  0.00  0.00    +0.000 HD
ENDBRANCH  12  13
ENDBRANCH   2  12
BRANCH   6  15
ATOM     15  C   UNL     1       1.524   9.655  17.947  0.00  0.00    +0.000 C 
ATOM     16  O   UNL     1       1.326   8.711  17.200  0.00  0.00    +0.000 OA
BRANCH  15  17
ATOM     17  O   UNL     1       2.239  10.736  17.558  0.00  0.00    +0.000 OA
ATOM     18  H   UNL     1       2.835  11.118  18.240  0.00  0.00    +0.000 HD
ENDBRANCH  15  17
ENDBRANCH   6  15
ENDBRANCH   1   7
BRANCH   1  19
ATOM     19  C   UNL     1       1.744   6.244  19.674  0.00  0.00    +0.000 C 
ATOM     20  C   UNL     1       2.077   5.035  20.552  0.00  0.00    +0.000 C 
ATOM     21  N   UNL     1       2.073   3.869  19.662  0.00  0.00    +0.000 NA
ATOM     22  C   UNL     1       2.494   4.345  18.325  0.00  0.00    +0.000 C 
ATOM     23  C   UNL     1       2.402   5.880  18.345  0.00  0.00    +0.000 C 
ATOM     24  H   UNL     1       1.110   3.526  19.602  0.00  0.00    +0.000 HD
BRANCH  22  25
ATOM     25  C   UNL     1       3.841   3.741  17.799  0.00  0.00    +0.000 C 
ATOM     26  C   UNL     1       4.881   3.573  18.887  0.00  0.00    +0.000 C 
ATOM     27  C   UNL     1       5.656   4.867  18.805  0.00  0.00    +0.000 C 
ATOM     28  N   UNL     1       5.708   5.124  17.317  0.00  0.00    +0.000 N 
ATOM     29  C   UNL     1       5.650   6.584  16.904  0.00  0.00    +0.000 C 
ATOM     30  O   UNL     1       4.504   4.489  16.752  0.00  0.00    +0.000 OA
BRANCH  28  31
ATOM     31  C   UNL     1       6.994   4.528  16.655  0.00  0.00    +0.000 C 
BRANCH  31  32
ATOM     32  C   UNL     1       7.001   4.604  15.105  0.00  0.00    +0.000 C 
ATOM     33  N   UNL     1       6.282   3.646  14.446  0.00  0.00    +0.000 N 
ATOM     34  O   UNL     1       7.666   5.412  14.457  0.00  0.00    +0.000 OA
ATOM     35  H   UNL     1       5.321   3.556  14.801  0.00  0.00    +0.000 HD
ATOM     36  H   UNL     1       6.234   3.841  13.450  0.00  0.00    +0.000 HD
ENDBRANCH  31  32
ENDBRANCH  28  31
ENDBRANCH  22  25
ENDBRANCH   1  19
TORSDOF 9
ENDMDL
MODEL 7
REMARK VINA RESULT:      -6.7      2.549      9.081
REMARK  Name = 
REMARK  12 active torsions:
REMARK  status: ('A' for Active; 'I' for Inactive)
REMARK    1  A    between atoms: C_1  and  C_2
REMARK    2  A    between atoms: C_2  and  O_3
REMARK    3  A    between atoms: C_2  and  C_4
REMARK    4  A    between atoms: C_8  and  C_9
REMARK    5  A    between atoms: C_9  and  O_11
REMARK    6  A    between atoms: C_12  and  S_13
REMARK    7  A    between atoms: S_13  and  C_14
REMARK    8  A    between atoms: C_17  and  C_18
REMARK    9  A    between atoms: N_21  and  C_22
REMARK   10  A    between atoms: N_21  and  C_23
REMARK   11  A    between atoms: C_23  and  C_24
REMARK   12  A    between atoms: C_29  and  C_30
REMARK                            x       y       z     vdW  Elec       q    Type
REMARK                         _______ _______ _______ _____ _____    ______ ____
ROOT
ATOM      1  S   UNL     1       2.637   8.434  17.792  0.00  0.00    +0.000 S 
ENDROOT
BRANCH   1   7
ATOM      2  C   UNL     1       3.497   3.407  19.280  0.00  0.00    +0.000 C 
ATOM      3  C   UNL     1       4.775   4.093  18.761  0.00  0.00    +0.000 C 
ATOM      4  O   UNL     1       5.957   4.139  19.026  0.00  0.00    +0.000 OA
ATOM      5  N   UNL     1       4.076   4.817  17.847  0.00  0.00    +0.000 N 
ATOM      6  C   UNL     1       4.220   6.181  17.701  0.00  0.00    +0.000 C 
ATOM      7  C   UNL     1       3.170   6.846  18.221  0.00  0.00    +0.000 C 
ATOM      8  C   UNL     1       2.234   5.889  18.937  0.00  0.00    +0.000 C 
ATOM      9  C   UNL     1       2.293   5.996  20.456  0.00  0.00    +0.000 C 
ATOM     10  C   UNL     1       2.746   4.517  18.453  0.00  0.00    +0.000 C 
BRANCH   2  12
ATOM     11  C   UNL     1       1.890   1.813  18.159  0.00  0.00    +0.000 C 
ATOM     12  C   UNL     1       3.264   1.979  18.793  0.00  0.00    +0.000 C 
BRANCH  12  13
ATOM     13  O   UNL     1       4.281   1.666  17.842  0.00  0.00    +0.000 OA
ATOM     14  H   UNL     1       3.871   1.569  16.963  0.00  0.00    +0.000 HD
ENDBRANCH  12  13
ENDBRANCH   2  12
BRANCH   6  15
ATOM     15  C   UNL     1       5.353   6.727  16.903  0.00  0.00    +0.000 C 
ATOM     16  O   UNL     1       6.409   7.122  17.370  0.00  0.00    +0.000 OA
BRANCH  15  17
ATOM     17  O   UNL     1       5.131   6.693  15.569  0.00  0.00    +0.000 OA
ATOM     18  H   UNL     1       4.192   6.589  15.298  0.00  0.00    +0.000 HD
ENDBRANCH  15  17
ENDBRANCH   6  15
ENDBRANCH   1   7
BRANCH   1  19
ATOM     19  C   UNL     1       1.112   8.768  18.719  0.00  0.00    +0.000 C 
ATOM     20  C   UNL     1       0.395   9.929  18.026  0.00  0.00    +0.000 C 
ATOM     21  N   UNL     1      -0.500  10.517  19.029  0.00  0.00    +0.000 NA
ATOM     22  C   UNL     1       0.139  10.313  20.349  0.00  0.00    +0.000 C 
ATOM     23  C   UNL     1       1.258   9.277  20.152  0.00  0.00    +0.000 C 
ATOM     24  H   UNL     1      -1.381   9.995  19.004  0.00  0.00    +0.000 HD
BRANCH  22  25
ATOM     25  C   UNL     1       0.540  11.628  21.102  0.00  0.00    +0.000 C 
ATOM     26  C   UNL     1      -0.594  12.213  21.918  0.00  0.00    +0.000 C 
ATOM     27  C   UNL     1      -1.226  13.189  20.954  0.00  0.00    +0.000 C 
ATOM     28  N   UNL     1      -0.026  13.764  20.237  0.00  0.00    +0.000 N 
ATOM     29  C   UNL     1      -0.242  14.103  18.773  0.00  0.00    +0.000 C 
ATOM     30  O   UNL     1       1.008  12.716  20.269  0.00  0.00    +0.000 OA
BRANCH  28  31
ATOM     31  C   UNL     1       0.505  15.069  20.919  0.00  0.00    +0.000 C 
BRANCH  31  32
ATOM     32  C   UNL     1       2.008  15.015  21.300  0.00  0.00    +0.000 C 
ATOM     33  N   UNL     1       2.901  15.131  20.271  0.00  0.00    +0.000 N 
ATOM     34  O   UNL     1       2.424  14.800  22.439  0.00  0.00    +0.000 OA
ATOM     35  H   UNL     1       2.708  15.941  19.667  0.00  0.00    +0.000 HD
ATOM     36  H   UNL     1       3.853  15.214  20.616  0.00  0.00    +0.000 HD
ENDBRANCH  31  32
ENDBRANCH  28  31
ENDBRANCH  22  25
ENDBRANCH   1  19
TORSDOF 9
ENDMDL
MODEL 8
REMARK VINA RESULT:      -6.7      1.947      2.878
REMARK  Name = 
REMARK  12 active torsions:
REMARK  status: ('A' for Active; 'I' for Inactive)
REMARK    1  A    between atoms: C_1  and  C_2
REMARK    2  A    between atoms: C_2  and  O_3
REMARK    3  A    between atoms: C_2  and  C_4
REMARK    4  A    between atoms: C_8  and  C_9
REMARK    5  A    between atoms: C_9  and  O_11
REMARK    6  A    between atoms: C_12  and  S_13
REMARK    7  A    between atoms: S_13  and  C_14
REMARK    8  A    between atoms: C_17  and  C_18
REMARK    9  A    between atoms: N_21  and  C_22
REMARK   10  A    between atoms: N_21  and  C_23
REMARK   11  A    between atoms: C_23  and  C_24
REMARK   12  A    between atoms: C_29  and  C_30
REMARK                            x       y       z     vdW  Elec       q    Type
REMARK                         _______ _______ _______ _____ _____    ______ ____
ROOT
ATOM      1  S   UNL     1       2.213   9.414  18.099  0.00  0.00    +0.000 S 
ENDROOT
BRANCH   1   7
ATOM      2  C   UNL     1      -1.819  12.204  20.145  0.00  0.00    +0.000 C 
ATOM      3  C   UNL     1      -0.765  13.103  19.471  0.00  0.00    +0.000 C 
ATOM      4  O   UNL     1      -0.724  14.095  18.776  0.00  0.00    +0.000 OA
ATOM      5  N   UNL     1       0.252  12.284  19.851  0.00  0.00    +0.000 N 
ATOM      6  C   UNL     1       1.215  11.827  18.977  0.00  0.00    +0.000 C 
ATOM      7  C   UNL     1       1.020  10.533  18.660  0.00  0.00    +0.000 C 
ATOM      8  C   UNL     1      -0.287  10.031  19.248  0.00  0.00    +0.000 C 
ATOM      9  C   UNL     1      -1.388   9.833  18.214  0.00  0.00    +0.000 C 
ATOM     10  C   UNL     1      -0.646  11.157  20.240  0.00  0.00    +0.000 C 
BRANCH   2  12
ATOM     11  C   UNL     1      -3.859  12.871  21.477  0.00  0.00    +0.000 C 
ATOM     12  C   UNL     1      -2.347  12.694  21.491  0.00  0.00    +0.000 C 
BRANCH  12  13
ATOM     13  O   UNL     1      -1.977  11.738  22.485  0.00  0.00    +0.000 OA
ATOM     14  H   UNL     1      -2.629  11.769  23.208  0.00  0.00    +0.000 HD
ENDBRANCH  12  13
ENDBRANCH   2  12
BRANCH   6  15
ATOM     15  C   UNL     1       2.374  12.696  18.629  0.00  0.00    +0.000 C 
ATOM     16  O   UNL     1       3.010  13.364  19.428  0.00  0.00    +0.000 OA
BRANCH  15  17
ATOM     17  O   UNL     1       2.711  12.637  17.320  0.00  0.00    +0.000 OA
ATOM     18  H   UNL     1       2.448  11.814  16.852  0.00  0.00    +0.000 HD
ENDBRANCH  15  17
ENDBRANCH   6  15
ENDBRANCH   1   7
BRANCH   1  19
ATOM     19  C   UNL     1       1.693   7.753  18.618  0.00  0.00    +0.000 C 
ATOM     20  C   UNL     1       2.467   7.403  19.891  0.00  0.00    +0.000 C 
ATOM     21  N   UNL     1       2.451   5.940  19.992  0.00  0.00    +0.000 NA
ATOM     22  C   UNL     1       2.408   5.412  18.610  0.00  0.00    +0.000 C 
ATOM     23  C   UNL     1       2.035   6.588  17.691  0.00  0.00    +0.000 C 
ATOM     24  H   UNL     1       1.590   5.671  20.476  0.00  0.00    +0.000 HD
BRANCH  22  25
ATOM     25  C   UNL     1       3.658   4.570  18.181  0.00  0.00    +0.000 C 
ATOM     26  C   UNL     1       4.631   4.332  19.318  0.00  0.00    +0.000 C 
ATOM     27  C   UNL     1       5.598   5.482  19.171  0.00  0.00    +0.000 C 
ATOM     28  N   UNL     1       5.729   5.611  17.671  0.00  0.00    +0.000 N 
ATOM     29  C   UNL     1       5.908   7.026  17.151  0.00  0.00    +0.000 C 
ATOM     30  O   UNL     1       4.457   5.125  17.108  0.00  0.00    +0.000 OA
BRANCH  28  31
ATOM     31  C   UNL     1       6.925   4.776  17.104  0.00  0.00    +0.000 C 
BRANCH  31  32
ATOM     32  C   UNL     1       6.951   4.681  15.556  0.00  0.00    +0.000 C 
ATOM     33  N   UNL     1       6.117   3.758  14.989  0.00  0.00    +0.000 N 
ATOM     34  O   UNL     1       7.721   5.320  14.838  0.00  0.00    +0.000 OA
ATOM     35  H   UNL     1       5.150   3.834  15.331  0.00  0.00    +0.000 HD
ATOM     36  H   UNL     1       6.101   3.847  13.977  0.00  0.00    +0.000 HD
ENDBRANCH  31  32
ENDBRANCH  28  31
ENDBRANCH  22  25
ENDBRANCH   1  19
TORSDOF 9
ENDMDL
MODEL 9
REMARK VINA RESULT:      -6.6      1.813      2.850
REMARK  Name = 
REMARK  12 active torsions:
REMARK  status: ('A' for Active; 'I' for Inactive)
REMARK    1  A    between atoms: C_1  and  C_2
REMARK    2  A    between atoms: C_2  and  O_3
REMARK    3  A    between atoms: C_2  and  C_4
REMARK    4  A    between atoms: C_8  and  C_9
REMARK    5  A    between atoms: C_9  and  O_11
REMARK    6  A    between atoms: C_12  and  S_13
REMARK    7  A    between atoms: S_13  and  C_14
REMARK    8  A    between atoms: C_17  and  C_18
REMARK    9  A    between atoms: N_21  and  C_22
REMARK   10  A    between atoms: N_21  and  C_23
REMARK   11  A    between atoms: C_23  and  C_24
REMARK   12  A    between atoms: C_29  and  C_30
REMARK                            x       y       z     vdW  Elec       q    Type
REMARK                         _______ _______ _______ _____ _____    ______ ____
ROOT
ATOM      1  S   UNL     1       2.330   7.069  20.806  0.00  0.00    +0.000 S 
ENDROOT
BRANCH   1   7
ATOM      2  C   UNL     1      -0.792  11.360  21.060  0.00  0.00    +0.000 C 
ATOM      3  C   UNL     1      -0.529  10.910  19.610  0.00  0.00    +0.000 C 
ATOM      4  O   UNL     1      -1.132  10.808  18.564  0.00  0.00    +0.000 OA
ATOM      5  N   UNL     1       0.733  10.505  19.912  0.00  0.00    +0.000 N 
ATOM      6  C   UNL     1       1.228   9.266  19.562  0.00  0.00    +0.000 C 
ATOM      7  C   UNL     1       1.297   8.444  20.626  0.00  0.00    +0.000 C 
ATOM      8  C   UNL     1       0.666   9.095  21.845  0.00  0.00    +0.000 C 
ATOM      9  C   UNL     1      -0.686   8.502  22.225  0.00  0.00    +0.000 C 
ATOM     10  C   UNL     1       0.525  10.561  21.388  0.00  0.00    +0.000 C 
BRANCH   2  12
ATOM     11  C   UNL     1      -1.849  13.617  20.646  0.00  0.00    +0.000 C 
ATOM     12  C   UNL     1      -0.709  12.863  21.316  0.00  0.00    +0.000 C 
BRANCH  12  13
ATOM     13  O   UNL     1      -0.747  13.074  22.727  0.00  0.00    +0.000 OA
ATOM     14  H   UNL     1       0.105  12.796  23.109  0.00  0.00    +0.000 HD
ENDBRANCH  12  13
ENDBRANCH   2  12
BRANCH   6  15
ATOM     15  C   UNL     1       1.746   9.035  18.185  0.00  0.00    +0.000 C 
ATOM     16  O   UNL     1       2.860   8.613  17.920  0.00  0.00    +0.000 OA
BRANCH  15  17
ATOM     17  O   UNL     1       0.830   9.285  17.221  0.00  0.00    +0.000 OA
ATOM     18  H   UNL     1       0.056   9.823  17.501  0.00  0.00    +0.000 HD
ENDBRANCH  15  17
ENDBRANCH   6  15
ENDBRANCH   1   7
BRANCH   1  19
ATOM     19  C   UNL     1       1.441   5.627  20.149  0.00  0.00    +0.000 C 
ATOM     20  C   UNL     1       1.976   4.387  20.869  0.00  0.00    +0.000 C 
ATOM     21  N   UNL     1       1.666   3.244  20.003  0.00  0.00    +0.000 NA
ATOM     22  C   UNL     1       1.686   3.741  18.609  0.00  0.00    +0.000 C 
ATOM     23  C   UNL     1       1.659   5.277  18.678  0.00  0.00    +0.000 C 
ATOM     24  H   UNL     1       0.718   2.931  20.229  0.00  0.00    +0.000 HD
BRANCH  22  25
ATOM     25  C   UNL     1       2.792   3.111  17.696  0.00  0.00    +0.000 C 
ATOM     26  C   UNL     1       3.982   2.592  18.477  0.00  0.00    +0.000 C 
ATOM     27  C   UNL     1       4.924   3.773  18.468  0.00  0.00    +0.000 C 
ATOM     28  N   UNL     1       4.729   4.337  17.079  0.00  0.00    +0.000 N 
ATOM     29  C   UNL     1       4.827   5.847  16.969  0.00  0.00    +0.000 C 
ATOM     30  O   UNL     1       3.354   3.984  16.686  0.00  0.00    +0.000 OA
BRANCH  28  31
ATOM     31  C   UNL     1       5.752   3.751  16.051  0.00  0.00    +0.000 C 
BRANCH  31  32
ATOM     32  C   UNL     1       7.121   4.481  16.036  0.00  0.00    +0.000 C 
ATOM     33  N   UNL     1       7.413   5.203  14.913  0.00  0.00    +0.000 N 
ATOM     34  O   UNL     1       7.967   4.381  16.925  0.00  0.00    +0.000 OA
ATOM     35  H   UNL     1       6.655   5.846  14.646  0.00  0.00    +0.000 HD
ATOM     36  H   UNL     1       8.261   5.749  15.034  0.00  0.00    +0.000 HD
ENDBRANCH  31  32
ENDBRANCH  28  31
ENDBRANCH  22  25
ENDBRANCH   1  19
TORSDOF 9
ENDMDL
