MODEL 1
REMARK VINA RESULT:      -7.9      0.000      0.000
REMARK  Name = 
REMARK  9 active torsions:
REMARK  status: ('A' for Active; 'I' for Inactive)
REMARK    1  A    between atoms: C_1  and  C_2
REMARK    2  A    between atoms: C_2  and  C_3
REMARK    3  A    between atoms: C_2  and  C_4
REMARK    4  A    between atoms: N_6  and  C_7
REMARK    5  A    between atoms: C_7  and  C_8
REMARK    6  A    between atoms: C_11  and  C_12
REMARK    7  A    between atoms: N_14  and  C_15
REMARK    8  A    between atoms: C_17  and  C_18
REMARK    9  A    between atoms: C_25  and  N_26
REMARK                            x       y       z     vdW  Elec       q    Type
REMARK                         _______ _______ _______ _____ _____    ______ ____
ROOT
ATOM      1  C   UNL     1       3.375   6.546  18.248  0.00  0.00    +0.000 C 
ATOM      2  O   UNL     1       2.977   5.386  18.331  0.00  0.00    +0.000 OA
ATOM      3  N   UNL     1       4.621   6.954  17.791  0.00  0.00    +0.000 N 
ATOM      4  H   UNL     1       4.875   7.922  17.883  0.00  0.00    +0.000 HD
ENDROOT
BRANCH   1   8
ATOM      5  C   UNL     1       0.570   9.626  19.341  0.00  0.00    +0.000 A 
ATOM      6  C   UNL     1       1.043   8.741  20.321  0.00  0.00    +0.000 A 
ATOM      7  C   UNL     1       1.957   7.731  19.996  0.00  0.00    +0.000 A 
ATOM      8  C   UNL     1       2.427   7.612  18.686  0.00  0.00    +0.000 A 
ATOM      9  C   UNL     1       1.959   8.502  17.706  0.00  0.00    +0.000 A 
ATOM     10  C   UNL     1       1.044   9.505  18.031  0.00  0.00    +0.000 A 
BRANCH   5  11
ATOM     11  C   UNL     1      -0.426  10.696  19.692  0.00  0.00    +0.000 C 
BRANCH  11  14
ATOM     12  C   UNL     1      -1.856  11.640  17.953  0.00  0.00    +0.000 C 
ATOM     13  O   UNL     1      -1.108  12.602  17.808  0.00  0.00    +0.000 OA
ATOM     14  N   UNL     1      -1.594  10.632  18.849  0.00  0.00    +0.000 N 
ATOM     15  H   UNL     1      -2.324   9.968  19.084  0.00  0.00    +0.000 HD
BRANCH  12  17
ATOM     16  C   UNL     1      -2.870  10.949  15.758  0.00  0.00    +0.000 C 
ATOM     17  C   UNL     1      -3.152  11.473  17.167  0.00  0.00    +0.000 C 
ATOM     18  C   UNL     1      -4.106  10.525  17.893  0.00  0.00    +0.000 C 
ENDBRANCH  12  17
ENDBRANCH  11  14
ENDBRANCH   5  11
ENDBRANCH   1   8
BRANCH   3  19
ATOM     19  C   UNL     1       5.647   6.106  17.297  0.00  0.00    +0.000 A 
ATOM     20  C   UNL     1       5.740   5.794  15.934  0.00  0.00    +0.000 A 
ATOM     21  C   UNL     1       6.660   4.861  15.439  0.00  0.00    +0.000 A 
ATOM     22  C   UNL     1       7.564   4.291  16.336  0.00  0.00    +0.000 A 
ATOM     23  C   UNL     1       7.513   4.619  17.695  0.00  0.00    +0.000 A 
ATOM     24  C   UNL     1       6.580   5.543  18.193  0.00  0.00    +0.000 A 
BRANCH  21  25
ATOM     25  C   UNL     1       6.552   4.429  14.036  0.00  0.00    +0.000 A 
ATOM     26  C   UNL     1       5.575   3.617  13.479  0.00  0.00    +0.000 A 
ATOM     27  C   UNL     1       5.798   3.342  12.102  0.00  0.00    +0.000 A 
ATOM     28  C   UNL     1       6.930   3.968  11.636  0.00  0.00    +0.000 A 
ATOM     29  S   UNL     1       7.701   4.893  12.851  0.00  0.00    +0.000 S 
ENDBRANCH  21  25
BRANCH  24  30
ATOM     30  N   UNL     1       6.455   5.667  19.593  0.00  0.00    +0.000 N 
ATOM     31  H   UNL     1       5.776   5.021  19.990  0.00  0.00    +0.000 HD
ATOM     32  H   UNL     1       7.321   5.654  20.110  0.00  0.00    +0.000 HD
ENDBRANCH  24  30
ENDBRANCH   3  19
TORSDOF 7
ENDMDL
MODEL 2
REMARK VINA RESULT:      -7.8      5.525      7.511
REMARK  Name = 
REMARK  9 active torsions:
REMARK  status: ('A' for Active; 'I' for Inactive)
REMARK    1  A    between atoms: C_1  and  C_2
REMARK    2  A    between atoms: C_2  and  C_3
REMARK    3  A    between atoms: C_2  and  C_4
REMARK    4  A    between atoms: N_6  and  C_7
REMARK    5  A    between atoms: C_7  and  C_8
REMARK    6  A    between atoms: C_11  and  C_12
REMARK    7  A    between atoms: N_14  and  C_15
REMARK    8  A    between atoms: C_17  and  C_18
REMARK    9  A    between atoms: C_25  and  N_26
REMARK                            x       y       z     vdW  Elec       q    Type
REMARK                         _______ _______ _______ _____ _____    ______ ____
ROOT
ATOM      1  C   UNL     1       7.672   7.692  18.004  0.00  0.00    +0.000 C 
ATOM      2  O   UNL     1       8.189   6.796  18.668  0.00  0.00    +0.000 OA
ATOM      3  N   UNL     1       6.601   7.552  17.132  0.00  0.00    +0.000 N 
ATOM      4  H   UNL     1       6.345   8.333  16.554  0.00  0.00    +0.000 HD
ENDROOT
BRANCH   1   8
ATOM      5  C   UNL     1       9.208  11.700  18.360  0.00  0.00    +0.000 A 
ATOM      6  C   UNL     1       9.693  10.695  19.209  0.00  0.00    +0.000 A 
ATOM      7  C   UNL     1       9.215   9.382  19.115  0.00  0.00    +0.000 A 
ATOM      8  C   UNL     1       8.258   9.057  18.150  0.00  0.00    +0.000 A 
ATOM      9  C   UNL     1       7.777  10.061  17.295  0.00  0.00    +0.000 A 
ATOM     10  C   UNL     1       8.252  11.371  17.393  0.00  0.00    +0.000 A 
BRANCH   5  11
ATOM     11  C   UNL     1       9.711  13.112  18.477  0.00  0.00    +0.000 C 
BRANCH  11  14
ATOM     12  C   UNL     1       7.908  14.723  18.808  0.00  0.00    +0.000 C 
ATOM     13  O   UNL     1       7.942  14.567  20.025  0.00  0.00    +0.000 OA
ATOM     14  N   UNL     1       8.758  14.061  17.957  0.00  0.00    +0.000 N 
ATOM     15  H   UNL     1       8.570  14.059  16.960  0.00  0.00    +0.000 HD
BRANCH  12  17
ATOM     16  C   UNL     1       5.573  14.953  17.903  0.00  0.00    +0.000 C 
ATOM     17  C   UNL     1       6.914  15.654  18.120  0.00  0.00    +0.000 C 
ATOM     18  C   UNL     1       6.710  16.927  18.940  0.00  0.00    +0.000 C 
ENDBRANCH  12  17
ENDBRANCH  11  14
ENDBRANCH   5  11
ENDBRANCH   1   8
BRANCH   3  19
ATOM     19  C   UNL     1       5.881   6.354  16.880  0.00  0.00    +0.000 A 
ATOM     20  C   UNL     1       4.717   6.041  17.595  0.00  0.00    +0.000 A 
ATOM     21  C   UNL     1       4.062   4.811  17.458  0.00  0.00    +0.000 A 
ATOM     22  C   UNL     1       4.551   3.907  16.514  0.00  0.00    +0.000 A 
ATOM     23  C   UNL     1       5.690   4.217  15.762  0.00  0.00    +0.000 A 
ATOM     24  C   UNL     1       6.355   5.445  15.910  0.00  0.00    +0.000 A 
BRANCH  21  25
ATOM     25  C   UNL     1       2.978   4.473  18.395  0.00  0.00    +0.000 A 
ATOM     26  C   UNL     1       2.528   5.228  19.468  0.00  0.00    +0.000 A 
ATOM     27  C   UNL     1       1.501   4.584  20.210  0.00  0.00    +0.000 A 
ATOM     28  C   UNL     1       1.177   3.360  19.673  0.00  0.00    +0.000 A 
ATOM     29  S   UNL     1       2.096   3.007  18.274  0.00  0.00    +0.000 S 
ENDBRANCH  21  25
BRANCH  24  30
ATOM     30  N   UNL     1       7.604   5.601  15.272  0.00  0.00    +0.000 N 
ATOM     31  H   UNL     1       8.389   5.345  15.867  0.00  0.00    +0.000 HD
ATOM     32  H   UNL     1       7.681   5.179  14.360  0.00  0.00    +0.000 HD
ENDBRANCH  24  30
ENDBRANCH   3  19
TORSDOF 7
ENDMDL
MODEL 3
REMARK VINA RESULT:      -7.8      3.669      9.926
REMARK  Name = 
REMARK  9 active torsions:
REMARK  status: ('A' for Active; 'I' for Inactive)
REMARK    1  A    between atoms: C_1  and  C_2
REMARK    2  A    between atoms: C_2  and  C_3
REMARK    3  A    between atoms: C_2  and  C_4
REMARK    4  A    between atoms: N_6  and  C_7
REMARK    5  A    between atoms: C_7  and  C_8
REMARK    6  A    between atoms: C_11  and  C_12
REMARK    7  A    between atoms: N_14  and  C_15
REMARK    8  A    between atoms: C_17  and  C_18
REMARK    9  A    between atoms: C_25  and  N_26
REMARK                            x       y       z     vdW  Elec       q    Type
REMARK                         _______ _______ _______ _____ _____    ______ ____
ROOT
ATOM      1  C   UNL     1       1.927   8.470  18.686  0.00  0.00    +0.000 C 
ATOM      2  O   UNL     1       1.621   8.385  19.873  0.00  0.00    +0.000 OA
ATOM      3  N   UNL     1       1.550   9.481  17.813  0.00  0.00    +0.000 N 
ATOM      4  H   UNL     1       1.762   9.379  16.836  0.00  0.00    +0.000 HD
ENDROOT
BRANCH   1   8
ATOM      5  C   UNL     1       4.249   5.217  17.082  0.00  0.00    +0.000 A 
ATOM      6  C   UNL     1       4.691   6.536  16.904  0.00  0.00    +0.000 A 
ATOM      7  C   UNL     1       3.959   7.614  17.416  0.00  0.00    +0.000 A 
ATOM      8  C   UNL     1       2.784   7.379  18.135  0.00  0.00    +0.000 A 
ATOM      9  C   UNL     1       2.344   6.058  18.319  0.00  0.00    +0.000 A 
ATOM     10  C   UNL     1       3.074   4.985  17.803  0.00  0.00    +0.000 A 
BRANCH   5  11
ATOM     11  C   UNL     1       5.030   4.064  16.514  0.00  0.00    +0.000 C 
BRANCH  11  14
ATOM     12  C   UNL     1       6.570   4.584  14.692  0.00  0.00    +0.000 C 
ATOM     13  O   UNL     1       7.510   4.706  15.472  0.00  0.00    +0.000 OA
ATOM     14  N   UNL     1       5.305   4.249  15.110  0.00  0.00    +0.000 N 
ATOM     15  H   UNL     1       4.522   4.356  14.474  0.00  0.00    +0.000 HD
BRANCH  12  17
ATOM     16  C   UNL     1       8.106   5.312  12.839  0.00  0.00    +0.000 C 
ATOM     17  C   UNL     1       6.707   4.805  13.189  0.00  0.00    +0.000 C 
ATOM     18  C   UNL     1       6.415   3.513  12.426  0.00  0.00    +0.000 C 
ENDBRANCH  12  17
ENDBRANCH  11  14
ENDBRANCH   5  11
ENDBRANCH   1   8
BRANCH   3  19
ATOM     19  C   UNL     1       0.773  10.623  18.145  0.00  0.00    +0.000 A 
ATOM     20  C   UNL     1      -0.609  10.525  18.356  0.00  0.00    +0.000 A 
ATOM     21  C   UNL     1      -1.417  11.652  18.556  0.00  0.00    +0.000 A 
ATOM     22  C   UNL     1      -0.799  12.900  18.626  0.00  0.00    +0.000 A 
ATOM     23  C   UNL     1       0.585  13.014  18.457  0.00  0.00    +0.000 A 
ATOM     24  C   UNL     1       1.394  11.887  18.241  0.00  0.00    +0.000 A 
BRANCH  21  25
ATOM     25  C   UNL     1      -2.880  11.488  18.554  0.00  0.00    +0.000 A 
ATOM     26  C   UNL     1      -3.630  10.640  17.752  0.00  0.00    +0.000 A 
ATOM     27  C   UNL     1      -5.030  10.770  17.961  0.00  0.00    +0.000 A 
ATOM     28  C   UNL     1      -5.315  11.699  18.935  0.00  0.00    +0.000 A 
ATOM     29  S   UNL     1      -3.898  12.391  19.598  0.00  0.00    +0.000 S 
ENDBRANCH  21  25
BRANCH  24  30
ATOM     30  N   UNL     1       2.741  12.098  17.877  0.00  0.00    +0.000 N 
ATOM     31  H   UNL     1       3.375  12.076  18.672  0.00  0.00    +0.000 HD
ATOM     32  H   UNL     1       3.080  11.527  17.118  0.00  0.00    +0.000 HD
ENDBRANCH  24  30
ENDBRANCH   3  19
TORSDOF 7
ENDMDL
MODEL 4
REMARK VINA RESULT:      -7.7      3.519      9.621
REMARK  Name = 
REMARK  9 active torsions:
REMARK  status: ('A' for Active; 'I' for Inactive)
REMARK    1  A    between atoms: C_1  and  C_2
REMARK    2  A    between atoms: C_2  and  C_3
REMARK    3  A    between atoms: C_2  and  C_4
REMARK    4  A    between atoms: N_6  and  C_7
REMARK    5  A    between atoms: C_7  and  C_8
REMARK    6  A    between atoms: C_11  and  C_12
REMARK    7  A    between atoms: N_14  and  C_15
REMARK    8  A    between atoms: C_17  and  C_18
REMARK    9  A    between atoms: C_25  and  N_26
REMARK                            x       y       z     vdW  Elec       q    Type
REMARK                         _______ _______ _______ _____ _____    ______ ____
ROOT
ATOM      1  C   UNL     1       2.589   6.300  18.217  0.00  0.00    +0.000 C 
ATOM      2  O   UNL     1       1.685   5.513  18.490  0.00  0.00    +0.000 OA
ATOM      3  N   UNL     1       2.675   7.623  18.628  0.00  0.00    +0.000 N 
ATOM      4  H   UNL     1       3.400   8.202  18.241  0.00  0.00    +0.000 HD
ENDROOT
BRANCH   1   8
ATOM      5  C   UNL     1       5.676   4.648  15.709  0.00  0.00    +0.000 A 
ATOM      6  C   UNL     1       5.560   6.040  15.838  0.00  0.00    +0.000 A 
ATOM      7  C   UNL     1       4.568   6.606  16.648  0.00  0.00    +0.000 A 
ATOM      8  C   UNL     1       3.694   5.780  17.359  0.00  0.00    +0.000 A 
ATOM      9  C   UNL     1       3.813   4.386  17.235  0.00  0.00    +0.000 A 
ATOM     10  C   UNL     1       4.801   3.824  16.423  0.00  0.00    +0.000 A 
BRANCH   5  11
ATOM     11  C   UNL     1       6.732   4.046  14.824  0.00  0.00    +0.000 C 
BRANCH  11  14
ATOM     12  C   UNL     1       6.513   3.682  12.420  0.00  0.00    +0.000 C 
ATOM     13  O   UNL     1       7.354   4.542  12.176  0.00  0.00    +0.000 OA
ATOM     14  N   UNL     1       6.150   3.350  13.702  0.00  0.00    +0.000 N 
ATOM     15  H   UNL     1       5.319   2.789  13.859  0.00  0.00    +0.000 HD
BRANCH  12  17
ATOM     16  C   UNL     1       6.051   1.407  11.452  0.00  0.00    +0.000 C 
ATOM     17  C   UNL     1       5.781   2.907  11.329  0.00  0.00    +0.000 C 
ATOM     18  C   UNL     1       4.277   3.173  11.395  0.00  0.00    +0.000 C 
ENDBRANCH  12  17
ENDBRANCH  11  14
ENDBRANCH   5  11
ENDBRANCH   1   8
BRANCH   3  19
ATOM     19  C   UNL     1       1.753   8.296  19.474  0.00  0.00    +0.000 A 
ATOM     20  C   UNL     1       1.260   9.565  19.146  0.00  0.00    +0.000 A 
ATOM     21  C   UNL     1       0.453  10.304  20.021  0.00  0.00    +0.000 A 
ATOM     22  C   UNL     1       0.070   9.709  21.222  0.00  0.00    +0.000 A 
ATOM     23  C   UNL     1       0.521   8.425  21.551  0.00  0.00    +0.000 A 
ATOM     24  C   UNL     1       1.342   7.690  20.680  0.00  0.00    +0.000 A 
BRANCH  21  25
ATOM     25  C   UNL     1       0.155  11.709  19.699  0.00  0.00    +0.000 A 
ATOM     26  C   UNL     1      -0.960  12.441  20.082  0.00  0.00    +0.000 A 
ATOM     27  C   UNL     1      -0.970  13.760  19.551  0.00  0.00    +0.000 A 
ATOM     28  C   UNL     1       0.150  14.010  18.792  0.00  0.00    +0.000 A 
ATOM     29  S   UNL     1       1.207  12.666  18.741  0.00  0.00    +0.000 S 
ENDBRANCH  21  25
BRANCH  24  30
ATOM     30  N   UNL     1       1.919   6.497  21.165  0.00  0.00    +0.000 N 
ATOM     31  H   UNL     1       1.257   5.910  21.665  0.00  0.00    +0.000 HD
ATOM     32  H   UNL     1       2.447   5.965  20.489  0.00  0.00    +0.000 HD
ENDBRANCH  24  30
ENDBRANCH   3  19
TORSDOF 7
ENDMDL
MODEL 5
REMARK VINA RESULT:      -7.7      5.673      7.650
REMARK  Name = 
REMARK  9 active torsions:
REMARK  status: ('A' for Active; 'I' for Inactive)
REMARK    1  A    between atoms: C_1  and  C_2
REMARK    2  A    between atoms: C_2  and  C_3
REMARK    3  A    between atoms: C_2  and  C_4
REMARK    4  A    between atoms: N_6  and  C_7
REMARK    5  A    between atoms: C_7  and  C_8
REMARK    6  A    between atoms: C_11  and  C_12
REMARK    7  A    between atoms: N_14  and  C_15
REMARK    8  A    between atoms: C_17  and  C_18
REMARK    9  A    between atoms: C_25  and  N_26
REMARK                            x       y       z     vdW  Elec       q    Type
REMARK                         _______ _______ _______ _____ _____    ______ ____
ROOT
ATOM      1  C   UNL     1       7.639   7.694  17.971  0.00  0.00    +0.000 C 
ATOM      2  O   UNL     1       8.180   6.790  18.606  0.00  0.00    +0.000 OA
ATOM      3  N   UNL     1       6.571   7.553  17.096  0.00  0.00    +0.000 N 
ATOM      4  H   UNL     1       6.293   8.345  16.543  0.00  0.00    +0.000 HD
ENDROOT
BRANCH   1   8
ATOM      5  C   UNL     1       9.375  11.585  18.593  0.00  0.00    +0.000 A 
ATOM      6  C   UNL     1       8.455  11.397  17.552  0.00  0.00    +0.000 A 
ATOM      7  C   UNL     1       7.872  10.143  17.327  0.00  0.00    +0.000 A 
ATOM      8  C   UNL     1       8.189   9.068  18.161  0.00  0.00    +0.000 A 
ATOM      9  C   UNL     1       9.105   9.258  19.207  0.00  0.00    +0.000 A 
ATOM     10  C   UNL     1       9.689  10.508  19.427  0.00  0.00    +0.000 A 
BRANCH   5  11
ATOM     11  C   UNL     1      10.012  12.928  18.819  0.00  0.00    +0.000 C 
BRANCH  11  14
ATOM     12  C   UNL     1       8.270  14.617  19.086  0.00  0.00    +0.000 C 
ATOM     13  O   UNL     1       8.112  14.322  20.266  0.00  0.00    +0.000 OA
ATOM     14  N   UNL     1       9.201  13.997  18.289  0.00  0.00    +0.000 N 
ATOM     15  H   UNL     1       9.164  14.123  17.283  0.00  0.00    +0.000 HD
BRANCH  12  17
ATOM     16  C   UNL     1       6.125  15.109  17.868  0.00  0.00    +0.000 C 
ATOM     17  C   UNL     1       7.443  15.689  18.383  0.00  0.00    +0.000 C 
ATOM     18  C   UNL     1       7.163  16.859  19.326  0.00  0.00    +0.000 C 
ENDBRANCH  12  17
ENDBRANCH  11  14
ENDBRANCH   5  11
ENDBRANCH   1   8
BRANCH   3  19
ATOM     19  C   UNL     1       5.883   6.345  16.805  0.00  0.00    +0.000 A 
ATOM     20  C   UNL     1       4.724   5.983  17.504  0.00  0.00    +0.000 A 
ATOM     21  C   UNL     1       4.101   4.740  17.328  0.00  0.00    +0.000 A 
ATOM     22  C   UNL     1       4.616   3.878  16.361  0.00  0.00    +0.000 A 
ATOM     23  C   UNL     1       5.751   4.238  15.625  0.00  0.00    +0.000 A 
ATOM     24  C   UNL     1       6.385   5.477  15.812  0.00  0.00    +0.000 A 
BRANCH  21  25
ATOM     25  C   UNL     1       3.021   4.349  18.248  0.00  0.00    +0.000 A 
ATOM     26  C   UNL     1       1.966   3.486  17.988  0.00  0.00    +0.000 A 
ATOM     27  C   UNL     1       1.061   3.369  19.078  0.00  0.00    +0.000 A 
ATOM     28  C   UNL     1       1.458   4.130  20.153  0.00  0.00    +0.000 A 
ATOM     29  S   UNL     1       2.922   4.960  19.847  0.00  0.00    +0.000 S 
ENDBRANCH  21  25
BRANCH  24  30
ATOM     30  N   UNL     1       7.633   5.683  15.186  0.00  0.00    +0.000 N 
ATOM     31  H   UNL     1       7.887   6.666  15.122  0.00  0.00    +0.000 HD
ATOM     32  H   UNL     1       8.395   5.128  15.545  0.00  0.00    +0.000 HD
ENDBRANCH  24  30
ENDBRANCH   3  19
TORSDOF 7
ENDMDL
MODEL 6
REMARK VINA RESULT:      -7.7      6.515      9.918
REMARK  Name = 
REMARK  9 active torsions:
REMARK  status: ('A' for Active; 'I' for Inactive)
REMARK    1  A    between atoms: C_1  and  C_2
REMARK    2  A    between atoms: C_2  and  C_3
REMARK    3  A    between atoms: C_2  and  C_4
REMARK    4  A    between atoms: N_6  and  C_7
REMARK    5  A    between atoms: C_7  and  C_8
REMARK    6  A    between atoms: C_11  and  C_12
REMARK    7  A    between atoms: N_14  and  C_15
REMARK    8  A    between atoms: C_17  and  C_18
REMARK    9  A    between atoms: C_25  and  N_26
REMARK                            x       y       z     vdW  Elec       q    Type
REMARK                         _______ _______ _______ _____ _____    ______ ____
ROOT
ATOM      1  C   UNL     1       8.393   9.502  18.264  0.00  0.00    +0.000 C 
ATOM      2  O   UNL     1       7.945  10.385  17.535  0.00  0.00    +0.000 OA
ATOM      3  N   UNL     1       9.288   9.679  19.310  0.00  0.00    +0.000 N 
ATOM      4  H   UNL     1       9.675   8.866  19.756  0.00  0.00    +0.000 HD
ENDROOT
BRANCH   1   8
ATOM      5  C   UNL     1       7.064   5.451  17.657  0.00  0.00    +0.000 A 
ATOM      6  C   UNL     1       6.694   6.445  16.740  0.00  0.00    +0.000 A 
ATOM      7  C   UNL     1       7.113   7.771  16.909  0.00  0.00    +0.000 A 
ATOM      8  C   UNL     1       7.930   8.110  17.991  0.00  0.00    +0.000 A 
ATOM      9  C   UNL     1       8.305   7.114  18.907  0.00  0.00    +0.000 A 
ATOM     10  C   UNL     1       7.882   5.793  18.738  0.00  0.00    +0.000 A 
BRANCH   5  11
ATOM     11  C   UNL     1       6.596   4.033  17.480  0.00  0.00    +0.000 C 
BRANCH  11  14
ATOM     12  C   UNL     1       4.512   3.542  18.653  0.00  0.00    +0.000 C 
ATOM     13  O   UNL     1       5.114   3.285  19.691  0.00  0.00    +0.000 OA
ATOM     14  N   UNL     1       5.157   3.941  17.508  0.00  0.00    +0.000 N 
ATOM     15  H   UNL     1       4.655   3.948  16.626  0.00  0.00    +0.000 HD
BRANCH  12  17
ATOM     16  C   UNL     1       2.419   4.667  17.831  0.00  0.00    +0.000 C 
ATOM     17  C   UNL     1       2.996   3.434  18.526  0.00  0.00    +0.000 C 
ATOM     18  C   UNL     1       2.607   2.172  17.755  0.00  0.00    +0.000 C 
ENDBRANCH  12  17
ENDBRANCH  11  14
ENDBRANCH   5  11
ENDBRANCH   1   8
BRANCH   3  19
ATOM     19  C   UNL     1       9.818  10.920  19.754  0.00  0.00    +0.000 A 
ATOM     20  C   UNL     1       9.422  11.484  20.974  0.00  0.00    +0.000 A 
ATOM     21  C   UNL     1       9.830  12.763  21.374  0.00  0.00    +0.000 A 
ATOM     22  C   UNL     1      10.725  13.454  20.558  0.00  0.00    +0.000 A 
ATOM     23  C   UNL     1      11.162  12.890  19.354  0.00  0.00    +0.000 A 
ATOM     24  C   UNL     1      10.742  11.614  18.945  0.00  0.00    +0.000 A 
BRANCH  21  25
ATOM     25  C   UNL     1       9.203  13.372  22.559  0.00  0.00    +0.000 A 
ATOM     26  C   UNL     1       8.520  12.721  23.577  0.00  0.00    +0.000 A 
ATOM     27  C   UNL     1       7.985  13.613  24.546  0.00  0.00    +0.000 A 
ATOM     28  C   UNL     1       8.290  14.922  24.256  0.00  0.00    +0.000 A 
ATOM     29  S   UNL     1       9.231  15.064  22.835  0.00  0.00    +0.000 S 
ENDBRANCH  21  25
BRANCH  24  30
ATOM     30  N   UNL     1      11.060  11.202  17.633  0.00  0.00    +0.000 N 
ATOM     31  H   UNL     1      12.062  11.143  17.467  0.00  0.00    +0.000 HD
ATOM     32  H   UNL     1      10.585  10.372  17.312  0.00  0.00    +0.000 HD
ENDBRANCH  24  30
ENDBRANCH   3  19
TORSDOF 7
ENDMDL
MODEL 7
REMARK VINA RESULT:      -7.7      3.161      3.975
REMARK  Name = 
REMARK  9 active torsions:
REMARK  status: ('A' for Active; 'I' for Inactive)
REMARK    1  A    between atoms: C_1  and  C_2
REMARK    2  A    between atoms: C_2  and  C_3
REMARK    3  A    between atoms: C_2  and  C_4
REMARK    4  A    between atoms: N_6  and  C_7
REMARK    5  A    between atoms: C_7  and  C_8
REMARK    6  A    between atoms: C_11  and  C_12
REMARK    7  A    between atoms: N_14  and  C_15
REMARK    8  A    between atoms: C_17  and  C_18
REMARK    9  A    between atoms: C_25  and  N_26
REMARK                            x       y       z     vdW  Elec       q    Type
REMARK                         _______ _______ _______ _____ _____    ______ ____
ROOT
ATOM      1  C   UNL     1       1.856   7.539  19.769  0.00  0.00    +0.000 C 
ATOM      2  O   UNL     1       2.201   7.835  18.627  0.00  0.00    +0.000 OA
ATOM      3  N   UNL     1       2.006   6.299  20.374  0.00  0.00    +0.000 N 
ATOM      4  H   UNL     1       1.576   6.143  21.269  0.00  0.00    +0.000 HD
ENDROOT
BRANCH   1   8
ATOM      5  C   UNL     1      -0.100  10.695  21.950  0.00  0.00    +0.000 A 
ATOM      6  C   UNL     1       0.404   9.585  22.643  0.00  0.00    +0.000 A 
ATOM      7  C   UNL     1       1.047   8.544  21.961  0.00  0.00    +0.000 A 
ATOM      8  C   UNL     1       1.213   8.617  20.576  0.00  0.00    +0.000 A 
ATOM      9  C   UNL     1       0.714   9.731  19.882  0.00  0.00    +0.000 A 
ATOM     10  C   UNL     1       0.069  10.766  20.564  0.00  0.00    +0.000 A 
BRANCH   5  11
ATOM     11  C   UNL     1      -0.807  11.801  22.684  0.00  0.00    +0.000 C 
BRANCH  11  14
ATOM     12  C   UNL     1      -3.118  12.461  22.261  0.00  0.00    +0.000 C 
ATOM     13  O   UNL     1      -3.488  11.988  23.331  0.00  0.00    +0.000 OA
ATOM     14  N   UNL     1      -1.805  12.434  21.859  0.00  0.00    +0.000 N 
ATOM     15  H   UNL     1      -1.571  12.648  20.895  0.00  0.00    +0.000 HD
BRANCH  12  17
ATOM     16  C   UNL     1      -3.936  12.478  19.883  0.00  0.00    +0.000 C 
ATOM     17  C   UNL     1      -4.076  13.111  21.267  0.00  0.00    +0.000 C 
ATOM     18  C   UNL     1      -5.520  12.989  21.752  0.00  0.00    +0.000 C 
ENDBRANCH  12  17
ENDBRANCH  11  14
ENDBRANCH   5  11
ENDBRANCH   1   8
BRANCH   3  19
ATOM     19  C   UNL     1       2.623   5.157  19.796  0.00  0.00    +0.000 A 
ATOM     20  C   UNL     1       3.727   5.281  18.942  0.00  0.00    +0.000 A 
ATOM     21  C   UNL     1       4.272   4.187  18.259  0.00  0.00    +0.000 A 
ATOM     22  C   UNL     1       3.737   2.923  18.510  0.00  0.00    +0.000 A 
ATOM     23  C   UNL     1       2.659   2.773  19.389  0.00  0.00    +0.000 A 
ATOM     24  C   UNL     1       2.103   3.872  20.063  0.00  0.00    +0.000 A 
BRANCH  21  25
ATOM     25  C   UNL     1       5.286   4.429  17.220  0.00  0.00    +0.000 A 
ATOM     26  C   UNL     1       5.130   4.301  15.847  0.00  0.00    +0.000 A 
ATOM     27  C   UNL     1       6.329   4.553  15.125  0.00  0.00    +0.000 A 
ATOM     28  C   UNL     1       7.366   4.889  15.964  0.00  0.00    +0.000 A 
ATOM     29  S   UNL     1       6.884   4.915  17.605  0.00  0.00    +0.000 S 
ENDBRANCH  21  25
BRANCH  24  30
ATOM     30  N   UNL     1       0.898   3.674  20.769  0.00  0.00    +0.000 N 
ATOM     31  H   UNL     1       1.043   3.327  21.714  0.00  0.00    +0.000 HD
ATOM     32  H   UNL     1       0.255   4.452  20.758  0.00  0.00    +0.000 HD
ENDBRANCH  24  30
ENDBRANCH   3  19
TORSDOF 7
ENDMDL
MODEL 8
REMARK VINA RESULT:      -7.7      3.475      9.918
REMARK  Name = 
REMARK  9 active torsions:
REMARK  status: ('A' for Active; 'I' for Inactive)
REMARK    1  A    between atoms: C_1  and  C_2
REMARK    2  A    between atoms: C_2  and  C_3
REMARK    3  A    between atoms: C_2  and  C_4
REMARK    4  A    between atoms: N_6  and  C_7
REMARK    5  A    between atoms: C_7  and  C_8
REMARK    6  A    between atoms: C_11  and  C_12
REMARK    7  A    between atoms: N_14  and  C_15
REMARK    8  A    between atoms: C_17  and  C_18
REMARK    9  A    between atoms: C_25  and  N_26
REMARK                            x       y       z     vdW  Elec       q    Type
REMARK                         _______ _______ _______ _____ _____    ______ ____
ROOT
ATOM      1  C   UNL     1       1.836   8.525  18.792  0.00  0.00    +0.000 C 
ATOM      2  O   UNL     1       1.594   8.518  19.997  0.00  0.00    +0.000 OA
ATOM      3  N   UNL     1       1.458   9.506  17.886  0.00  0.00    +0.000 N 
ATOM      4  H   UNL     1       1.609   9.341  16.906  0.00  0.00    +0.000 HD
ENDROOT
BRANCH   1   8
ATOM      5  C   UNL     1       4.210   5.274  17.261  0.00  0.00    +0.000 A 
ATOM      6  C   UNL     1       3.020   4.997  17.950  0.00  0.00    +0.000 A 
ATOM      7  C   UNL     1       2.226   6.033  18.457  0.00  0.00    +0.000 A 
ATOM      8  C   UNL     1       2.605   7.363  18.257  0.00  0.00    +0.000 A 
ATOM      9  C   UNL     1       3.793   7.641  17.562  0.00  0.00    +0.000 A 
ATOM     10  C   UNL     1       4.586   6.606  17.061  0.00  0.00    +0.000 A 
BRANCH   5  11
ATOM     11  C   UNL     1       5.068   4.157  16.735  0.00  0.00    +0.000 C 
BRANCH  11  14
ATOM     12  C   UNL     1       6.535   4.636  14.844  0.00  0.00    +0.000 C 
ATOM     13  O   UNL     1       7.494   4.821  15.588  0.00  0.00    +0.000 OA
ATOM     14  N   UNL     1       5.295   4.284  15.316  0.00  0.00    +0.000 N 
ATOM     15  H   UNL     1       4.490   4.338  14.701  0.00  0.00    +0.000 HD
BRANCH  12  17
ATOM     16  C   UNL     1       8.050   5.120  12.896  0.00  0.00    +0.000 C 
ATOM     17  C   UNL     1       6.621   4.790  13.329  0.00  0.00    +0.000 C 
ATOM     18  C   UNL     1       6.145   3.518  12.629  0.00  0.00    +0.000 C 
ENDBRANCH  12  17
ENDBRANCH  11  14
ENDBRANCH   5  11
ENDBRANCH   1   8
BRANCH   3  19
ATOM     19  C   UNL     1       0.757  10.702  18.195  0.00  0.00    +0.000 A 
ATOM     20  C   UNL     1      -0.621  10.693  18.446  0.00  0.00    +0.000 A 
ATOM     21  C   UNL     1      -1.358  11.871  18.625  0.00  0.00    +0.000 A 
ATOM     22  C   UNL     1      -0.668  13.083  18.632  0.00  0.00    +0.000 A 
ATOM     23  C   UNL     1       0.715  13.110  18.422  0.00  0.00    +0.000 A 
ATOM     24  C   UNL     1       1.452  11.930  18.228  0.00  0.00    +0.000 A 
BRANCH  21  25
ATOM     25  C   UNL     1      -2.827  11.792  18.667  0.00  0.00    +0.000 A 
ATOM     26  C   UNL     1      -3.670  12.332  19.628  0.00  0.00    +0.000 A 
ATOM     27  C   UNL     1      -5.040  12.021  19.404  0.00  0.00    +0.000 A 
ATOM     28  C   UNL     1      -5.211  11.269  18.265  0.00  0.00    +0.000 A 
ATOM     29  S   UNL     1      -3.729  10.961  17.469  0.00  0.00    +0.000 S 
ENDBRANCH  21  25
BRANCH  24  30
ATOM     30  N   UNL     1       2.798  12.050  17.821  0.00  0.00    +0.000 N 
ATOM     31  H   UNL     1       3.450  11.624  18.475  0.00  0.00    +0.000 HD
ATOM     32  H   UNL     1       2.991  11.768  16.872  0.00  0.00    +0.000 HD
ENDBRANCH  24  30
ENDBRANCH   3  19
TORSDOF 7
ENDMDL
MODEL 9
REMARK VINA RESULT:      -7.7      3.248      4.365
REMARK  Name = 
REMARK  9 active torsions:
REMARK  status: ('A' for Active; 'I' for Inactive)
REMARK    1  A    between atoms: C_1  and  C_2
REMARK    2  A    between atoms: C_2  and  C_3
REMARK    3  A    between atoms: C_2  and  C_4
REMARK    4  A    between atoms: N_6  and  C_7
REMARK    5  A    between atoms: C_7  and  C_8
REMARK    6  A    between atoms: C_11  and  C_12
REMARK    7  A    between atoms: N_14  and  C_15
REMARK    8  A    between atoms: C_17  and  C_18
REMARK    9  A    between atoms: C_25  and  N_26
REMARK                            x       y       z     vdW  Elec       q    Type
REMARK                         _______ _______ _______ _____ _____    ______ ____
ROOT
ATOM      1  C   UNL     1       1.865   7.533  19.965  0.00  0.00    +0.000 C 
ATOM      2  O   UNL     1       2.388   7.816  18.889  0.00  0.00    +0.000 OA
ATOM      3  N   UNL     1       1.911   6.298  20.598  0.00  0.00    +0.000 N 
ATOM      4  H   UNL     1       1.345   6.154  21.415  0.00  0.00    +0.000 HD
ENDROOT
BRANCH   1   8
ATOM      5  C   UNL     1      -0.238  10.626  22.099  0.00  0.00    +0.000 A 
ATOM      6  C   UNL     1       0.042  10.794  20.735  0.00  0.00    +0.000 A 
ATOM      7  C   UNL     1       0.722   9.804  20.014  0.00  0.00    +0.000 A 
ATOM      8  C   UNL     1       1.109   8.622  20.650  0.00  0.00    +0.000 A 
ATOM      9  C   UNL     1       0.824   8.451  22.014  0.00  0.00    +0.000 A 
ATOM     10  C   UNL     1       0.150   9.441  22.732  0.00  0.00    +0.000 A 
BRANCH   5  11
ATOM     11  C   UNL     1      -0.952  11.700  22.872  0.00  0.00    +0.000 C 
BRANCH  11  14
ATOM     12  C   UNL     1      -3.250  12.439  22.512  0.00  0.00    +0.000 C 
ATOM     13  O   UNL     1      -3.602  11.998  23.602  0.00  0.00    +0.000 OA
ATOM     14  N   UNL     1      -1.953  12.357  22.068  0.00  0.00    +0.000 N 
ATOM     15  H   UNL     1      -1.744  12.545  21.093  0.00  0.00    +0.000 HD
BRANCH  12  17
ATOM     16  C   UNL     1      -3.929  12.673  20.102  0.00  0.00    +0.000 C 
ATOM     17  C   UNL     1      -4.216  13.108  21.539  0.00  0.00    +0.000 C 
ATOM     18  C   UNL     1      -5.664  12.778  21.903  0.00  0.00    +0.000 C 
ENDBRANCH  12  17
ENDBRANCH  11  14
ENDBRANCH   5  11
ENDBRANCH   1   8
BRANCH   3  19
ATOM     19  C   UNL     1       2.605   5.148  20.135  0.00  0.00    +0.000 A 
ATOM     20  C   UNL     1       3.788   5.262  19.393  0.00  0.00    +0.000 A 
ATOM     21  C   UNL     1       4.420   4.153  18.816  0.00  0.00    +0.000 A 
ATOM     22  C   UNL     1       3.887   2.889  19.066  0.00  0.00    +0.000 A 
ATOM     23  C   UNL     1       2.728   2.751  19.838  0.00  0.00    +0.000 A 
ATOM     24  C   UNL     1       2.085   3.864  20.404  0.00  0.00    +0.000 A 
BRANCH  21  25
ATOM     25  C   UNL     1       5.530   4.376  17.875  0.00  0.00    +0.000 A 
ATOM     26  C   UNL     1       6.824   4.771  18.180  0.00  0.00    +0.000 A 
ATOM     27  C   UNL     1       7.636   4.954  17.027  0.00  0.00    +0.000 A 
ATOM     28  C   UNL     1       6.948   4.673  15.870  0.00  0.00    +0.000 A 
ATOM     29  S   UNL     1       5.341   4.177  16.182  0.00  0.00    +0.000 S 
ENDBRANCH  21  25
BRANCH  24  30
ATOM     30  N   UNL     1       0.818   3.668  20.992  0.00  0.00    +0.000 N 
ATOM     31  H   UNL     1       0.051   3.965  20.393  0.00  0.00    +0.000 HD
ATOM     32  H   UNL     1       0.653   2.748  21.371  0.00  0.00    +0.000 HD
ENDBRANCH  24  30
ENDBRANCH   3  19
TORSDOF 7
ENDMDL
