MODEL 1
REMARK VINA RESULT:      -7.5      0.000      0.000
REMARK  Name = 
REMARK  11 active torsions:
REMARK  status: ('A' for Active; 'I' for Inactive)
REMARK    1  A    between atoms: C_1  and  C_2
REMARK    2  A    between atoms: C_2  and  O_3
REMARK    3  A    between atoms: O_3  and  C_4
REMARK    4  A    between atoms: C_7  and  C_8
REMARK    5  A    between atoms: C_8  and  C_9
REMARK    6  A    between atoms: C_9  and  N_10
REMARK    7  A    between atoms: C_11  and  C_13
REMARK    8  A    between atoms: C_23  and  C_24
REMARK    9  A    between atoms: C_31  and  O_32
REMARK   10  A    between atoms: O_32  and  C_33
REMARK   11  A    between atoms: C_33  and  C_34
REMARK                            x       y       z     vdW  Elec       q    Type
REMARK                         _______ _______ _______ _____ _____    ______ ____
ROOT
ATOM      1  N   UNL     1       1.142  10.243  18.033  0.00  0.00    +0.000 N 
ATOM      2  C   UNL     1       0.794  10.617  19.308  0.00  0.00    +0.000 C 
ATOM      3  O   UNL     1       0.657   9.793  20.209  0.00  0.00    +0.000 OA
ATOM      4  H   UNL     1       0.980  10.887  17.267  0.00  0.00    +0.000 HD
ENDROOT
BRANCH   2   5
ATOM      5  C   UNL     1       0.590  12.117  19.506  0.00  0.00    +0.000 C 
ATOM      6  C   UNL     1       0.663  12.530  20.987  0.00  0.00    +0.000 C 
ATOM      7  C   UNL     1      -0.585  12.126  21.784  0.00  0.00    +0.000 C 
ATOM      8  N   UNL     1      -1.792  12.578  21.088  0.00  0.00    +0.000 N 
ATOM      9  C   UNL     1      -2.733  13.380  21.704  0.00  0.00    +0.000 A 
ATOM     10  N   UNL     1      -2.668  13.872  22.907  0.00  0.00    +0.000 NA
ATOM     11  N   UNL     1      -3.776  14.657  23.156  0.00  0.00    +0.000 N 
ATOM     12  C   UNL     1      -3.962  15.345  24.344  0.00  0.00    +0.000 A 
ATOM     13  O   UNL     1      -3.230  15.333  25.324  0.00  0.00    +0.000 OA
ATOM     14  C   UNL     1      -5.206  16.159  24.359  0.00  0.00    +0.000 A 
ATOM     15  C   UNL     1      -6.010  16.180  23.282  0.00  0.00    +0.000 A 
ATOM     16  C   UNL     1      -7.266  16.998  23.216  0.00  0.00    +0.000 C 
ATOM     17  N   UNL     1      -5.757  15.469  22.136  0.00  0.00    +0.000 NA
ATOM     18  C   UNL     1      -4.676  14.770  22.142  0.00  0.00    +0.000 A 
ATOM     19  S   UNL     1      -4.181  13.827  20.800  0.00  0.00    +0.000 S 
ATOM     20  C   UNL     1      -1.923  12.047  19.731  0.00  0.00    +0.000 C 
ATOM     21  C   UNL     1      -0.747  12.548  18.895  0.00  0.00    +0.000 C 
ENDBRANCH   2   5
BRANCH   1  22
ATOM     22  C   UNL     1       1.373   8.841  17.741  0.00  0.00    +0.000 C 
BRANCH  22  23
ATOM     23  C   UNL     1       2.850   8.454  17.748  0.00  0.00    +0.000 C 
BRANCH  23  27
ATOM     24  C   UNL     1       3.504   4.309  18.866  0.00  0.00    +0.000 A 
ATOM     25  C   UNL     1       2.750   5.176  19.674  0.00  0.00    +0.000 A 
ATOM     26  C   UNL     1       2.542   6.510  19.322  0.00  0.00    +0.000 A 
ATOM     27  C   UNL     1       3.107   7.027  18.160  0.00  0.00    +0.000 A 
ATOM     28  C   UNL     1       3.905   6.184  17.378  0.00  0.00    +0.000 A 
ATOM     29  C   UNL     1       4.138   4.842  17.730  0.00  0.00    +0.000 A 
BRANCH  24  30
ATOM     30  O   UNL     1       3.627   2.970  19.163  0.00  0.00    +0.000 OA
BRANCH  30  32
ATOM     31  C   UNL     1       1.343   2.168  18.937  0.00  0.00    +0.000 C 
ATOM     32  C   UNL     1       2.765   2.105  18.411  0.00  0.00    +0.000 C 
ENDBRANCH  30  32
ENDBRANCH  24  30
BRANCH  29  33
ATOM     33  O   UNL     1       4.961   4.209  16.836  0.00  0.00    +0.000 OA
BRANCH  33  34
ATOM     34  C   UNL     1       6.347   4.535  16.867  0.00  0.00    +0.000 C 
ATOM     35  C   UNL     1       6.857   4.594  15.432  0.00  0.00    +0.000 C 
ENDBRANCH  33  34
ENDBRANCH  29  33
ENDBRANCH  23  27
ENDBRANCH  22  23
ENDBRANCH   1  22
TORSDOF 8
ENDMDL
MODEL 2
REMARK VINA RESULT:      -7.4      1.107      2.702
REMARK  Name = 
REMARK  11 active torsions:
REMARK  status: ('A' for Active; 'I' for Inactive)
REMARK    1  A    between atoms: C_1  and  C_2
REMARK    2  A    between atoms: C_2  and  O_3
REMARK    3  A    between atoms: O_3  and  C_4
REMARK    4  A    between atoms: C_7  and  C_8
REMARK    5  A    between atoms: C_8  and  C_9
REMARK    6  A    between atoms: C_9  and  N_10
REMARK    7  A    between atoms: C_11  and  C_13
REMARK    8  A    between atoms: C_23  and  C_24
REMARK    9  A    between atoms: C_31  and  O_32
REMARK   10  A    between atoms: O_32  and  C_33
REMARK   11  A    between atoms: C_33  and  C_34
REMARK                            x       y       z     vdW  Elec       q    Type
REMARK                         _______ _______ _______ _____ _____    ______ ____
ROOT
ATOM      1  N   UNL     1       1.738   9.530  18.043  0.00  0.00    +0.000 N 
ATOM      2  C   UNL     1       1.067   9.929  19.173  0.00  0.00    +0.000 C 
ATOM      3  O   UNL     1       0.594   9.118  19.965  0.00  0.00    +0.000 OA
ATOM      4  H   UNL     1       1.870  10.192  17.287  0.00  0.00    +0.000 HD
ENDROOT
BRANCH   2   5
ATOM      5  C   UNL     1       0.955  11.441  19.355  0.00  0.00    +0.000 C 
ATOM      6  C   UNL     1       1.110  11.870  20.825  0.00  0.00    +0.000 C 
ATOM      7  C   UNL     1      -0.125  11.548  21.677  0.00  0.00    +0.000 C 
ATOM      8  N   UNL     1      -1.332  12.057  21.022  0.00  0.00    +0.000 N 
ATOM      9  C   UNL     1      -2.202  12.920  21.662  0.00  0.00    +0.000 A 
ATOM     10  N   UNL     1      -2.061  13.423  22.853  0.00  0.00    +0.000 NA
ATOM     11  N   UNL     1      -3.112  14.274  23.133  0.00  0.00    +0.000 N 
ATOM     12  C   UNL     1      -3.212  14.987  24.316  0.00  0.00    +0.000 A 
ATOM     13  O   UNL     1      -2.443  14.947  25.266  0.00  0.00    +0.000 OA
ATOM     14  C   UNL     1      -4.407  15.870  24.367  0.00  0.00    +0.000 A 
ATOM     15  C   UNL     1      -5.251  15.921  23.322  0.00  0.00    +0.000 A 
ATOM     16  C   UNL     1      -6.462  16.807  23.292  0.00  0.00    +0.000 C 
ATOM     17  N   UNL     1      -5.085  15.181  22.179  0.00  0.00    +0.000 NA
ATOM     18  C   UNL     1      -4.045  14.422  22.153  0.00  0.00    +0.000 A 
ATOM     19  S   UNL     1      -3.658  13.435  20.808  0.00  0.00    +0.000 S 
ATOM     20  C   UNL     1      -1.547  11.516  19.680  0.00  0.00    +0.000 C 
ATOM     21  C   UNL     1      -0.380  11.938  18.791  0.00  0.00    +0.000 C 
ENDBRANCH   2   5
BRANCH   1  22
ATOM     22  C   UNL     1       1.913   8.114  17.784  0.00  0.00    +0.000 C 
BRANCH  22  23
ATOM     23  C   UNL     1       3.210   7.546  18.356  0.00  0.00    +0.000 C 
BRANCH  23  27
ATOM     24  C   UNL     1       5.193   4.569  15.894  0.00  0.00    +0.000 A 
ATOM     25  C   UNL     1       5.362   5.944  15.660  0.00  0.00    +0.000 A 
ATOM     26  C   UNL     1       4.723   6.904  16.445  0.00  0.00    +0.000 A 
ATOM     27  C   UNL     1       3.869   6.516  17.474  0.00  0.00    +0.000 A 
ATOM     28  C   UNL     1       3.654   5.149  17.679  0.00  0.00    +0.000 A 
ATOM     29  C   UNL     1       4.278   4.170  16.885  0.00  0.00    +0.000 A 
BRANCH  24  30
ATOM     30  O   UNL     1       5.900   3.624  15.185  0.00  0.00    +0.000 OA
BRANCH  30  32
ATOM     31  C   UNL     1       6.172   3.506  12.771  0.00  0.00    +0.000 C 
ATOM     32  C   UNL     1       6.640   4.139  14.068  0.00  0.00    +0.000 C 
ENDBRANCH  30  32
ENDBRANCH  24  30
BRANCH  29  33
ATOM     33  O   UNL     1       3.911   2.900  17.245  0.00  0.00    +0.000 OA
BRANCH  33  34
ATOM     34  C   UNL     1       2.562   2.691  17.649  0.00  0.00    +0.000 C 
ATOM     35  C   UNL     1       2.563   1.778  18.868  0.00  0.00    +0.000 C 
ENDBRANCH  33  34
ENDBRANCH  29  33
ENDBRANCH  23  27
ENDBRANCH  22  23
ENDBRANCH   1  22
TORSDOF 8
ENDMDL
MODEL 3
REMARK VINA RESULT:      -7.3      1.552      1.784
REMARK  Name = 
REMARK  11 active torsions:
REMARK  status: ('A' for Active; 'I' for Inactive)
REMARK    1  A    between atoms: C_1  and  C_2
REMARK    2  A    between atoms: C_2  and  O_3
REMARK    3  A    between atoms: O_3  and  C_4
REMARK    4  A    between atoms: C_7  and  C_8
REMARK    5  A    between atoms: C_8  and  C_9
REMARK    6  A    between atoms: C_9  and  N_10
REMARK    7  A    between atoms: C_11  and  C_13
REMARK    8  A    between atoms: C_23  and  C_24
REMARK    9  A    between atoms: C_31  and  O_32
REMARK   10  A    between atoms: O_32  and  C_33
REMARK   11  A    between atoms: C_33  and  C_34
REMARK                            x       y       z     vdW  Elec       q    Type
REMARK                         _______ _______ _______ _____ _____    ______ ____
ROOT
ATOM      1  N   UNL     1       1.268  10.075  17.736  0.00  0.00    +0.000 N 
ATOM      2  C   UNL     1       0.948  10.582  18.972  0.00  0.00    +0.000 C 
ATOM      3  O   UNL     1       0.850   9.860  19.961  0.00  0.00    +0.000 OA
ATOM      4  H   UNL     1       1.075  10.629  16.909  0.00  0.00    +0.000 HD
ENDROOT
BRANCH   2   5
ATOM      5  C   UNL     1       0.724  12.091  19.010  0.00  0.00    +0.000 C 
ATOM      6  C   UNL     1       1.463  12.766  20.179  0.00  0.00    +0.000 C 
ATOM      7  C   UNL     1       0.798  12.505  21.538  0.00  0.00    +0.000 C 
ATOM      8  N   UNL     1      -0.631  12.816  21.465  0.00  0.00    +0.000 N 
ATOM      9  C   UNL     1      -1.230  13.710  22.331  0.00  0.00    +0.000 A 
ATOM     10  N   UNL     1      -0.639  14.412  23.255  0.00  0.00    +0.000 NA
ATOM     11  N   UNL     1      -1.558  15.222  23.891  0.00  0.00    +0.000 N 
ATOM     12  C   UNL     1      -1.213  16.112  24.895  0.00  0.00    +0.000 A 
ATOM     13  O   UNL     1      -0.102  16.283  25.377  0.00  0.00    +0.000 OA
ATOM     14  C   UNL     1      -2.367  16.908  25.392  0.00  0.00    +0.000 A 
ATOM     15  C   UNL     1      -3.588  16.728  24.861  0.00  0.00    +0.000 A 
ATOM     16  C   UNL     1      -4.791  17.512  25.295  0.00  0.00    +0.000 C 
ATOM     17  N   UNL     1      -3.853  15.823  23.865  0.00  0.00    +0.000 NA
ATOM     18  C   UNL     1      -2.843  15.143  23.447  0.00  0.00    +0.000 A 
ATOM     19  S   UNL     1      -2.970  13.976  22.199  0.00  0.00    +0.000 S 
ATOM     20  C   UNL     1      -1.349  12.047  20.448  0.00  0.00    +0.000 C 
ATOM     21  C   UNL     1      -0.776  12.396  19.077  0.00  0.00    +0.000 C 
ENDBRANCH   2   5
BRANCH   1  22
ATOM     22  C   UNL     1       1.516   8.653  17.593  0.00  0.00    +0.000 C 
BRANCH  22  23
ATOM     23  C   UNL     1       2.986   8.272  17.753  0.00  0.00    +0.000 C 
BRANCH  23  27
ATOM     24  C   UNL     1       3.679   3.986  17.715  0.00  0.00    +0.000 A 
ATOM     25  C   UNL     1       2.439   4.524  18.098  0.00  0.00    +0.000 A 
ATOM     26  C   UNL     1       2.213   5.901  18.117  0.00  0.00    +0.000 A 
ATOM     27  C   UNL     1       3.234   6.786  17.779  0.00  0.00    +0.000 A 
ATOM     28  C   UNL     1       4.488   6.259  17.449  0.00  0.00    +0.000 A 
ATOM     29  C   UNL     1       4.735   4.874  17.443  0.00  0.00    +0.000 A 
BRANCH  24  30
ATOM     30  O   UNL     1       3.871   2.627  17.601  0.00  0.00    +0.000 OA
BRANCH  30  32
ATOM     31  C   UNL     1       4.378   2.147  19.930  0.00  0.00    +0.000 C 
ATOM     32  C   UNL     1       3.470   1.864  18.748  0.00  0.00    +0.000 C 
ENDBRANCH  30  32
ENDBRANCH  24  30
BRANCH  29  33
ATOM     33  O   UNL     1       6.031   4.581  17.111  0.00  0.00    +0.000 OA
BRANCH  33  34
ATOM     34  C   UNL     1       6.515   5.049  15.856  0.00  0.00    +0.000 C 
ATOM     35  C   UNL     1       6.058   4.078  14.774  0.00  0.00    +0.000 C 
ENDBRANCH  33  34
ENDBRANCH  29  33
ENDBRANCH  23  27
ENDBRANCH  22  23
ENDBRANCH   1  22
TORSDOF 8
ENDMDL
MODEL 4
REMARK VINA RESULT:      -7.3      1.504      1.667
REMARK  Name = 
REMARK  11 active torsions:
REMARK  status: ('A' for Active; 'I' for Inactive)
REMARK    1  A    between atoms: C_1  and  C_2
REMARK    2  A    between atoms: C_2  and  O_3
REMARK    3  A    between atoms: O_3  and  C_4
REMARK    4  A    between atoms: C_7  and  C_8
REMARK    5  A    between atoms: C_8  and  C_9
REMARK    6  A    between atoms: C_9  and  N_10
REMARK    7  A    between atoms: C_11  and  C_13
REMARK    8  A    between atoms: C_23  and  C_24
REMARK    9  A    between atoms: C_31  and  O_32
REMARK   10  A    between atoms: O_32  and  C_33
REMARK   11  A    between atoms: C_33  and  C_34
REMARK                            x       y       z     vdW  Elec       q    Type
REMARK                         _______ _______ _______ _____ _____    ______ ____
ROOT
ATOM      1  N   UNL     1       1.220  10.130  19.176  0.00  0.00    +0.000 N 
ATOM      2  C   UNL     1       0.151  10.744  18.571  0.00  0.00    +0.000 C 
ATOM      3  O   UNL     1      -0.689  10.107  17.940  0.00  0.00    +0.000 OA
ATOM      4  H   UNL     1       2.025  10.686  19.443  0.00  0.00    +0.000 HD
ENDROOT
BRANCH   2   5
ATOM      5  C   UNL     1       0.101  12.260  18.739  0.00  0.00    +0.000 C 
ATOM      6  C   UNL     1       0.892  12.742  19.968  0.00  0.00    +0.000 C 
ATOM      7  C   UNL     1       0.180  12.443  21.294  0.00  0.00    +0.000 C 
ATOM      8  N   UNL     1      -1.202  12.922  21.240  0.00  0.00    +0.000 N 
ATOM      9  C   UNL     1      -1.709  13.801  22.177  0.00  0.00    +0.000 A 
ATOM     10  N   UNL     1      -1.057  14.348  23.163  0.00  0.00    +0.000 NA
ATOM     11  N   UNL     1      -1.888  15.201  23.861  0.00  0.00    +0.000 N 
ATOM     12  C   UNL     1      -1.460  15.955  24.941  0.00  0.00    +0.000 A 
ATOM     13  O   UNL     1      -0.345  15.954  25.443  0.00  0.00    +0.000 OA
ATOM     14  C   UNL     1      -2.523  16.832  25.499  0.00  0.00    +0.000 A 
ATOM     15  C   UNL     1      -3.748  16.841  24.947  0.00  0.00    +0.000 A 
ATOM     16  C   UNL     1      -4.861  17.718  25.440  0.00  0.00    +0.000 C 
ATOM     17  N   UNL     1      -4.098  16.062  23.873  0.00  0.00    +0.000 NA
ATOM     18  C   UNL     1      -3.166  15.309  23.404  0.00  0.00    +0.000 A 
ATOM     19  S   UNL     1      -3.405  14.276  22.058  0.00  0.00    +0.000 S 
ATOM     20  C   UNL     1      -1.987  12.331  20.155  0.00  0.00    +0.000 C 
ATOM     21  C   UNL     1      -1.355  12.729  18.823  0.00  0.00    +0.000 C 
ENDBRANCH   2   5
BRANCH   1  22
ATOM     22  C   UNL     1       1.355   8.688  19.088  0.00  0.00    +0.000 C 
BRANCH  22  23
ATOM     23  C   UNL     1       2.297   8.230  17.977  0.00  0.00    +0.000 C 
BRANCH  23  27
ATOM     24  C   UNL     1       4.398   4.535  18.859  0.00  0.00    +0.000 A 
ATOM     25  C   UNL     1       3.641   5.199  19.839  0.00  0.00    +0.000 A 
ATOM     26  C   UNL     1       2.969   6.390  19.562  0.00  0.00    +0.000 A 
ATOM     27  C   UNL     1       3.056   6.969  18.299  0.00  0.00    +0.000 A 
ATOM     28  C   UNL     1       3.853   6.342  17.334  0.00  0.00    +0.000 A 
ATOM     29  C   UNL     1       4.550   5.150  17.604  0.00  0.00    +0.000 A 
BRANCH  24  30
ATOM     30  O   UNL     1       4.980   3.311  19.104  0.00  0.00    +0.000 OA
BRANCH  30  32
ATOM     31  C   UNL     1       3.232   1.722  18.530  0.00  0.00    +0.000 C 
ATOM     32  C   UNL     1       4.091   2.316  19.630  0.00  0.00    +0.000 C 
ENDBRANCH  30  32
ENDBRANCH  24  30
BRANCH  29  33
ATOM     33  O   UNL     1       5.281   4.723  16.527  0.00  0.00    +0.000 OA
BRANCH  33  34
ATOM     34  C   UNL     1       6.538   5.348  16.290  0.00  0.00    +0.000 C 
ATOM     35  C   UNL     1       7.084   4.838  14.962  0.00  0.00    +0.000 C 
ENDBRANCH  33  34
ENDBRANCH  29  33
ENDBRANCH  23  27
ENDBRANCH  22  23
ENDBRANCH   1  22
TORSDOF 8
ENDMDL
MODEL 5
REMARK VINA RESULT:      -7.3      2.221      3.354
REMARK  Name = 
REMARK  11 active torsions:
REMARK  status: ('A' for Active; 'I' for Inactive)
REMARK    1  A    between atoms: C_1  and  C_2
REMARK    2  A    between atoms: C_2  and  O_3
REMARK    3  A    between atoms: O_3  and  C_4
REMARK    4  A    between atoms: C_7  and  C_8
REMARK    5  A    between atoms: C_8  and  C_9
REMARK    6  A    between atoms: C_9  and  N_10
REMARK    7  A    between atoms: C_11  and  C_13
REMARK    8  A    between atoms: C_23  and  C_24
REMARK    9  A    between atoms: C_31  and  O_32
REMARK   10  A    between atoms: O_32  and  C_33
REMARK   11  A    between atoms: C_33  and  C_34
REMARK                            x       y       z     vdW  Elec       q    Type
REMARK                         _______ _______ _______ _____ _____    ______ ____
ROOT
ATOM      1  N   UNL     1       2.002   7.208  20.720  0.00  0.00    +0.000 N 
ATOM      2  C   UNL     1       1.708   8.472  20.272  0.00  0.00    +0.000 C 
ATOM      3  O   UNL     1       1.475   8.702  19.088  0.00  0.00    +0.000 OA
ATOM      4  H   UNL     1       2.451   7.095  21.622  0.00  0.00    +0.000 HD
ENDROOT
BRANCH   2   5
ATOM      5  C   UNL     1       1.699   9.552  21.352  0.00  0.00    +0.000 C 
ATOM      6  C   UNL     1       0.692   9.251  22.476  0.00  0.00    +0.000 C 
ATOM      7  C   UNL     1      -0.765   9.483  22.053  0.00  0.00    +0.000 C 
ATOM      8  N   UNL     1      -0.908  10.811  21.454  0.00  0.00    +0.000 N 
ATOM      9  C   UNL     1      -1.819  11.734  21.929  0.00  0.00    +0.000 A 
ATOM     10  N   UNL     1      -2.606  11.592  22.956  0.00  0.00    +0.000 NA
ATOM     11  N   UNL     1      -3.345  12.742  23.146  0.00  0.00    +0.000 N 
ATOM     12  C   UNL     1      -4.242  12.899  24.190  0.00  0.00    +0.000 A 
ATOM     13  O   UNL     1      -4.533  12.071  25.040  0.00  0.00    +0.000 OA
ATOM     14  C   UNL     1      -4.882  14.241  24.213  0.00  0.00    +0.000 A 
ATOM     15  C   UNL     1      -4.560  15.157  23.283  0.00  0.00    +0.000 A 
ATOM     16  C   UNL     1      -5.146  16.538  23.260  0.00  0.00    +0.000 C 
ATOM     17  N   UNL     1      -3.658  14.926  22.276  0.00  0.00    +0.000 NA
ATOM     18  C   UNL     1      -3.114  13.760  22.271  0.00  0.00    +0.000 A 
ATOM     19  S   UNL     1      -1.953  13.288  21.103  0.00  0.00    +0.000 S 
ATOM     20  C   UNL     1      -0.051  11.024  20.286  0.00  0.00    +0.000 C 
ATOM     21  C   UNL     1       1.407  10.918  20.724  0.00  0.00    +0.000 C 
ENDBRANCH   2   5
BRANCH   1  22
ATOM     22  C   UNL     1       2.023   6.107  19.777  0.00  0.00    +0.000 C 
BRANCH  22  23
ATOM     23  C   UNL     1       3.290   5.259  19.857  0.00  0.00    +0.000 C 
BRANCH  23  27
ATOM     24  C   UNL     1       5.407   5.076  16.071  0.00  0.00    +0.000 A 
ATOM     25  C   UNL     1       4.541   4.047  16.477  0.00  0.00    +0.000 A 
ATOM     26  C   UNL     1       3.863   4.098  17.695  0.00  0.00    +0.000 A 
ATOM     27  C   UNL     1       4.053   5.172  18.560  0.00  0.00    +0.000 A 
ATOM     28  C   UNL     1       4.955   6.175  18.187  0.00  0.00    +0.000 A 
ATOM     29  C   UNL     1       5.659   6.127  16.970  0.00  0.00    +0.000 A 
BRANCH  24  30
ATOM     30  O   UNL     1       5.999   5.072  14.827  0.00  0.00    +0.000 OA
BRANCH  30  32
ATOM     31  C   UNL     1       6.521   3.929  12.746  0.00  0.00    +0.000 C 
ATOM     32  C   UNL     1       5.699   3.924  14.021  0.00  0.00    +0.000 C 
ENDBRANCH  30  32
ENDBRANCH  24  30
BRANCH  29  33
ATOM     33  O   UNL     1       6.500   7.197  16.817  0.00  0.00    +0.000 OA
BRANCH  33  34
ATOM     34  C   UNL     1       7.596   7.311  17.720  0.00  0.00    +0.000 C 
ATOM     35  C   UNL     1       8.007   8.777  17.790  0.00  0.00    +0.000 C 
ENDBRANCH  33  34
ENDBRANCH  29  33
ENDBRANCH  23  27
ENDBRANCH  22  23
ENDBRANCH   1  22
TORSDOF 8
ENDMDL
MODEL 6
REMARK VINA RESULT:      -7.3      5.180     10.999
REMARK  Name = 
REMARK  11 active torsions:
REMARK  status: ('A' for Active; 'I' for Inactive)
REMARK    1  A    between atoms: C_1  and  C_2
REMARK    2  A    between atoms: C_2  and  O_3
REMARK    3  A    between atoms: O_3  and  C_4
REMARK    4  A    between atoms: C_7  and  C_8
REMARK    5  A    between atoms: C_8  and  C_9
REMARK    6  A    between atoms: C_9  and  N_10
REMARK    7  A    between atoms: C_11  and  C_13
REMARK    8  A    between atoms: C_23  and  C_24
REMARK    9  A    between atoms: C_31  and  O_32
REMARK   10  A    between atoms: O_32  and  C_33
REMARK   11  A    between atoms: C_33  and  C_34
REMARK                            x       y       z     vdW  Elec       q    Type
REMARK                         _______ _______ _______ _____ _____    ______ ____
ROOT
ATOM      1  N   UNL     1       0.818  12.468  18.872  0.00  0.00    +0.000 N 
ATOM      2  C   UNL     1       0.582  11.696  19.983  0.00  0.00    +0.000 C 
ATOM      3  O   UNL     1       0.925  12.055  21.106  0.00  0.00    +0.000 OA
ATOM      4  H   UNL     1       0.780  12.040  17.954  0.00  0.00    +0.000 HD
ENDROOT
BRANCH   2   5
ATOM      5  C   UNL     1      -0.126  10.372  19.706  0.00  0.00    +0.000 C 
ATOM      6  C   UNL     1      -0.085   9.419  20.915  0.00  0.00    +0.000 C 
ATOM      7  C   UNL     1       1.295   8.783  21.129  0.00  0.00    +0.000 C 
ATOM      8  N   UNL     1       1.775   8.193  19.877  0.00  0.00    +0.000 N 
ATOM      9  C   UNL     1       2.148   6.866  19.791  0.00  0.00    +0.000 A 
ATOM     10  N   UNL     1       2.083   5.976  20.738  0.00  0.00    +0.000 NA
ATOM     11  N   UNL     1       2.507   4.751  20.265  0.00  0.00    +0.000 N 
ATOM     12  C   UNL     1       2.510   3.602  21.039  0.00  0.00    +0.000 A 
ATOM     13  O   UNL     1       2.192   3.507  22.216  0.00  0.00    +0.000 OA
ATOM     14  C   UNL     1       2.965   2.397  20.295  0.00  0.00    +0.000 A 
ATOM     15  C   UNL     1       3.310   2.497  19.000  0.00  0.00    +0.000 A 
ATOM     16  C   UNL     1       3.753   1.320  18.180  0.00  0.00    +0.000 C 
ATOM     17  N   UNL     1       3.280   3.675  18.298  0.00  0.00    +0.000 NA
ATOM     18  C   UNL     1       2.884   4.707  18.958  0.00  0.00    +0.000 A 
ATOM     19  S   UNL     1       2.765   6.262  18.251  0.00  0.00    +0.000 S 
ATOM     20  C   UNL     1       1.878   9.152  18.777  0.00  0.00    +0.000 C 
ATOM     21  C   UNL     1       0.485   9.699  18.474  0.00  0.00    +0.000 C 
ENDBRANCH   2   5
BRANCH   1  22
ATOM     22  C   UNL     1       1.473  13.753  19.026  0.00  0.00    +0.000 C 
BRANCH  22  23
ATOM     23  C   UNL     1       2.673  13.941  18.101  0.00  0.00    +0.000 C 
BRANCH  23  27
ATOM     24  C   UNL     1       5.386  17.068  19.409  0.00  0.00    +0.000 A 
ATOM     25  C   UNL     1       4.010  17.131  19.683  0.00  0.00    +0.000 A 
ATOM     26  C   UNL     1       3.133  16.131  19.260  0.00  0.00    +0.000 A 
ATOM     27  C   UNL     1       3.605  15.048  18.523  0.00  0.00    +0.000 A 
ATOM     28  C   UNL     1       4.966  15.006  18.200  0.00  0.00    +0.000 A 
ATOM     29  C   UNL     1       5.858  16.016  18.605  0.00  0.00    +0.000 A 
BRANCH  24  30
ATOM     30  O   UNL     1       6.265  18.003  19.910  0.00  0.00    +0.000 OA
BRANCH  30  32
ATOM     31  C   UNL     1       6.664  16.788  21.978  0.00  0.00    +0.000 C 
ATOM     32  C   UNL     1       6.279  18.110  21.341  0.00  0.00    +0.000 C 
ENDBRANCH  30  32
ENDBRANCH  24  30
BRANCH  29  33
ATOM     33  O   UNL     1       7.134  15.785  18.164  0.00  0.00    +0.000 OA
BRANCH  33  34
ATOM     34  C   UNL     1       7.662  14.471  18.321  0.00  0.00    +0.000 C 
ATOM     35  C   UNL     1       8.530  14.450  19.573  0.00  0.00    +0.000 C 
ENDBRANCH  33  34
ENDBRANCH  29  33
ENDBRANCH  23  27
ENDBRANCH  22  23
ENDBRANCH   1  22
TORSDOF 8
ENDMDL
MODEL 7
REMARK VINA RESULT:      -7.2      5.516     10.917
REMARK  Name = 
REMARK  11 active torsions:
REMARK  status: ('A' for Active; 'I' for Inactive)
REMARK    1  A    between atoms: C_1  and  C_2
REMARK    2  A    between atoms: C_2  and  O_3
REMARK    3  A    between atoms: O_3  and  C_4
REMARK    4  A    between atoms: C_7  and  C_8
REMARK    5  A    between atoms: C_8  and  C_9
REMARK    6  A    between atoms: C_9  and  N_10
REMARK    7  A    between atoms: C_11  and  C_13
REMARK    8  A    between atoms: C_23  and  C_24
REMARK    9  A    between atoms: C_31  and  O_32
REMARK   10  A    between atoms: O_32  and  C_33
REMARK   11  A    between atoms: C_33  and  C_34
REMARK                            x       y       z     vdW  Elec       q    Type
REMARK                         _______ _______ _______ _____ _____    ______ ____
ROOT
ATOM      1  N   UNL     1       1.552  12.392  18.980  0.00  0.00    +0.000 N 
ATOM      2  C   UNL     1       0.936  11.724  20.010  0.00  0.00    +0.000 C 
ATOM      3  O   UNL     1       1.000  12.123  21.170  0.00  0.00    +0.000 OA
ATOM      4  H   UNL     1       1.715  11.908  18.104  0.00  0.00    +0.000 HD
ENDROOT
BRANCH   2   5
ATOM      5  C   UNL     1       0.182  10.461  19.598  0.00  0.00    +0.000 C 
ATOM      6  C   UNL     1       0.032   9.462  20.758  0.00  0.00    +0.000 C 
ATOM      7  C   UNL     1       1.338   8.727  21.089  0.00  0.00    +0.000 C 
ATOM      8  N   UNL     1       1.915   8.157  19.870  0.00  0.00    +0.000 N 
ATOM      9  C   UNL     1       2.213   6.812  19.763  0.00  0.00    +0.000 A 
ATOM     10  N   UNL     1       1.990   5.892  20.656  0.00  0.00    +0.000 NA
ATOM     11  N   UNL     1       2.386   4.661  20.174  0.00  0.00    +0.000 N 
ATOM     12  C   UNL     1       2.234   3.485  20.890  0.00  0.00    +0.000 A 
ATOM     13  O   UNL     1       1.783   3.365  22.020  0.00  0.00    +0.000 OA
ATOM     14  C   UNL     1       2.693   2.283  20.144  0.00  0.00    +0.000 A 
ATOM     15  C   UNL     1       3.184   2.410  18.899  0.00  0.00    +0.000 A 
ATOM     16  C   UNL     1       3.641   1.240  18.078  0.00  0.00    +0.000 C 
ATOM     17  N   UNL     1       3.304   3.614  18.253  0.00  0.00    +0.000 NA
ATOM     18  C   UNL     1       2.902   4.643  18.914  0.00  0.00    +0.000 A 
ATOM     19  S   UNL     1       2.957   6.230  18.271  0.00  0.00    +0.000 S 
ATOM     20  C   UNL     1       2.197   9.149  18.833  0.00  0.00    +0.000 C 
ATOM     21  C   UNL     1       0.882   9.799  18.408  0.00  0.00    +0.000 C 
ENDBRANCH   2   5
BRANCH   1  22
ATOM     22  C   UNL     1       2.283  13.612  19.261  0.00  0.00    +0.000 C 
BRANCH  22  23
ATOM     23  C   UNL     1       3.061  14.147  18.061  0.00  0.00    +0.000 C 
BRANCH  23  27
ATOM     24  C   UNL     1       6.746  16.144  19.197  0.00  0.00    +0.000 A 
ATOM     25  C   UNL     1       5.500  16.569  19.688  0.00  0.00    +0.000 A 
ATOM     26  C   UNL     1       4.313  15.934  19.322  0.00  0.00    +0.000 A 
ATOM     27  C   UNL     1       4.333  14.868  18.427  0.00  0.00    +0.000 A 
ATOM     28  C   UNL     1       5.564  14.473  17.891  0.00  0.00    +0.000 A 
ATOM     29  C   UNL     1       6.767  15.115  18.238  0.00  0.00    +0.000 A 
BRANCH  24  30
ATOM     30  O   UNL     1       7.924  16.706  19.634  0.00  0.00    +0.000 OA
BRANCH  30  32
ATOM     31  C   UNL     1       9.195  18.141  18.138  0.00  0.00    +0.000 C 
ATOM     32  C   UNL     1       8.134  18.063  19.220  0.00  0.00    +0.000 C 
ENDBRANCH  30  32
ENDBRANCH  24  30
BRANCH  29  33
ATOM     33  O   UNL     1       7.845  14.582  17.583  0.00  0.00    +0.000 OA
BRANCH  33  34
ATOM     34  C   UNL     1       8.211  13.240  17.892  0.00  0.00    +0.000 C 
ATOM     35  C   UNL     1       9.702  13.077  17.626  0.00  0.00    +0.000 C 
ENDBRANCH  33  34
ENDBRANCH  29  33
ENDBRANCH  23  27
ENDBRANCH  22  23
ENDBRANCH   1  22
TORSDOF 8
ENDMDL
MODEL 8
REMARK VINA RESULT:      -7.2      3.461     11.451
REMARK  Name = 
REMARK  11 active torsions:
REMARK  status: ('A' for Active; 'I' for Inactive)
REMARK    1  A    between atoms: C_1  and  C_2
REMARK    2  A    between atoms: C_2  and  O_3
REMARK    3  A    between atoms: O_3  and  C_4
REMARK    4  A    between atoms: C_7  and  C_8
REMARK    5  A    between atoms: C_8  and  C_9
REMARK    6  A    between atoms: C_9  and  N_10
REMARK    7  A    between atoms: C_11  and  C_13
REMARK    8  A    between atoms: C_23  and  C_24
REMARK    9  A    between atoms: C_31  and  O_32
REMARK   10  A    between atoms: O_32  and  C_33
REMARK   11  A    between atoms: C_33  and  C_34
REMARK                            x       y       z     vdW  Elec       q    Type
REMARK                         _______ _______ _______ _____ _____    ______ ____
ROOT
ATOM      1  N   UNL     1      -0.179  12.390  20.459  0.00  0.00    +0.000 N 
ATOM      2  C   UNL     1       0.508  11.610  19.561  0.00  0.00    +0.000 C 
ATOM      3  O   UNL     1       1.566  11.980  19.058  0.00  0.00    +0.000 OA
ATOM      4  H   UNL     1      -1.157  12.193  20.639  0.00  0.00    +0.000 HD
ENDROOT
BRANCH   2   5
ATOM      5  C   UNL     1      -0.148  10.269  19.241  0.00  0.00    +0.000 C 
ATOM      6  C   UNL     1      -0.218   9.341  20.468  0.00  0.00    +0.000 C 
ATOM      7  C   UNL     1       1.143   8.733  20.836  0.00  0.00    +0.000 C 
ATOM      8  N   UNL     1       1.758   8.127  19.654  0.00  0.00    +0.000 N 
ATOM      9  C   UNL     1       2.158   6.805  19.634  0.00  0.00    +0.000 A 
ATOM     10  N   UNL     1       2.008   5.933  20.589  0.00  0.00    +0.000 NA
ATOM     11  N   UNL     1       2.497   4.706  20.188  0.00  0.00    +0.000 N 
ATOM     12  C   UNL     1       2.438   3.573  20.982  0.00  0.00    +0.000 A 
ATOM     13  O   UNL     1       2.001   3.495  22.122  0.00  0.00    +0.000 OA
ATOM     14  C   UNL     1       2.985   2.362  20.315  0.00  0.00    +0.000 A 
ATOM     15  C   UNL     1       3.461   2.441  19.061  0.00  0.00    +0.000 A 
ATOM     16  C   UNL     1       4.004   1.257  18.316  0.00  0.00    +0.000 C 
ATOM     17  N   UNL     1       3.486   3.605  18.334  0.00  0.00    +0.000 NA
ATOM     18  C   UNL     1       3.009   4.642  18.928  0.00  0.00    +0.000 A 
ATOM     19  S   UNL     1       2.940   6.182  18.179  0.00  0.00    +0.000 S 
ATOM     20  C   UNL     1       1.959   9.066  18.549  0.00  0.00    +0.000 C 
ATOM     21  C   UNL     1       0.597   9.582  18.093  0.00  0.00    +0.000 C 
ENDBRANCH   2   5
BRANCH   1  22
ATOM     22  C   UNL     1       0.366  13.679  20.842  0.00  0.00    +0.000 C 
BRANCH  22  23
ATOM     23  C   UNL     1      -0.676  14.633  21.422  0.00  0.00    +0.000 C 
BRANCH  23  27
ATOM     24  C   UNL     1      -4.172  12.741  23.170  0.00  0.00    +0.000 A 
ATOM     25  C   UNL     1      -3.030  13.023  23.938  0.00  0.00    +0.000 A 
ATOM     26  C   UNL     1      -1.902  13.626  23.380  0.00  0.00    +0.000 A 
ATOM     27  C   UNL     1      -1.872  13.940  22.024  0.00  0.00    +0.000 A 
ATOM     28  C   UNL     1      -2.985  13.613  21.241  0.00  0.00    +0.000 A 
ATOM     29  C   UNL     1      -4.121  12.990  21.787  0.00  0.00    +0.000 A 
BRANCH  24  30
ATOM     30  O   UNL     1      -5.320  12.238  23.740  0.00  0.00    +0.000 OA
BRANCH  30  32
ATOM     31  C   UNL     1      -7.678  12.712  23.386  0.00  0.00    +0.000 C 
ATOM     32  C   UNL     1      -6.359  13.203  23.954  0.00  0.00    +0.000 C 
ENDBRANCH  30  32
ENDBRANCH  24  30
BRANCH  29  33
ATOM     33  O   UNL     1      -5.080  12.743  20.840  0.00  0.00    +0.000 OA
BRANCH  33  34
ATOM     34  C   UNL     1      -5.707  13.864  20.225  0.00  0.00    +0.000 C 
ATOM     35  C   UNL     1      -7.040  13.409  19.644  0.00  0.00    +0.000 C 
ENDBRANCH  33  34
ENDBRANCH  29  33
ENDBRANCH  23  27
ENDBRANCH  22  23
ENDBRANCH   1  22
TORSDOF 8
ENDMDL
MODEL 9
REMARK VINA RESULT:      -7.2      1.574      2.606
REMARK  Name = 
REMARK  11 active torsions:
REMARK  status: ('A' for Active; 'I' for Inactive)
REMARK    1  A    between atoms: C_1  and  C_2
REMARK    2  A    between atoms: C_2  and  O_3
REMARK    3  A    between atoms: O_3  and  C_4
REMARK    4  A    between atoms: C_7  and  C_8
REMARK    5  A    between atoms: C_8  and  C_9
REMARK    6  A    between atoms: C_9  and  N_10
REMARK    7  A    between atoms: C_11  and  C_13
REMARK    8  A    between atoms: C_23  and  C_24
REMARK    9  A    between atoms: C_31  and  O_32
REMARK   10  A    between atoms: O_32  and  C_33
REMARK   11  A    between atoms: C_33  and  C_34
REMARK                            x       y       z     vdW  Elec       q    Type
REMARK                         _______ _______ _______ _____ _____    ______ ____
ROOT
ATOM      1  N   UNL     1       1.212   9.435  19.256  0.00  0.00    +0.000 N 
ATOM      2  C   UNL     1       1.341  10.802  19.282  0.00  0.00    +0.000 C 
ATOM      3  O   UNL     1       1.646  11.443  18.279  0.00  0.00    +0.000 OA
ATOM      4  H   UNL     1       1.234   8.919  20.128  0.00  0.00    +0.000 HD
ENDROOT
BRANCH   2   5
ATOM      5  C   UNL     1       1.084  11.447  20.642  0.00  0.00    +0.000 C 
ATOM      6  C   UNL     1      -0.029  10.733  21.430  0.00  0.00    +0.000 C 
ATOM      7  C   UNL     1      -1.433  11.025  20.883  0.00  0.00    +0.000 C 
ATOM      8  N   UNL     1      -1.624  12.470  20.741  0.00  0.00    +0.000 N 
ATOM      9  C   UNL     1      -2.677  13.131  21.344  0.00  0.00    +0.000 A 
ATOM     10  N   UNL     1      -3.575  12.610  22.129  0.00  0.00    +0.000 NA
ATOM     11  N   UNL     1      -4.442  13.589  22.570  0.00  0.00    +0.000 N 
ATOM     12  C   UNL     1      -5.480  13.338  23.452  0.00  0.00    +0.000 A 
ATOM     13  O   UNL     1      -5.798  12.256  23.924  0.00  0.00    +0.000 OA
ATOM     14  C   UNL     1      -6.246  14.559  23.816  0.00  0.00    +0.000 A 
ATOM     15  C   UNL     1      -5.896  15.751  23.303  0.00  0.00    +0.000 A 
ATOM     16  C   UNL     1      -6.606  17.028  23.645  0.00  0.00    +0.000 C 
ATOM     17  N   UNL     1      -4.850  15.922  22.432  0.00  0.00    +0.000 NA
ATOM     18  C   UNL     1      -4.198  14.854  22.128  0.00  0.00    +0.000 A 
ATOM     19  S   UNL     1      -2.853  14.865  21.068  0.00  0.00    +0.000 S 
ATOM     20  C   UNL     1      -0.646  13.109  19.860  0.00  0.00    +0.000 C 
ATOM     21  C   UNL     1       0.745  12.930  20.462  0.00  0.00    +0.000 C 
ENDBRANCH   2   5
BRANCH   1  22
ATOM     22  C   UNL     1       1.421   8.726  18.008  0.00  0.00    +0.000 C 
BRANCH  22  23
ATOM     23  C   UNL     1       2.889   8.422  17.719  0.00  0.00    +0.000 C 
BRANCH  23  27
ATOM     24  C   UNL     1       4.213   4.481  18.972  0.00  0.00    +0.000 A 
ATOM     25  C   UNL     1       4.668   5.062  17.776  0.00  0.00    +0.000 A 
ATOM     26  C   UNL     1       4.241   6.325  17.366  0.00  0.00    +0.000 A 
ATOM     27  C   UNL     1       3.321   7.038  18.130  0.00  0.00    +0.000 A 
ATOM     28  C   UNL     1       2.822   6.444  19.295  0.00  0.00    +0.000 A 
ATOM     29  C   UNL     1       3.230   5.163  19.710  0.00  0.00    +0.000 A 
BRANCH  24  30
ATOM     30  O   UNL     1       4.709   3.279  19.425  0.00  0.00    +0.000 OA
BRANCH  30  32
ATOM     31  C   UNL     1       3.356   2.083  17.796  0.00  0.00    +0.000 C 
ATOM     32  C   UNL     1       3.835   2.158  19.234  0.00  0.00    +0.000 C 
ENDBRANCH  30  32
ENDBRANCH  24  30
BRANCH  29  33
ATOM     33  O   UNL     1       2.603   4.770  20.863  0.00  0.00    +0.000 OA
BRANCH  33  34
ATOM     34  C   UNL     1       1.368   4.072  20.739  0.00  0.00    +0.000 C 
ATOM     35  C   UNL     1       1.450   2.801  21.575  0.00  0.00    +0.000 C 
ENDBRANCH  33  34
ENDBRANCH  29  33
ENDBRANCH  23  27
ENDBRANCH  22  23
ENDBRANCH   1  22
TORSDOF 8
ENDMDL
