MODEL 1
REMARK VINA RESULT:      -6.6      0.000      0.000
REMARK  Name = 
REMARK  12 active torsions:
REMARK  status: ('A' for Active; 'I' for Inactive)
REMARK    1  A    between atoms: C_1  and  C_2
REMARK    2  A    between atoms: C_2  and  C_3
REMARK    3  A    between atoms: C_3  and  C_4
REMARK    4  A    between atoms: C_4  and  C_5
REMARK    5  A    between atoms: C_5  and  C_6
REMARK    6  A    between atoms: C_6  and  C_7
REMARK    7  A    between atoms: C_7  and  C_8
REMARK    8  A    between atoms: C_8  and  O_10
REMARK    9  A    between atoms: O_10  and  C_11
REMARK   10  A    between atoms: C_14  and  C_15
REMARK   11  A    between atoms: N_16  and  C_17
REMARK   12  A    between atoms: C_17  and  C_18
REMARK                            x       y       z     vdW  Elec       q    Type
REMARK                         _______ _______ _______ _____ _____    ______ ____
ROOT
ATOM      1  C   UNL     1       4.056   5.222  17.272  0.00  0.00    +0.000 A 
ATOM      2  C   UNL     1       2.735   5.313  17.703  0.00  0.00    +0.000 A 
ATOM      3  C   UNL     1       2.174   6.573  17.910  0.00  0.00    +0.000 A 
ATOM      4  C   UNL     1       2.937   7.727  17.692  0.00  0.00    +0.000 A 
ATOM      5  C   UNL     1       4.260   7.630  17.257  0.00  0.00    +0.000 A 
ATOM      6  C   UNL     1       4.824   6.372  17.060  0.00  0.00    +0.000 A 
ENDROOT
BRANCH   4   7
ATOM      7  C   UNL     1       2.370   9.066  17.932  0.00  0.00    +0.000 C 
ATOM      8  N   UNL     1       1.215   9.210  18.480  0.00  0.00    +0.000 NA
BRANCH   8   9
ATOM      9  C   UNL     1       0.761  10.592  18.632  0.00  0.00    +0.000 C 
BRANCH   9  10
ATOM     10  C   UNL     1      -0.721  10.682  18.396  0.00  0.00    +0.000 A 
ATOM     11  C   UNL     1      -1.359   9.819  17.498  0.00  0.00    +0.000 A 
ATOM     12  C   UNL     1      -2.732   9.918  17.304  0.00  0.00    +0.000 A 
ATOM     13  C   UNL     1      -3.424  10.887  18.011  0.00  0.00    +0.000 A 
ATOM     14  N   UNL     1      -2.844  11.742  18.881  0.00  0.00    +0.000 NA
ATOM     15  C   UNL     1      -1.509  11.614  19.058  0.00  0.00    +0.000 A 
ENDBRANCH   9  10
ENDBRANCH   8   9
ENDBRANCH   4   7
BRANCH   1  16
ATOM     16  O   UNL     1       4.632   3.945  17.205  0.00  0.00    +0.000 OA
BRANCH  16  17
ATOM     17  C   UNL     1       4.383   3.099  18.280  0.00  0.00    +0.000 C 
ATOM     18  O   UNL     1       4.815   3.228  19.418  0.00  0.00    +0.000 OA
BRANCH  17  19
ATOM     19  C   UNL     1       3.452   1.992  17.837  0.00  0.00    +0.000 C 
BRANCH  19  20
ATOM     20  C   UNL     1       2.508   1.633  18.983  0.00  0.00    +0.000 C 
BRANCH  20  21
ATOM     21  C   UNL     1       1.091   2.160  18.762  0.00  0.00    +0.000 C 
BRANCH  21  22
ATOM     22  C   UNL     1       0.738   3.210  19.820  0.00  0.00    +0.000 C 
BRANCH  22  23
ATOM     23  C   UNL     1       1.177   2.777  21.218  0.00  0.00    +0.000 C 
BRANCH  23  25
ATOM     24  C   UNL     1       2.173   5.093  21.186  0.00  0.00    +0.000 C 
ATOM     25  C   UNL     1       2.282   3.688  21.755  0.00  0.00    +0.000 C 
ENDBRANCH  23  25
ENDBRANCH  22  23
ENDBRANCH  21  22
ENDBRANCH  20  21
ENDBRANCH  19  20
ENDBRANCH  17  19
ENDBRANCH  16  17
ENDBRANCH   1  16
TORSDOF 11
ENDMDL
MODEL 2
REMARK VINA RESULT:      -6.5      4.663      6.837
REMARK  Name = 
REMARK  12 active torsions:
REMARK  status: ('A' for Active; 'I' for Inactive)
REMARK    1  A    between atoms: C_1  and  C_2
REMARK    2  A    between atoms: C_2  and  C_3
REMARK    3  A    between atoms: C_3  and  C_4
REMARK    4  A    between atoms: C_4  and  C_5
REMARK    5  A    between atoms: C_5  and  C_6
REMARK    6  A    between atoms: C_6  and  C_7
REMARK    7  A    between atoms: C_7  and  C_8
REMARK    8  A    between atoms: C_8  and  O_10
REMARK    9  A    between atoms: O_10  and  C_11
REMARK   10  A    between atoms: C_14  and  C_15
REMARK   11  A    between atoms: N_16  and  C_17
REMARK   12  A    between atoms: C_17  and  C_18
REMARK                            x       y       z     vdW  Elec       q    Type
REMARK                         _______ _______ _______ _____ _____    ______ ____
ROOT
ATOM      1  C   UNL     1       5.340   5.375  18.684  0.00  0.00    +0.000 A 
ATOM      2  C   UNL     1       4.963   6.338  17.751  0.00  0.00    +0.000 A 
ATOM      3  C   UNL     1       5.891   7.302  17.358  0.00  0.00    +0.000 A 
ATOM      4  C   UNL     1       7.182   7.299  17.904  0.00  0.00    +0.000 A 
ATOM      5  C   UNL     1       7.554   6.330  18.837  0.00  0.00    +0.000 A 
ATOM      6  C   UNL     1       6.625   5.373  19.237  0.00  0.00    +0.000 A 
ENDROOT
BRANCH   4   7
ATOM      7  C   UNL     1       8.168   8.326  17.521  0.00  0.00    +0.000 C 
ATOM      8  N   UNL     1       8.387   9.348  18.271  0.00  0.00    +0.000 NA
BRANCH   8   9
ATOM      9  C   UNL     1       9.370  10.302  17.757  0.00  0.00    +0.000 C 
BRANCH   9  10
ATOM     10  C   UNL     1       9.677  11.343  18.798  0.00  0.00    +0.000 A 
ATOM     11  C   UNL     1       9.684  11.018  20.159  0.00  0.00    +0.000 A 
ATOM     12  C   UNL     1       9.978  11.996  21.100  0.00  0.00    +0.000 A 
ATOM     13  C   UNL     1      10.249  13.277  20.649  0.00  0.00    +0.000 A 
ATOM     14  N   UNL     1      10.247  13.632  19.346  0.00  0.00    +0.000 NA
ATOM     15  C   UNL     1       9.968  12.655  18.452  0.00  0.00    +0.000 A 
ENDBRANCH   9  10
ENDBRANCH   8   9
ENDBRANCH   4   7
BRANCH   1  16
ATOM     16  O   UNL     1       4.346   4.506  19.160  0.00  0.00    +0.000 OA
BRANCH  16  17
ATOM     17  C   UNL     1       4.515   3.157  18.867  0.00  0.00    +0.000 C 
ATOM     18  O   UNL     1       4.968   2.304  19.620  0.00  0.00    +0.000 OA
BRANCH  17  19
ATOM     19  C   UNL     1       4.018   2.886  17.465  0.00  0.00    +0.000 C 
BRANCH  19  20
ATOM     20  C   UNL     1       2.508   3.110  17.409  0.00  0.00    +0.000 C 
BRANCH  20  21
ATOM     21  C   UNL     1       1.736   2.120  18.281  0.00  0.00    +0.000 C 
BRANCH  21  22
ATOM     22  C   UNL     1       0.929   2.863  19.350  0.00  0.00    +0.000 C 
BRANCH  22  23
ATOM     23  C   UNL     1       1.444   2.568  20.758  0.00  0.00    +0.000 C 
BRANCH  23  25
ATOM     24  C   UNL     1       1.485   5.088  20.687  0.00  0.00    +0.000 C 
ATOM     25  C   UNL     1       1.918   3.847  21.451  0.00  0.00    +0.000 C 
ENDBRANCH  23  25
ENDBRANCH  22  23
ENDBRANCH  21  22
ENDBRANCH  20  21
ENDBRANCH  19  20
ENDBRANCH  17  19
ENDBRANCH  16  17
ENDBRANCH   1  16
TORSDOF 11
ENDMDL
MODEL 3
REMARK VINA RESULT:      -6.4      1.665      2.687
REMARK  Name = 
REMARK  12 active torsions:
REMARK  status: ('A' for Active; 'I' for Inactive)
REMARK    1  A    between atoms: C_1  and  C_2
REMARK    2  A    between atoms: C_2  and  C_3
REMARK    3  A    between atoms: C_3  and  C_4
REMARK    4  A    between atoms: C_4  and  C_5
REMARK    5  A    between atoms: C_5  and  C_6
REMARK    6  A    between atoms: C_6  and  C_7
REMARK    7  A    between atoms: C_7  and  C_8
REMARK    8  A    between atoms: C_8  and  O_10
REMARK    9  A    between atoms: O_10  and  C_11
REMARK   10  A    between atoms: C_14  and  C_15
REMARK   11  A    between atoms: N_16  and  C_17
REMARK   12  A    between atoms: C_17  and  C_18
REMARK                            x       y       z     vdW  Elec       q    Type
REMARK                         _______ _______ _______ _____ _____    ______ ____
ROOT
ATOM      1  C   UNL     1       2.673   6.839  19.162  0.00  0.00    +0.000 A 
ATOM      2  C   UNL     1       2.092   7.285  20.346  0.00  0.00    +0.000 A 
ATOM      3  C   UNL     1       1.347   8.464  20.335  0.00  0.00    +0.000 A 
ATOM      4  C   UNL     1       1.196   9.189  19.145  0.00  0.00    +0.000 A 
ATOM      5  C   UNL     1       1.779   8.736  17.961  0.00  0.00    +0.000 A 
ATOM      6  C   UNL     1       2.531   7.564  17.973  0.00  0.00    +0.000 A 
ENDROOT
BRANCH   4   7
ATOM      7  C   UNL     1       0.436  10.452  19.120  0.00  0.00    +0.000 C 
ATOM      8  N   UNL     1      -0.743  10.507  18.607  0.00  0.00    +0.000 NA
BRANCH   8   9
ATOM      9  C   UNL     1      -1.370  11.828  18.623  0.00  0.00    +0.000 C 
BRANCH   9  10
ATOM     10  C   UNL     1      -2.820  11.719  18.240  0.00  0.00    +0.000 A 
ATOM     11  C   UNL     1      -3.829  12.112  19.126  0.00  0.00    +0.000 A 
ATOM     12  C   UNL     1      -5.161  12.008  18.744  0.00  0.00    +0.000 A 
ATOM     13  C   UNL     1      -5.444  11.502  17.486  0.00  0.00    +0.000 A 
ATOM     14  N   UNL     1      -4.499  11.106  16.605  0.00  0.00    +0.000 NA
ATOM     15  C   UNL     1      -3.212  11.231  17.000  0.00  0.00    +0.000 A 
ENDBRANCH   9  10
ENDBRANCH   8   9
ENDBRANCH   4   7
BRANCH   1  16
ATOM     16  O   UNL     1       3.526   5.728  19.234  0.00  0.00    +0.000 OA
BRANCH  16  17
ATOM     17  C   UNL     1       4.385   5.539  18.156  0.00  0.00    +0.000 C 
ATOM     18  O   UNL     1       5.174   6.360  17.707  0.00  0.00    +0.000 OA
BRANCH  17  19
ATOM     19  C   UNL     1       4.220   4.132  17.629  0.00  0.00    +0.000 C 
BRANCH  19  20
ATOM     20  C   UNL     1       2.732   3.804  17.512  0.00  0.00    +0.000 C 
BRANCH  20  21
ATOM     21  C   UNL     1       2.441   2.319  17.724  0.00  0.00    +0.000 C 
BRANCH  21  22
ATOM     22  C   UNL     1       1.542   2.119  18.947  0.00  0.00    +0.000 C 
BRANCH  22  23
ATOM     23  C   UNL     1       0.854   3.417  19.366  0.00  0.00    +0.000 C 
BRANCH  23  25
ATOM     24  C   UNL     1       1.875   2.614  21.526  0.00  0.00    +0.000 C 
ATOM     25  C   UNL     1       1.163   3.759  20.824  0.00  0.00    +0.000 C 
ENDBRANCH  23  25
ENDBRANCH  22  23
ENDBRANCH  21  22
ENDBRANCH  20  21
ENDBRANCH  19  20
ENDBRANCH  17  19
ENDBRANCH  16  17
ENDBRANCH   1  16
TORSDOF 11
ENDMDL
MODEL 4
REMARK VINA RESULT:      -6.3      1.877      2.725
REMARK  Name = 
REMARK  12 active torsions:
REMARK  status: ('A' for Active; 'I' for Inactive)
REMARK    1  A    between atoms: C_1  and  C_2
REMARK    2  A    between atoms: C_2  and  C_3
REMARK    3  A    between atoms: C_3  and  C_4
REMARK    4  A    between atoms: C_4  and  C_5
REMARK    5  A    between atoms: C_5  and  C_6
REMARK    6  A    between atoms: C_6  and  C_7
REMARK    7  A    between atoms: C_7  and  C_8
REMARK    8  A    between atoms: C_8  and  O_10
REMARK    9  A    between atoms: O_10  and  C_11
REMARK   10  A    between atoms: C_14  and  C_15
REMARK   11  A    between atoms: N_16  and  C_17
REMARK   12  A    between atoms: C_17  and  C_18
REMARK                            x       y       z     vdW  Elec       q    Type
REMARK                         _______ _______ _______ _____ _____    ______ ____
ROOT
ATOM      1  C   UNL     1       3.992   6.188  18.098  0.00  0.00    +0.000 A 
ATOM      2  C   UNL     1       3.814   7.308  17.291  0.00  0.00    +0.000 A 
ATOM      3  C   UNL     1       2.896   8.284  17.677  0.00  0.00    +0.000 A 
ATOM      4  C   UNL     1       2.161   8.129  18.860  0.00  0.00    +0.000 A 
ATOM      5  C   UNL     1       2.345   7.005  19.666  0.00  0.00    +0.000 A 
ATOM      6  C   UNL     1       3.255   6.025  19.276  0.00  0.00    +0.000 A 
ENDROOT
BRANCH   4   7
ATOM      7  C   UNL     1       1.167   9.137  19.271  0.00  0.00    +0.000 C 
ATOM      8  N   UNL     1       0.895  10.146  18.521  0.00  0.00    +0.000 NA
BRANCH   8   9
ATOM      9  C   UNL     1      -0.089  11.082  19.063  0.00  0.00    +0.000 C 
BRANCH   9  10
ATOM     10  C   UNL     1       0.430  12.491  18.975  0.00  0.00    +0.000 A 
ATOM     11  C   UNL     1       1.800  12.758  19.067  0.00  0.00    +0.000 A 
ATOM     12  C   UNL     1       2.255  14.068  18.975  0.00  0.00    +0.000 A 
ATOM     13  C   UNL     1       1.319  15.075  18.802  0.00  0.00    +0.000 A 
ATOM     14  N   UNL     1      -0.012  14.858  18.715  0.00  0.00    +0.000 NA
ATOM     15  C   UNL     1      -0.423  13.572  18.796  0.00  0.00    +0.000 A 
ENDBRANCH   9  10
ENDBRANCH   8   9
ENDBRANCH   4   7
BRANCH   1  16
ATOM     16  O   UNL     1       4.819   5.162  17.615  0.00  0.00    +0.000 OA
BRANCH  16  17
ATOM     17  C   UNL     1       4.755   3.949  18.292  0.00  0.00    +0.000 C 
ATOM     18  O   UNL     1       5.340   3.668  19.330  0.00  0.00    +0.000 OA
BRANCH  17  19
ATOM     19  C   UNL     1       3.814   3.019  17.560  0.00  0.00    +0.000 C 
BRANCH  19  20
ATOM     20  C   UNL     1       3.465   1.836  18.462  0.00  0.00    +0.000 C 
BRANCH  20  21
ATOM     21  C   UNL     1       1.962   1.703  18.702  0.00  0.00    +0.000 C 
BRANCH  21  22
ATOM     22  C   UNL     1       1.280   3.070  18.592  0.00  0.00    +0.000 C 
BRANCH  22  23
ATOM     23  C   UNL     1       0.650   3.499  19.916  0.00  0.00    +0.000 C 
BRANCH  23  25
ATOM     24  C   UNL     1       2.346   3.548  21.780  0.00  0.00    +0.000 C 
ATOM     25  C   UNL     1       1.262   2.735  21.090  0.00  0.00    +0.000 C 
ENDBRANCH  23  25
ENDBRANCH  22  23
ENDBRANCH  21  22
ENDBRANCH  20  21
ENDBRANCH  19  20
ENDBRANCH  17  19
ENDBRANCH  16  17
ENDBRANCH   1  16
TORSDOF 11
ENDMDL
MODEL 5
REMARK VINA RESULT:      -6.3      2.640      4.560
REMARK  Name = 
REMARK  12 active torsions:
REMARK  status: ('A' for Active; 'I' for Inactive)
REMARK    1  A    between atoms: C_1  and  C_2
REMARK    2  A    between atoms: C_2  and  C_3
REMARK    3  A    between atoms: C_3  and  C_4
REMARK    4  A    between atoms: C_4  and  C_5
REMARK    5  A    between atoms: C_5  and  C_6
REMARK    6  A    between atoms: C_6  and  C_7
REMARK    7  A    between atoms: C_7  and  C_8
REMARK    8  A    between atoms: C_8  and  O_10
REMARK    9  A    between atoms: O_10  and  C_11
REMARK   10  A    between atoms: C_14  and  C_15
REMARK   11  A    between atoms: N_16  and  C_17
REMARK   12  A    between atoms: C_17  and  C_18
REMARK                            x       y       z     vdW  Elec       q    Type
REMARK                         _______ _______ _______ _____ _____    ______ ____
ROOT
ATOM      1  C   UNL     1       3.458   5.894  18.877  0.00  0.00    +0.000 A 
ATOM      2  C   UNL     1       3.653   6.618  17.704  0.00  0.00    +0.000 A 
ATOM      3  C   UNL     1       3.026   7.856  17.559  0.00  0.00    +0.000 A 
ATOM      4  C   UNL     1       2.208   8.354  18.581  0.00  0.00    +0.000 A 
ATOM      5  C   UNL     1       2.018   7.624  19.755  0.00  0.00    +0.000 A 
ATOM      6  C   UNL     1       2.635   6.384  19.897  0.00  0.00    +0.000 A 
ENDROOT
BRANCH   4   7
ATOM      7  C   UNL     1       1.516   9.647  18.434  0.00  0.00    +0.000 C 
ATOM      8  N   UNL     1       0.385   9.864  19.008  0.00  0.00    +0.000 NA
BRANCH   8   9
ATOM      9  C   UNL     1      -0.203  11.179  18.755  0.00  0.00    +0.000 C 
BRANCH   9  10
ATOM     10  C   UNL     1      -1.602  11.029  18.224  0.00  0.00    +0.000 A 
ATOM     11  C   UNL     1      -1.873  10.182  17.143  0.00  0.00    +0.000 A 
ATOM     12  C   UNL     1      -3.176  10.056  16.677  0.00  0.00    +0.000 A 
ATOM     13  C   UNL     1      -4.170  10.790  17.303  0.00  0.00    +0.000 A 
ATOM     14  N   UNL     1      -3.948  11.621  18.344  0.00  0.00    +0.000 NA
ATOM     15  C   UNL     1      -2.672  11.715  18.784  0.00  0.00    +0.000 A 
ENDBRANCH   9  10
ENDBRANCH   8   9
ENDBRANCH   4   7
BRANCH   1  16
ATOM     16  O   UNL     1       3.989   4.596  18.936  0.00  0.00    +0.000 OA
BRANCH  16  17
ATOM     17  C   UNL     1       4.271   3.990  17.717  0.00  0.00    +0.000 C 
ATOM     18  O   UNL     1       3.495   3.328  17.041  0.00  0.00    +0.000 OA
BRANCH  17  19
ATOM     19  C   UNL     1       5.698   4.302  17.325  0.00  0.00    +0.000 C 
BRANCH  19  20
ATOM     20  C   UNL     1       5.997   3.684  15.960  0.00  0.00    +0.000 C 
BRANCH  20  21
ATOM     21  C   UNL     1       6.070   4.728  14.846  0.00  0.00    +0.000 C 
BRANCH  21  22
ATOM     22  C   UNL     1       5.347   4.226  13.593  0.00  0.00    +0.000 C 
BRANCH  22  23
ATOM     23  C   UNL     1       6.297   3.498  12.643  0.00  0.00    +0.000 C 
BRANCH  23  25
ATOM     24  C   UNL     1       4.184   3.229  11.293  0.00  0.00    +0.000 C 
ATOM     25  C   UNL     1       5.524   2.613  11.663  0.00  0.00    +0.000 C 
ENDBRANCH  23  25
ENDBRANCH  22  23
ENDBRANCH  21  22
ENDBRANCH  20  21
ENDBRANCH  19  20
ENDBRANCH  17  19
ENDBRANCH  16  17
ENDBRANCH   1  16
TORSDOF 11
ENDMDL
MODEL 6
REMARK VINA RESULT:      -6.2      1.450      2.159
REMARK  Name = 
REMARK  12 active torsions:
REMARK  status: ('A' for Active; 'I' for Inactive)
REMARK    1  A    between atoms: C_1  and  C_2
REMARK    2  A    between atoms: C_2  and  C_3
REMARK    3  A    between atoms: C_3  and  C_4
REMARK    4  A    between atoms: C_4  and  C_5
REMARK    5  A    between atoms: C_5  and  C_6
REMARK    6  A    between atoms: C_6  and  C_7
REMARK    7  A    between atoms: C_7  and  C_8
REMARK    8  A    between atoms: C_8  and  O_10
REMARK    9  A    between atoms: O_10  and  C_11
REMARK   10  A    between atoms: C_14  and  C_15
REMARK   11  A    between atoms: N_16  and  C_17
REMARK   12  A    between atoms: C_17  and  C_18
REMARK                            x       y       z     vdW  Elec       q    Type
REMARK                         _______ _______ _______ _____ _____    ______ ____
ROOT
ATOM      1  C   UNL     1       3.528   6.338  18.682  0.00  0.00    +0.000 A 
ATOM      2  C   UNL     1       2.687   6.529  19.775  0.00  0.00    +0.000 A 
ATOM      3  C   UNL     1       1.853   7.647  19.804  0.00  0.00    +0.000 A 
ATOM      4  C   UNL     1       1.873   8.565  18.745  0.00  0.00    +0.000 A 
ATOM      5  C   UNL     1       2.717   8.368  17.652  0.00  0.00    +0.000 A 
ATOM      6  C   UNL     1       3.557   7.257  17.628  0.00  0.00    +0.000 A 
ENDROOT
BRANCH   4   7
ATOM      7  C   UNL     1       1.019   9.767  18.770  0.00  0.00    +0.000 C 
ATOM      8  N   UNL     1      -0.127   9.755  19.354  0.00  0.00    +0.000 NA
BRANCH   8   9
ATOM      9  C   UNL     1      -0.881  11.006  19.278  0.00  0.00    +0.000 C 
BRANCH   9  10
ATOM     10  C   UNL     1      -1.944  10.908  18.218  0.00  0.00    +0.000 A 
ATOM     11  C   UNL     1      -3.133  11.638  18.323  0.00  0.00    +0.000 A 
ATOM     12  C   UNL     1      -4.096  11.536  17.327  0.00  0.00    +0.000 A 
ATOM     13  C   UNL     1      -3.842  10.695  16.256  0.00  0.00    +0.000 A 
ATOM     14  N   UNL     1      -2.710   9.969  16.121  0.00  0.00    +0.000 NA
ATOM     15  C   UNL     1      -1.786  10.099  17.101  0.00  0.00    +0.000 A 
ENDBRANCH   9  10
ENDBRANCH   8   9
ENDBRANCH   4   7
BRANCH   1  16
ATOM     16  O   UNL     1       4.450   5.282  18.747  0.00  0.00    +0.000 OA
BRANCH  16  17
ATOM     17  C   UNL     1       5.130   4.985  17.571  0.00  0.00    +0.000 C 
ATOM     18  O   UNL     1       6.071   5.611  17.101  0.00  0.00    +0.000 OA
BRANCH  17  19
ATOM     19  C   UNL     1       4.545   3.731  16.962  0.00  0.00    +0.000 C 
BRANCH  19  20
ATOM     20  C   UNL     1       3.143   3.498  17.525  0.00  0.00    +0.000 C 
BRANCH  20  21
ATOM     21  C   UNL     1       2.865   2.024  17.815  0.00  0.00    +0.000 C 
BRANCH  21  22
ATOM     22  C   UNL     1       1.959   1.880  19.041  0.00  0.00    +0.000 C 
BRANCH  22  23
ATOM     23  C   UNL     1       1.102   3.125  19.263  0.00  0.00    +0.000 C 
BRANCH  23  25
ATOM     24  C   UNL     1       2.324   3.071  21.468  0.00  0.00    +0.000 C 
ATOM     25  C   UNL     1       1.061   3.508  20.744  0.00  0.00    +0.000 C 
ENDBRANCH  23  25
ENDBRANCH  22  23
ENDBRANCH  21  22
ENDBRANCH  20  21
ENDBRANCH  19  20
ENDBRANCH  17  19
ENDBRANCH  16  17
ENDBRANCH   1  16
TORSDOF 11
ENDMDL
MODEL 7
REMARK VINA RESULT:      -6.2      1.738      2.642
REMARK  Name = 
REMARK  12 active torsions:
REMARK  status: ('A' for Active; 'I' for Inactive)
REMARK    1  A    between atoms: C_1  and  C_2
REMARK    2  A    between atoms: C_2  and  C_3
REMARK    3  A    between atoms: C_3  and  C_4
REMARK    4  A    between atoms: C_4  and  C_5
REMARK    5  A    between atoms: C_5  and  C_6
REMARK    6  A    between atoms: C_6  and  C_7
REMARK    7  A    between atoms: C_7  and  C_8
REMARK    8  A    between atoms: C_8  and  O_10
REMARK    9  A    between atoms: O_10  and  C_11
REMARK   10  A    between atoms: C_14  and  C_15
REMARK   11  A    between atoms: N_16  and  C_17
REMARK   12  A    between atoms: C_17  and  C_18
REMARK                            x       y       z     vdW  Elec       q    Type
REMARK                         _______ _______ _______ _____ _____    ______ ____
ROOT
ATOM      1  C   UNL     1       4.435   5.925  18.465  0.00  0.00    +0.000 A 
ATOM      2  C   UNL     1       4.218   6.859  17.455  0.00  0.00    +0.000 A 
ATOM      3  C   UNL     1       3.171   7.770  17.587  0.00  0.00    +0.000 A 
ATOM      4  C   UNL     1       2.348   7.736  18.721  0.00  0.00    +0.000 A 
ATOM      5  C   UNL     1       2.571   6.799  19.731  0.00  0.00    +0.000 A 
ATOM      6  C   UNL     1       3.611   5.882  19.595  0.00  0.00    +0.000 A 
ENDROOT
BRANCH   4   7
ATOM      7  C   UNL     1       1.219   8.673  18.865  0.00  0.00    +0.000 C 
ATOM      8  N   UNL     1       0.915   9.175  20.010  0.00  0.00    +0.000 NA
BRANCH   8   9
ATOM      9  C   UNL     1      -0.244  10.068  20.014  0.00  0.00    +0.000 C 
BRANCH   9  10
ATOM     10  C   UNL     1       0.171  11.459  19.624  0.00  0.00    +0.000 A 
ATOM     11  C   UNL     1       1.261  12.083  20.240  0.00  0.00    +0.000 A 
ATOM     12  C   UNL     1       1.628  13.367  19.855  0.00  0.00    +0.000 A 
ATOM     13  C   UNL     1       0.885  13.992  18.868  0.00  0.00    +0.000 A 
ATOM     14  N   UNL     1      -0.177  13.426  18.253  0.00  0.00    +0.000 NA
ATOM     15  C   UNL     1      -0.503  12.171  18.641  0.00  0.00    +0.000 A 
ENDBRANCH   9  10
ENDBRANCH   8   9
ENDBRANCH   4   7
BRANCH   1  16
ATOM     16  O   UNL     1       5.406   4.937  18.241  0.00  0.00    +0.000 OA
BRANCH  16  17
ATOM     17  C   UNL     1       4.994   3.820  17.522  0.00  0.00    +0.000 C 
ATOM     18  O   UNL     1       5.123   3.647  16.317  0.00  0.00    +0.000 OA
BRANCH  17  19
ATOM     19  C   UNL     1       4.379   2.817  18.471  0.00  0.00    +0.000 C 
BRANCH  19  20
ATOM     20  C   UNL     1       3.105   2.245  17.851  0.00  0.00    +0.000 C 
BRANCH  20  21
ATOM     21  C   UNL     1       2.213   3.326  17.243  0.00  0.00    +0.000 C 
BRANCH  21  22
ATOM     22  C   UNL     1       1.093   3.708  18.216  0.00  0.00    +0.000 C 
BRANCH  22  23
ATOM     23  C   UNL     1       0.965   2.700  19.357  0.00  0.00    +0.000 C 
BRANCH  23  25
ATOM     24  C   UNL     1       2.217   2.762  21.545  0.00  0.00    +0.000 C 
ATOM     25  C   UNL     1       1.105   3.386  20.717  0.00  0.00    +0.000 C 
ENDBRANCH  23  25
ENDBRANCH  22  23
ENDBRANCH  21  22
ENDBRANCH  20  21
ENDBRANCH  19  20
ENDBRANCH  17  19
ENDBRANCH  16  17
ENDBRANCH   1  16
TORSDOF 11
ENDMDL
MODEL 8
REMARK VINA RESULT:      -6.2      3.299      5.522
REMARK  Name = 
REMARK  12 active torsions:
REMARK  status: ('A' for Active; 'I' for Inactive)
REMARK    1  A    between atoms: C_1  and  C_2
REMARK    2  A    between atoms: C_2  and  C_3
REMARK    3  A    between atoms: C_3  and  C_4
REMARK    4  A    between atoms: C_4  and  C_5
REMARK    5  A    between atoms: C_5  and  C_6
REMARK    6  A    between atoms: C_6  and  C_7
REMARK    7  A    between atoms: C_7  and  C_8
REMARK    8  A    between atoms: C_8  and  O_10
REMARK    9  A    between atoms: O_10  and  C_11
REMARK   10  A    between atoms: C_14  and  C_15
REMARK   11  A    between atoms: N_16  and  C_17
REMARK   12  A    between atoms: C_17  and  C_18
REMARK                            x       y       z     vdW  Elec       q    Type
REMARK                         _______ _______ _______ _____ _____    ______ ____
ROOT
ATOM      1  C   UNL     1       4.424   6.030  18.155  0.00  0.00    +0.000 A 
ATOM      2  C   UNL     1       3.835   5.736  19.382  0.00  0.00    +0.000 A 
ATOM      3  C   UNL     1       2.782   6.530  19.837  0.00  0.00    +0.000 A 
ATOM      4  C   UNL     1       2.333   7.611  19.067  0.00  0.00    +0.000 A 
ATOM      5  C   UNL     1       2.926   7.900  17.837  0.00  0.00    +0.000 A 
ATOM      6  C   UNL     1       3.984   7.114  17.387  0.00  0.00    +0.000 A 
ENDROOT
BRANCH   4   7
ATOM      7  C   UNL     1       1.240   8.477  19.543  0.00  0.00    +0.000 C 
ATOM      8  N   UNL     1       1.184   9.719  19.212  0.00  0.00    +0.000 NA
BRANCH   8   9
ATOM      9  C   UNL     1       0.063  10.468  19.779  0.00  0.00    +0.000 C 
BRANCH   9  10
ATOM     10  C   UNL     1      -1.025  10.628  18.753  0.00  0.00    +0.000 A 
ATOM     11  C   UNL     1      -1.050   9.834  17.602  0.00  0.00    +0.000 A 
ATOM     12  C   UNL     1      -2.071   9.996  16.674  0.00  0.00    +0.000 A 
ATOM     13  C   UNL     1      -3.035  10.959  16.923  0.00  0.00    +0.000 A 
ATOM     14  N   UNL     1      -3.043  11.750  18.019  0.00  0.00    +0.000 NA
ATOM     15  C   UNL     1      -2.043  11.560  18.910  0.00  0.00    +0.000 A 
ENDBRANCH   9  10
ENDBRANCH   8   9
ENDBRANCH   4   7
BRANCH   1  16
ATOM     16  O   UNL     1       5.566   5.301  17.791  0.00  0.00    +0.000 OA
BRANCH  16  17
ATOM     17  C   UNL     1       6.770   5.723  18.345  0.00  0.00    +0.000 C 
ATOM     18  O   UNL     1       7.267   5.319  19.388  0.00  0.00    +0.000 OA
BRANCH  17  19
ATOM     19  C   UNL     1       7.403   6.752  17.436  0.00  0.00    +0.000 C 
BRANCH  19  20
ATOM     20  C   UNL     1       8.157   7.780  18.278  0.00  0.00    +0.000 C 
BRANCH  20  21
ATOM     21  C   UNL     1       7.837   9.218  17.873  0.00  0.00    +0.000 C 
BRANCH  21  22
ATOM     22  C   UNL     1       9.046  10.125  18.116  0.00  0.00    +0.000 C 
BRANCH  22  23
ATOM     23  C   UNL     1       9.338  10.296  19.606  0.00  0.00    +0.000 C 
BRANCH  23  25
ATOM     24  C   UNL     1      11.197  11.666  18.595  0.00  0.00    +0.000 C 
ATOM     25  C   UNL     1      10.370  11.400  19.842  0.00  0.00    +0.000 C 
ENDBRANCH  23  25
ENDBRANCH  22  23
ENDBRANCH  21  22
ENDBRANCH  20  21
ENDBRANCH  19  20
ENDBRANCH  17  19
ENDBRANCH  16  17
ENDBRANCH   1  16
TORSDOF 11
ENDMDL
MODEL 9
REMARK VINA RESULT:      -6.2      1.798      3.717
REMARK  Name = 
REMARK  12 active torsions:
REMARK  status: ('A' for Active; 'I' for Inactive)
REMARK    1  A    between atoms: C_1  and  C_2
REMARK    2  A    between atoms: C_2  and  C_3
REMARK    3  A    between atoms: C_3  and  C_4
REMARK    4  A    between atoms: C_4  and  C_5
REMARK    5  A    between atoms: C_5  and  C_6
REMARK    6  A    between atoms: C_6  and  C_7
REMARK    7  A    between atoms: C_7  and  C_8
REMARK    8  A    between atoms: C_8  and  O_10
REMARK    9  A    between atoms: O_10  and  C_11
REMARK   10  A    between atoms: C_14  and  C_15
REMARK   11  A    between atoms: N_16  and  C_17
REMARK   12  A    between atoms: C_17  and  C_18
REMARK                            x       y       z     vdW  Elec       q    Type
REMARK                         _______ _______ _______ _____ _____    ______ ____
ROOT
ATOM      1  C   UNL     1       3.335   4.687  19.535  0.00  0.00    +0.000 A 
ATOM      2  C   UNL     1       3.839   5.825  18.910  0.00  0.00    +0.000 A 
ATOM      3  C   UNL     1       3.225   7.056  19.143  0.00  0.00    +0.000 A 
ATOM      4  C   UNL     1       2.113   7.137  19.991  0.00  0.00    +0.000 A 
ATOM      5  C   UNL     1       1.613   5.994  20.616  0.00  0.00    +0.000 A 
ATOM      6  C   UNL     1       2.219   4.763  20.376  0.00  0.00    +0.000 A 
ENDROOT
BRANCH   4   7
ATOM      7  C   UNL     1       1.434   8.424  20.228  0.00  0.00    +0.000 C 
ATOM      8  N   UNL     1       1.003   9.138  19.248  0.00  0.00    +0.000 NA
BRANCH   8   9
ATOM      9  C   UNL     1       0.376  10.404  19.625  0.00  0.00    +0.000 C 
BRANCH   9  10
ATOM     10  C   UNL     1      -0.862  10.636  18.802  0.00  0.00    +0.000 A 
ATOM     11  C   UNL     1      -1.060   9.955  17.596  0.00  0.00    +0.000 A 
ATOM     12  C   UNL     1      -2.216  10.181  16.859  0.00  0.00    +0.000 A 
ATOM     13  C   UNL     1      -3.136  11.093  17.348  0.00  0.00    +0.000 A 
ATOM     14  N   UNL     1      -2.978  11.775  18.504  0.00  0.00    +0.000 NA
ATOM     15  C   UNL     1      -1.849  11.524  19.206  0.00  0.00    +0.000 A 
ENDBRANCH   9  10
ENDBRANCH   8   9
ENDBRANCH   4   7
BRANCH   1  16
ATOM     16  O   UNL     1       3.886   3.449  19.175  0.00  0.00    +0.000 OA
BRANCH  16  17
ATOM     17  C   UNL     1       3.381   2.863  18.019  0.00  0.00    +0.000 C 
ATOM     18  O   UNL     1       2.766   1.807  17.952  0.00  0.00    +0.000 OA
BRANCH  17  19
ATOM     19  C   UNL     1       3.682   3.756  16.836  0.00  0.00    +0.000 C 
BRANCH  19  20
ATOM     20  C   UNL     1       5.121   3.523  16.376  0.00  0.00    +0.000 C 
BRANCH  20  21
ATOM     21  C   UNL     1       5.600   4.586  15.390  0.00  0.00    +0.000 C 
BRANCH  21  22
ATOM     22  C   UNL     1       6.542   5.575  16.083  0.00  0.00    +0.000 C 
BRANCH  22  23
ATOM     23  C   UNL     1       7.181   4.971  17.332  0.00  0.00    +0.000 C 
BRANCH  23  25
ATOM     24  C   UNL     1       7.628   7.431  17.654  0.00  0.00    +0.000 C 
ATOM     25  C   UNL     1       7.610   6.062  18.315  0.00  0.00    +0.000 C 
ENDBRANCH  23  25
ENDBRANCH  22  23
ENDBRANCH  21  22
ENDBRANCH  20  21
ENDBRANCH  19  20
ENDBRANCH  17  19
ENDBRANCH  16  17
ENDBRANCH   1  16
TORSDOF 11
ENDMDL
