MODEL 1
REMARK VINA RESULT:      -7.5      0.000      0.000
REMARK  Name = 
REMARK  4 active torsions:
REMARK  status: ('A' for Active; 'I' for Inactive)
REMARK    1  A    between atoms: C_1  and  C_2
REMARK    2  A    between atoms: N_5  and  C_6
REMARK    3  A    between atoms: C_6  and  C_7
REMARK    4  A    between atoms: C_13  and  C_14
REMARK                            x       y       z     vdW  Elec       q    Type
REMARK                         _______ _______ _______ _____ _____    ______ ____
ROOT
ATOM      1  C   UNL     1       2.151  10.681  18.300  0.00  0.00    +0.000 C 
ATOM      2  C   UNL     1       2.240   9.220  18.620  0.00  0.00    +0.000 A 
ATOM      3  N   UNL     1       2.904   8.435  17.742  0.00  0.00    +0.000 NA
ATOM      4  C   UNL     1       2.974   7.099  17.957  0.00  0.00    +0.000 A 
ATOM      5  N   UNL     1       3.611   6.265  17.044  0.00  0.00    +0.000 N 
ATOM      6  C   UNL     1       2.392   6.579  19.131  0.00  0.00    +0.000 A 
ATOM      7  C   UNL     1       2.275   5.295  19.780  0.00  0.00    +0.000 A 
ATOM      8  C   UNL     1       1.574   5.512  20.957  0.00  0.00    +0.000 A 
ATOM      9  N   UNL     1       1.265   6.844  21.039  0.00  0.00    +0.000 N 
ATOM     10  C   UNL     1       1.760   7.500  19.952  0.00  0.00    +0.000 A 
ATOM     11  N   UNL     1       1.640   8.819  19.755  0.00  0.00    +0.000 NA
ATOM     12  H   UNL     1       2.908   5.761  16.510  0.00  0.00    +0.000 HD
ATOM     13  H   UNL     1       0.769   7.301  21.791  0.00  0.00    +0.000 HD
ENDROOT
BRANCH   7  14
ATOM     14  C   UNL     1       2.783   3.973  19.408  0.00  0.00    +0.000 A 
ATOM     15  C   UNL     1       2.323   3.311  18.272  0.00  0.00    +0.000 A 
ATOM     16  C   UNL     1       2.795   2.043  17.994  0.00  0.00    +0.000 A 
ATOM     17  N   UNL     1       3.743   1.421  18.719  0.00  0.00    +0.000 NA
ATOM     18  C   UNL     1       4.234   2.090  19.775  0.00  0.00    +0.000 A 
ATOM     19  N   UNL     1       5.256   1.458  20.480  0.00  0.00    +0.000 N 
ATOM     20  C   UNL     1       3.767   3.334  20.171  0.00  0.00    +0.000 A 
ATOM     21  H   UNL     1       5.467   0.604  19.969  0.00  0.00    +0.000 HD
ATOM     22  H   UNL     1       6.071   2.057  20.552  0.00  0.00    +0.000 HD
ENDBRANCH   7  14
BRANCH   5  23
ATOM     23  C   UNL     1       4.656   6.833  16.214  0.00  0.00    +0.000 C 
BRANCH  23  24
ATOM     24  C   UNL     1       5.769   5.927  15.828  0.00  0.00    +0.000 A 
ATOM     25  C   UNL     1       5.883   5.139  14.649  0.00  0.00    +0.000 A 
ATOM     26  C   UNL     1       7.073   4.460  14.751  0.00  0.00    +0.000 A 
ATOM     27  O   UNL     1       7.700   4.776  15.913  0.00  0.00    +0.000 OA
ATOM     28  C   UNL     1       6.910   5.669  16.560  0.00  0.00    +0.000 A 
ENDBRANCH  23  24
ENDBRANCH   5  23
TORSDOF 3
ENDMDL
MODEL 2
REMARK VINA RESULT:      -7.3      2.679      4.993
REMARK  Name = 
REMARK  4 active torsions:
REMARK  status: ('A' for Active; 'I' for Inactive)
REMARK    1  A    between atoms: C_1  and  C_2
REMARK    2  A    between atoms: N_5  and  C_6
REMARK    3  A    between atoms: C_6  and  C_7
REMARK    4  A    between atoms: C_13  and  C_14
REMARK                            x       y       z     vdW  Elec       q    Type
REMARK                         _______ _______ _______ _____ _____    ______ ____
ROOT
ATOM      1  C   UNL     1      -0.433   9.017  22.101  0.00  0.00    +0.000 C 
ATOM      2  C   UNL     1       0.540   8.605  21.038  0.00  0.00    +0.000 A 
ATOM      3  N   UNL     1       1.153   7.410  21.191  0.00  0.00    +0.000 NA
ATOM      4  C   UNL     1       2.076   7.008  20.285  0.00  0.00    +0.000 A 
ATOM      5  N   UNL     1       2.754   5.804  20.447  0.00  0.00    +0.000 N 
ATOM      6  C   UNL     1       2.327   7.838  19.173  0.00  0.00    +0.000 A 
ATOM      7  C   UNL     1       3.140   7.800  17.981  0.00  0.00    +0.000 A 
ATOM      8  C   UNL     1       2.874   8.972  17.286  0.00  0.00    +0.000 A 
ATOM      9  N   UNL     1       1.960   9.700  18.000  0.00  0.00    +0.000 N 
ATOM     10  C   UNL     1       1.614   9.026  19.133  0.00  0.00    +0.000 A 
ATOM     11  N   UNL     1       0.722   9.472  20.025  0.00  0.00    +0.000 NA
ATOM     12  H   UNL     1       3.701   5.997  20.764  0.00  0.00    +0.000 HD
ATOM     13  H   UNL     1       1.566  10.593  17.737  0.00  0.00    +0.000 HD
ENDROOT
BRANCH   7  14
ATOM     14  C   UNL     1       4.056   6.780  17.466  0.00  0.00    +0.000 A 
ATOM     15  C   UNL     1       3.642   5.464  17.273  0.00  0.00    +0.000 A 
ATOM     16  C   UNL     1       4.559   4.527  16.836  0.00  0.00    +0.000 A 
ATOM     17  N   UNL     1       5.830   4.821  16.505  0.00  0.00    +0.000 NA
ATOM     18  C   UNL     1       6.206   6.105  16.627  0.00  0.00    +0.000 A 
ATOM     19  N   UNL     1       7.507   6.403  16.225  0.00  0.00    +0.000 N 
ATOM     20  C   UNL     1       5.376   7.096  17.128  0.00  0.00    +0.000 A 
ATOM     21  H   UNL     1       7.889   5.543  15.840  0.00  0.00    +0.000 HD
ATOM     22  H   UNL     1       7.511   7.150  15.539  0.00  0.00    +0.000 HD
ENDBRANCH   7  14
BRANCH   5  23
ATOM     23  C   UNL     1       2.104   4.752  21.204  0.00  0.00    +0.000 C 
BRANCH  23  24
ATOM     24  C   UNL     1       1.652   3.561  20.439  0.00  0.00    +0.000 A 
ATOM     25  C   UNL     1       0.878   3.532  19.246  0.00  0.00    +0.000 A 
ATOM     26  C   UNL     1       0.701   2.206  18.932  0.00  0.00    +0.000 A 
ATOM     27  O   UNL     1       1.314   1.416  19.850  0.00  0.00    +0.000 OA
ATOM     28  C   UNL     1       1.893   2.240  20.759  0.00  0.00    +0.000 A 
ENDBRANCH  23  24
ENDBRANCH   5  23
TORSDOF 3
ENDMDL
MODEL 3
REMARK VINA RESULT:      -7.3      1.266      1.599
REMARK  Name = 
REMARK  4 active torsions:
REMARK  status: ('A' for Active; 'I' for Inactive)
REMARK    1  A    between atoms: C_1  and  C_2
REMARK    2  A    between atoms: N_5  and  C_6
REMARK    3  A    between atoms: C_6  and  C_7
REMARK    4  A    between atoms: C_13  and  C_14
REMARK                            x       y       z     vdW  Elec       q    Type
REMARK                         _______ _______ _______ _____ _____    ______ ____
ROOT
ATOM      1  C   UNL     1       2.205  10.368  18.176  0.00  0.00    +0.000 C 
ATOM      2  C   UNL     1       2.297   8.909  18.503  0.00  0.00    +0.000 A 
ATOM      3  N   UNL     1       3.106   8.152  17.729  0.00  0.00    +0.000 NA
ATOM      4  C   UNL     1       3.191   6.818  17.950  0.00  0.00    +0.000 A 
ATOM      5  N   UNL     1       3.981   6.011  17.137  0.00  0.00    +0.000 N 
ATOM      6  C   UNL     1       2.464   6.271  19.027  0.00  0.00    +0.000 A 
ATOM      7  C   UNL     1       2.299   4.980  19.651  0.00  0.00    +0.000 A 
ATOM      8  C   UNL     1       1.429   5.166  20.716  0.00  0.00    +0.000 A 
ATOM      9  N   UNL     1       1.067   6.486  20.754  0.00  0.00    +0.000 N 
ATOM     10  C   UNL     1       1.690   7.165  19.750  0.00  0.00    +0.000 A 
ATOM     11  N   UNL     1       1.554   8.480  19.540  0.00  0.00    +0.000 NA
ATOM     12  H   UNL     1       3.380   5.487  16.506  0.00  0.00    +0.000 HD
ATOM     13  H   UNL     1       0.453   6.921  21.428  0.00  0.00    +0.000 HD
ENDROOT
BRANCH   7  14
ATOM     14  C   UNL     1       2.901   3.678  19.355  0.00  0.00    +0.000 A 
ATOM     15  C   UNL     1       2.594   2.986  18.185  0.00  0.00    +0.000 A 
ATOM     16  C   UNL     1       3.147   1.737  17.978  0.00  0.00    +0.000 A 
ATOM     17  N   UNL     1       4.038   1.164  18.808  0.00  0.00    +0.000 NA
ATOM     18  C   UNL     1       4.384   1.865  19.901  0.00  0.00    +0.000 A 
ATOM     19  N   UNL     1       5.351   1.285  20.720  0.00  0.00    +0.000 N 
ATOM     20  C   UNL     1       3.824   3.091  20.227  0.00  0.00    +0.000 A 
ATOM     21  H   UNL     1       5.652   0.436  20.246  0.00  0.00    +0.000 HD
ATOM     22  H   UNL     1       6.127   1.921  20.869  0.00  0.00    +0.000 HD
ENDBRANCH   7  14
BRANCH   5  23
ATOM     23  C   UNL     1       5.114   6.620  16.467  0.00  0.00    +0.000 C 
BRANCH  23  24
ATOM     24  C   UNL     1       6.343   6.816  17.279  0.00  0.00    +0.000 A 
ATOM     25  C   UNL     1       6.969   5.885  18.153  0.00  0.00    +0.000 A 
ATOM     26  C   UNL     1       8.058   6.528  18.688  0.00  0.00    +0.000 A 
ATOM     27  O   UNL     1       8.146   7.794  18.203  0.00  0.00    +0.000 OA
ATOM     28  C   UNL     1       7.109   7.962  17.346  0.00  0.00    +0.000 A 
ENDBRANCH  23  24
ENDBRANCH   5  23
TORSDOF 3
ENDMDL
MODEL 4
REMARK VINA RESULT:      -7.3      1.146      1.235
REMARK  Name = 
REMARK  4 active torsions:
REMARK  status: ('A' for Active; 'I' for Inactive)
REMARK    1  A    between atoms: C_1  and  C_2
REMARK    2  A    between atoms: N_5  and  C_6
REMARK    3  A    between atoms: C_6  and  C_7
REMARK    4  A    between atoms: C_13  and  C_14
REMARK                            x       y       z     vdW  Elec       q    Type
REMARK                         _______ _______ _______ _____ _____    ______ ____
ROOT
ATOM      1  C   UNL     1       2.163  11.397  17.713  0.00  0.00    +0.000 C 
ATOM      2  C   UNL     1       2.156  10.015  18.293  0.00  0.00    +0.000 A 
ATOM      3  N   UNL     1       2.842   9.061  17.625  0.00  0.00    +0.000 NA
ATOM      4  C   UNL     1       2.830   7.784  18.078  0.00  0.00    +0.000 A 
ATOM      5  N   UNL     1       3.490   6.777  17.382  0.00  0.00    +0.000 N 
ATOM      6  C   UNL     1       2.138   7.506  19.275  0.00  0.00    +0.000 A 
ATOM      7  C   UNL     1       1.910   6.365  20.129  0.00  0.00    +0.000 A 
ATOM      8  C   UNL     1       1.136   6.817  21.189  0.00  0.00    +0.000 A 
ATOM      9  N   UNL     1       0.890   8.152  21.008  0.00  0.00    +0.000 N 
ATOM     10  C   UNL     1       1.494   8.583  19.865  0.00  0.00    +0.000 A 
ATOM     11  N   UNL     1       1.454   9.847  19.429  0.00  0.00    +0.000 NA
ATOM     12  H   UNL     1       2.804   6.210  16.891  0.00  0.00    +0.000 HD
ATOM     13  H   UNL     1       0.363   8.754  21.625  0.00  0.00    +0.000 HD
ENDROOT
BRANCH   7  14
ATOM     14  C   UNL     1       2.378   4.980  20.041  0.00  0.00    +0.000 A 
ATOM     15  C   UNL     1       1.517   3.908  20.262  0.00  0.00    +0.000 A 
ATOM     16  C   UNL     1       2.019   2.621  20.220  0.00  0.00    +0.000 A 
ATOM     17  N   UNL     1       3.292   2.324  19.899  0.00  0.00    +0.000 NA
ATOM     18  C   UNL     1       4.103   3.359  19.619  0.00  0.00    +0.000 A 
ATOM     19  N   UNL     1       5.401   3.032  19.231  0.00  0.00    +0.000 N 
ATOM     20  C   UNL     1       3.705   4.684  19.709  0.00  0.00    +0.000 A 
ATOM     21  H   UNL     1       5.433   2.017  19.177  0.00  0.00    +0.000 HD
ATOM     22  H   UNL     1       5.631   3.459  18.341  0.00  0.00    +0.000 HD
ENDBRANCH   7  14
BRANCH   5  23
ATOM     23  C   UNL     1       4.619   7.148  16.552  0.00  0.00    +0.000 C 
BRANCH  23  24
ATOM     24  C   UNL     1       5.649   6.103  16.319  0.00  0.00    +0.000 A 
ATOM     25  C   UNL     1       5.638   5.068  15.342  0.00  0.00    +0.000 A 
ATOM     26  C   UNL     1       6.791   4.346  15.530  0.00  0.00    +0.000 A 
ATOM     27  O   UNL     1       7.512   4.864  16.557  0.00  0.00    +0.000 OA
ATOM     28  C   UNL     1       6.821   5.930  17.029  0.00  0.00    +0.000 A 
ENDBRANCH  23  24
ENDBRANCH   5  23
TORSDOF 3
ENDMDL
MODEL 5
REMARK VINA RESULT:      -7.1      5.611      9.477
REMARK  Name = 
REMARK  4 active torsions:
REMARK  status: ('A' for Active; 'I' for Inactive)
REMARK    1  A    between atoms: C_1  and  C_2
REMARK    2  A    between atoms: N_5  and  C_6
REMARK    3  A    between atoms: C_6  and  C_7
REMARK    4  A    between atoms: C_13  and  C_14
REMARK                            x       y       z     vdW  Elec       q    Type
REMARK                         _______ _______ _______ _____ _____    ______ ____
ROOT
ATOM      1  C   UNL     1       2.067   8.590  17.805  0.00  0.00    +0.000 C 
ATOM      2  C   UNL     1       1.369   9.235  18.963  0.00  0.00    +0.000 A 
ATOM      3  N   UNL     1       0.699  10.383  18.719  0.00  0.00    +0.000 NA
ATOM      4  C   UNL     1       0.089  11.033  19.739  0.00  0.00    +0.000 A 
ATOM      5  N   UNL     1      -0.567  12.241  19.521  0.00  0.00    +0.000 N 
ATOM      6  C   UNL     1       0.131  10.453  21.023  0.00  0.00    +0.000 A 
ATOM      7  C   UNL     1      -0.398  10.737  22.336  0.00  0.00    +0.000 A 
ATOM      8  C   UNL     1       0.022   9.704  23.161  0.00  0.00    +0.000 A 
ATOM      9  N   UNL     1       0.771   8.832  22.417  0.00  0.00    +0.000 N 
ATOM     10  C   UNL     1       0.837   9.264  21.126  0.00  0.00    +0.000 A 
ATOM     11  N   UNL     1       1.481   8.612  20.151  0.00  0.00    +0.000 NA
ATOM     12  H   UNL     1       0.007  12.999  19.880  0.00  0.00    +0.000 HD
ATOM     13  H   UNL     1       1.200   7.978  22.745  0.00  0.00    +0.000 HD
ENDROOT
BRANCH   7  14
ATOM     14  C   UNL     1      -1.252  11.824  22.821  0.00  0.00    +0.000 A 
ATOM     15  C   UNL     1      -0.821  13.148  22.803  0.00  0.00    +0.000 A 
ATOM     16  C   UNL     1      -1.644  14.131  23.321  0.00  0.00    +0.000 A 
ATOM     17  N   UNL     1      -2.887  13.901  23.781  0.00  0.00    +0.000 NA
ATOM     18  C   UNL     1      -3.325  12.632  23.733  0.00  0.00    +0.000 A 
ATOM     19  N   UNL     1      -4.635  12.419  24.158  0.00  0.00    +0.000 N 
ATOM     20  C   UNL     1      -2.543  11.572  23.300  0.00  0.00    +0.000 A 
ATOM     21  H   UNL     1      -5.020  13.339  24.361  0.00  0.00    +0.000 HD
ATOM     22  H   UNL     1      -5.175  11.941  23.444  0.00  0.00    +0.000 HD
ENDBRANCH   7  14
BRANCH   5  23
ATOM     23  C   UNL     1      -1.090  12.503  18.194  0.00  0.00    +0.000 C 
BRANCH  23  24
ATOM     24  C   UNL     1      -2.320  11.766  17.803  0.00  0.00    +0.000 A 
ATOM     25  C   UNL     1      -3.528  11.632  18.542  0.00  0.00    +0.000 A 
ATOM     26  C   UNL     1      -4.362  10.849  17.781  0.00  0.00    +0.000 A 
ATOM     27  O   UNL     1      -3.749  10.490  16.624  0.00  0.00    +0.000 OA
ATOM     28  C   UNL     1      -2.515  11.052  16.639  0.00  0.00    +0.000 A 
ENDBRANCH  23  24
ENDBRANCH   5  23
TORSDOF 3
ENDMDL
MODEL 6
REMARK VINA RESULT:      -7.1      8.187     11.332
REMARK  Name = 
REMARK  4 active torsions:
REMARK  status: ('A' for Active; 'I' for Inactive)
REMARK    1  A    between atoms: C_1  and  C_2
REMARK    2  A    between atoms: N_5  and  C_6
REMARK    3  A    between atoms: C_6  and  C_7
REMARK    4  A    between atoms: C_13  and  C_14
REMARK                            x       y       z     vdW  Elec       q    Type
REMARK                         _______ _______ _______ _____ _____    ______ ____
ROOT
ATOM      1  C   UNL     1      -2.732  10.042  15.874  0.00  0.00    +0.000 C 
ATOM      2  C   UNL     1      -2.446  10.560  17.251  0.00  0.00    +0.000 A 
ATOM      3  N   UNL     1      -3.355  11.398  17.797  0.00  0.00    +0.000 NA
ATOM      4  C   UNL     1      -3.125  11.933  19.020  0.00  0.00    +0.000 A 
ATOM      5  N   UNL     1      -4.024  12.834  19.582  0.00  0.00    +0.000 N 
ATOM      6  C   UNL     1      -1.956  11.550  19.709  0.00  0.00    +0.000 A 
ATOM      7  C   UNL     1      -1.350  11.801  20.994  0.00  0.00    +0.000 A 
ATOM      8  C   UNL     1      -0.178  11.059  21.028  0.00  0.00    +0.000 A 
ATOM      9  N   UNL     1      -0.053  10.391  19.838  0.00  0.00    +0.000 N 
ATOM     10  C   UNL     1      -1.121  10.669  19.038  0.00  0.00    +0.000 A 
ATOM     11  N   UNL     1      -1.298  10.147  17.819  0.00  0.00    +0.000 NA
ATOM     12  H   UNL     1      -3.638  13.772  19.515  0.00  0.00    +0.000 HD
ATOM     13  H   UNL     1       0.694   9.763  19.578  0.00  0.00    +0.000 HD
ENDROOT
BRANCH   7  14
ATOM     14  C   UNL     1      -1.795  12.606  22.134  0.00  0.00    +0.000 A 
ATOM     15  C   UNL     1      -1.169  13.807  22.461  0.00  0.00    +0.000 A 
ATOM     16  C   UNL     1      -1.592  14.503  23.577  0.00  0.00    +0.000 A 
ATOM     17  N   UNL     1      -2.636  14.132  24.341  0.00  0.00    +0.000 NA
ATOM     18  C   UNL     1      -3.280  13.009  23.981  0.00  0.00    +0.000 A 
ATOM     19  N   UNL     1      -4.394  12.670  24.747  0.00  0.00    +0.000 N 
ATOM     20  C   UNL     1      -2.880  12.209  22.923  0.00  0.00    +0.000 A 
ATOM     21  H   UNL     1      -4.524  13.430  25.410  0.00  0.00    +0.000 HD
ATOM     22  H   UNL     1      -5.212  12.546  24.160  0.00  0.00    +0.000 HD
ENDBRANCH   7  14
BRANCH   5  23
ATOM     23  C   UNL     1      -5.412  12.760  19.170  0.00  0.00    +0.000 C 
BRANCH  23  24
ATOM     24  C   UNL     1      -6.278  11.804  19.908  0.00  0.00    +0.000 A 
ATOM     25  C   UNL     1      -6.809  10.568  19.443  0.00  0.00    +0.000 A 
ATOM     26  C   UNL     1      -7.558  10.057  20.475  0.00  0.00    +0.000 A 
ATOM     27  O   UNL     1      -7.526  10.893  21.544  0.00  0.00    +0.000 OA
ATOM     28  C   UNL     1      -6.745  11.947  21.199  0.00  0.00    +0.000 A 
ENDBRANCH  23  24
ENDBRANCH   5  23
TORSDOF 3
ENDMDL
MODEL 7
REMARK VINA RESULT:      -7.1      2.381      4.875
REMARK  Name = 
REMARK  4 active torsions:
REMARK  status: ('A' for Active; 'I' for Inactive)
REMARK    1  A    between atoms: C_1  and  C_2
REMARK    2  A    between atoms: N_5  and  C_6
REMARK    3  A    between atoms: C_6  and  C_7
REMARK    4  A    between atoms: C_13  and  C_14
REMARK                            x       y       z     vdW  Elec       q    Type
REMARK                         _______ _______ _______ _____ _____    ______ ____
ROOT
ATOM      1  C   UNL     1      -0.544   8.909  22.114  0.00  0.00    +0.000 C 
ATOM      2  C   UNL     1       0.447   8.547  21.050  0.00  0.00    +0.000 A 
ATOM      3  N   UNL     1       1.110   7.378  21.194  0.00  0.00    +0.000 NA
ATOM      4  C   UNL     1       2.051   7.024  20.286  0.00  0.00    +0.000 A 
ATOM      5  N   UNL     1       2.780   5.849  20.440  0.00  0.00    +0.000 N 
ATOM      6  C   UNL     1       2.268   7.873  19.182  0.00  0.00    +0.000 A 
ATOM      7  C   UNL     1       3.083   7.879  17.990  0.00  0.00    +0.000 A 
ATOM      8  C   UNL     1       2.768   9.043  17.305  0.00  0.00    +0.000 A 
ATOM      9  N   UNL     1       1.822   9.727  18.023  0.00  0.00    +0.000 N 
ATOM     10  C   UNL     1       1.504   9.029  19.149  0.00  0.00    +0.000 A 
ATOM     11  N   UNL     1       0.593   9.429  20.044  0.00  0.00    +0.000 NA
ATOM     12  H   UNL     1       3.717   6.079  20.760  0.00  0.00    +0.000 HD
ATOM     13  H   UNL     1       1.392  10.604  17.766  0.00  0.00    +0.000 HD
ENDROOT
BRANCH   7  14
ATOM     14  C   UNL     1       4.042   6.903  17.469  0.00  0.00    +0.000 A 
ATOM     15  C   UNL     1       5.277   7.301  16.961  0.00  0.00    +0.000 A 
ATOM     16  C   UNL     1       6.126   6.347  16.432  0.00  0.00    +0.000 A 
ATOM     17  N   UNL     1       5.868   5.026  16.442  0.00  0.00    +0.000 NA
ATOM     18  C   UNL     1       4.706   4.641  16.995  0.00  0.00    +0.000 A 
ATOM     19  N   UNL     1       4.480   3.267  17.051  0.00  0.00    +0.000 N 
ATOM     20  C   UNL     1       3.762   5.532  17.482  0.00  0.00    +0.000 A 
ATOM     21  H   UNL     1       5.327   2.826  16.700  0.00  0.00    +0.000 HD
ATOM     22  H   UNL     1       4.274   2.972  17.999  0.00  0.00    +0.000 HD
ENDBRANCH   7  14
BRANCH   5  23
ATOM     23  C   UNL     1       2.174   4.764  21.187  0.00  0.00    +0.000 C 
BRANCH  23  24
ATOM     24  C   UNL     1       1.787   3.555  20.414  0.00  0.00    +0.000 A 
ATOM     25  C   UNL     1       0.593   3.340  19.671  0.00  0.00    +0.000 A 
ATOM     26  C   UNL     1       0.684   2.072  19.151  0.00  0.00    +0.000 A 
ATOM     27  O   UNL     1       1.852   1.489  19.525  0.00  0.00    +0.000 OA
ATOM     28  C   UNL     1       2.520   2.392  20.285  0.00  0.00    +0.000 A 
ENDBRANCH  23  24
ENDBRANCH   5  23
TORSDOF 3
ENDMDL
MODEL 8
REMARK VINA RESULT:      -7.0      1.668      5.182
REMARK  Name = 
REMARK  4 active torsions:
REMARK  status: ('A' for Active; 'I' for Inactive)
REMARK    1  A    between atoms: C_1  and  C_2
REMARK    2  A    between atoms: N_5  and  C_6
REMARK    3  A    between atoms: C_6  and  C_7
REMARK    4  A    between atoms: C_13  and  C_14
REMARK                            x       y       z     vdW  Elec       q    Type
REMARK                         _______ _______ _______ _____ _____    ______ ____
ROOT
ATOM      1  C   UNL     1       5.248   0.936  20.474  0.00  0.00    +0.000 C 
ATOM      2  C   UNL     1       4.458   2.195  20.284  0.00  0.00    +0.000 A 
ATOM      3  N   UNL     1       5.111   3.264  19.776  0.00  0.00    +0.000 NA
ATOM      4  C   UNL     1       4.458   4.441  19.628  0.00  0.00    +0.000 A 
ATOM      5  N   UNL     1       5.122   5.567  19.151  0.00  0.00    +0.000 N 
ATOM      6  C   UNL     1       3.090   4.494  19.963  0.00  0.00    +0.000 A 
ATOM      7  C   UNL     1       2.021   5.463  19.918  0.00  0.00    +0.000 A 
ATOM      8  C   UNL     1       0.886   4.819  20.390  0.00  0.00    +0.000 A 
ATOM      9  N   UNL     1       1.222   3.532  20.715  0.00  0.00    +0.000 N 
ATOM     10  C   UNL     1       2.542   3.318  20.454  0.00  0.00    +0.000 A 
ATOM     11  N   UNL     1       3.163   2.149  20.648  0.00  0.00    +0.000 NA
ATOM     12  H   UNL     1       5.303   6.198  19.927  0.00  0.00    +0.000 HD
ATOM     13  H   UNL     1       0.599   2.821  21.073  0.00  0.00    +0.000 HD
ENDROOT
BRANCH   7  14
ATOM     14  C   UNL     1       1.992   6.851  19.451  0.00  0.00    +0.000 A 
ATOM     15  C   UNL     1       2.424   7.194  18.171  0.00  0.00    +0.000 A 
ATOM     16  C   UNL     1       2.427   8.524  17.797  0.00  0.00    +0.000 A 
ATOM     17  N   UNL     1       1.961   9.522  18.571  0.00  0.00    +0.000 NA
ATOM     18  C   UNL     1       1.481   9.178  19.778  0.00  0.00    +0.000 A 
ATOM     19  N   UNL     1       0.949  10.213  20.543  0.00  0.00    +0.000 N 
ATOM     20  C   UNL     1       1.508   7.880  20.265  0.00  0.00    +0.000 A 
ATOM     21  H   UNL     1       0.980  11.044  19.958  0.00  0.00    +0.000 HD
ATOM     22  H   UNL     1       0.001   9.999  20.832  0.00  0.00    +0.000 HD
ENDBRANCH   7  14
BRANCH   5  23
ATOM     23  C   UNL     1       6.278   5.367  18.299  0.00  0.00    +0.000 C 
BRANCH  23  24
ATOM     24  C   UNL     1       6.030   5.339  16.833  0.00  0.00    +0.000 A 
ATOM     25  C   UNL     1       6.358   4.304  15.913  0.00  0.00    +0.000 A 
ATOM     26  C   UNL     1       5.950   4.743  14.677  0.00  0.00    +0.000 A 
ATOM     27  O   UNL     1       5.394   5.978  14.772  0.00  0.00    +0.000 OA
ATOM     28  C   UNL     1       5.439   6.333  16.080  0.00  0.00    +0.000 A 
ENDBRANCH  23  24
ENDBRANCH   5  23
TORSDOF 3
ENDMDL
MODEL 9
REMARK VINA RESULT:      -6.9      3.162      6.098
REMARK  Name = 
REMARK  4 active torsions:
REMARK  status: ('A' for Active; 'I' for Inactive)
REMARK    1  A    between atoms: C_1  and  C_2
REMARK    2  A    between atoms: N_5  and  C_6
REMARK    3  A    between atoms: C_6  and  C_7
REMARK    4  A    between atoms: C_13  and  C_14
REMARK                            x       y       z     vdW  Elec       q    Type
REMARK                         _______ _______ _______ _____ _____    ______ ____
ROOT
ATOM      1  C   UNL     1       1.075   2.475  22.446  0.00  0.00    +0.000 C 
ATOM      2  C   UNL     1       1.982   3.042  21.397  0.00  0.00    +0.000 A 
ATOM      3  N   UNL     1       3.021   2.274  20.998  0.00  0.00    +0.000 NA
ATOM      4  C   UNL     1       3.900   2.756  20.086  0.00  0.00    +0.000 A 
ATOM      5  N   UNL     1       5.003   2.003  19.695  0.00  0.00    +0.000 N 
ATOM      6  C   UNL     1       3.665   4.035  19.541  0.00  0.00    +0.000 A 
ATOM      7  C   UNL     1       4.265   4.893  18.548  0.00  0.00    +0.000 A 
ATOM      8  C   UNL     1       3.481   6.037  18.492  0.00  0.00    +0.000 A 
ATOM      9  N   UNL     1       2.460   5.907  19.396  0.00  0.00    +0.000 N 
ATOM     10  C   UNL     1       2.551   4.703  20.027  0.00  0.00    +0.000 A 
ATOM     11  N   UNL     1       1.683   4.275  20.951  0.00  0.00    +0.000 NA
ATOM     12  H   UNL     1       5.836   2.381  20.139  0.00  0.00    +0.000 HD
ATOM     13  H   UNL     1       1.723   6.577  19.569  0.00  0.00    +0.000 HD
ENDROOT
BRANCH   7  14
ATOM     14  C   UNL     1       5.426   4.701  17.677  0.00  0.00    +0.000 A 
ATOM     15  C   UNL     1       6.725   4.868  18.151  0.00  0.00    +0.000 A 
ATOM     16  C   UNL     1       7.784   4.727  17.276  0.00  0.00    +0.000 A 
ATOM     17  N   UNL     1       7.649   4.359  15.988  0.00  0.00    +0.000 NA
ATOM     18  C   UNL     1       6.399   4.131  15.552  0.00  0.00    +0.000 A 
ATOM     19  N   UNL     1       6.279   3.694  14.235  0.00  0.00    +0.000 N 
ATOM     20  C   UNL     1       5.272   4.320  16.339  0.00  0.00    +0.000 A 
ATOM     21  H   UNL     1       7.228   3.570  13.890  0.00  0.00    +0.000 HD
ATOM     22  H   UNL     1       5.751   2.830  14.187  0.00  0.00    +0.000 HD
ENDBRANCH   7  14
BRANCH   5  23
ATOM     23  C   UNL     1       4.911   0.559  19.792  0.00  0.00    +0.000 C 
BRANCH  23  24
ATOM     24  C   UNL     1       5.751  -0.095  20.830  0.00  0.00    +0.000 A 
ATOM     25  C   UNL     1       6.399  -1.359  20.758  0.00  0.00    +0.000 A 
ATOM     26  C   UNL     1       7.037  -1.535  21.962  0.00  0.00    +0.000 A 
ATOM     27  O   UNL     1       6.826  -0.466  22.771  0.00  0.00    +0.000 OA
ATOM     28  C   UNL     1       6.051   0.407  22.080  0.00  0.00    +0.000 A 
ENDBRANCH  23  24
ENDBRANCH   5  23
TORSDOF 3
ENDMDL
