MODEL 1
REMARK VINA RESULT:      -6.9      0.000      0.000
REMARK  Name = 
REMARK  7 active torsions:
REMARK  status: ('A' for Active; 'I' for Inactive)
REMARK    1  A    between atoms: C_2  and  C_3
REMARK    2  A    between atoms: C_3  and  C_4
REMARK    3  A    between atoms: C_4  and  N_5
REMARK    4  A    between atoms: N_5  and  S_6
REMARK    5  A    between atoms: S_6  and  C_9
REMARK    6  A    between atoms: N_16  and  C_17
REMARK    7  A    between atoms: C_17  and  C_18
REMARK                            x       y       z     vdW  Elec       q    Type
REMARK                         _______ _______ _______ _____ _____    ______ ____
ROOT
ATOM      1  C   UNL     1       6.194   5.237  19.229  0.00  0.00    +0.000 C 
ENDROOT
BRANCH   1   2
ATOM      2  N   UNL     1       5.744   3.843  19.020  0.00  0.00    +0.000 NA
ATOM      3  H   UNL     1       5.824   3.219  19.824  0.00  0.00    +0.000 HD
BRANCH   2   4
ATOM      4  S   UNL     1       4.201   3.645  18.338  0.00  0.00    +0.000 S 
ATOM      5  O   UNL     1       4.391   3.636  16.904  0.00  0.00    +0.000 OA
ATOM      6  O   UNL     1       3.561   2.546  19.024  0.00  0.00    +0.000 OA
BRANCH   4   7
ATOM      7  C   UNL     1       3.368   5.154  18.762  0.00  0.00    +0.000 A 
ATOM      8  C   UNL     1       2.789   5.282  20.030  0.00  0.00    +0.000 A 
ATOM      9  C   UNL     1       2.141   6.471  20.369  0.00  0.00    +0.000 A 
ATOM     10  C   UNL     1       2.077   7.515  19.448  0.00  0.00    +0.000 A 
ATOM     11 BR   UNL     1       1.194   9.122  19.912  0.00  0.00    +0.000 Br
ATOM     12  C   UNL     1       2.662   7.392  18.187  0.00  0.00    +0.000 A 
ATOM     13  C   UNL     1       3.314   6.204  17.841  0.00  0.00    +0.000 A 
ENDBRANCH   4   7
ENDBRANCH   2   4
ENDBRANCH   1   2
BRANCH   1  14
ATOM     14  C   UNL     1       7.450   5.526  18.409  0.00  0.00    +0.000 C 
BRANCH  14  16
ATOM     15  O   UNL     1       6.962   7.231  16.783  0.00  0.00    +0.000 OA
ATOM     16  C   UNL     1       7.043   6.034  17.041  0.00  0.00    +0.000 C 
ATOM     17  N   UNL     1       6.780   5.049  16.115  0.00  0.00    +0.000 N 
ATOM     18  H   UNL     1       7.094   4.100  16.285  0.00  0.00    +0.000 HD
BRANCH  17  19
ATOM     19  C   UNL     1       6.430   5.383  14.741  0.00  0.00    +0.000 C 
BRANCH  19  20
ATOM     20  C   UNL     1       6.585   4.210  13.771  0.00  0.00    +0.000 C 
ATOM     21  C   UNL     1       7.370   4.514  12.508  0.00  0.00    +0.000 C 
ATOM     22  C   UNL     1       6.967   3.352  11.633  0.00  0.00    +0.000 C 
ATOM     23  C   UNL     1       5.512   3.136  12.013  0.00  0.00    +0.000 C 
ATOM     24  O   UNL     1       5.307   3.734  13.306  0.00  0.00    +0.000 OA
ENDBRANCH  19  20
ENDBRANCH  17  19
ENDBRANCH  14  16
ENDBRANCH   1  14
TORSDOF 7
ENDMDL
MODEL 2
REMARK VINA RESULT:      -6.8      4.615      6.700
REMARK  Name = 
REMARK  7 active torsions:
REMARK  status: ('A' for Active; 'I' for Inactive)
REMARK    1  A    between atoms: C_2  and  C_3
REMARK    2  A    between atoms: C_3  and  C_4
REMARK    3  A    between atoms: C_4  and  N_5
REMARK    4  A    between atoms: N_5  and  S_6
REMARK    5  A    between atoms: S_6  and  C_9
REMARK    6  A    between atoms: N_16  and  C_17
REMARK    7  A    between atoms: C_17  and  C_18
REMARK                            x       y       z     vdW  Elec       q    Type
REMARK                         _______ _______ _______ _____ _____    ______ ____
ROOT
ATOM      1  C   UNL     1       6.986   7.196  17.493  0.00  0.00    +0.000 C 
ENDROOT
BRANCH   1   2
ATOM      2  N   UNL     1       7.258   6.347  16.313  0.00  0.00    +0.000 NA
ATOM      3  H   UNL     1       8.159   6.489  15.854  0.00  0.00    +0.000 HD
BRANCH   2   4
ATOM      4  S   UNL     1       7.016   4.678  16.514  0.00  0.00    +0.000 S 
ATOM      5  O   UNL     1       6.734   4.148  15.197  0.00  0.00    +0.000 OA
ATOM      6  O   UNL     1       8.108   4.174  17.315  0.00  0.00    +0.000 OA
BRANCH   4   7
ATOM      7  C   UNL     1       5.518   4.593  17.461  0.00  0.00    +0.000 A 
ATOM      8  C   UNL     1       4.286   4.614  16.795  0.00  0.00    +0.000 A 
ATOM      9  C   UNL     1       3.106   4.538  17.538  0.00  0.00    +0.000 A 
ATOM     10  C   UNL     1       3.164   4.442  18.927  0.00  0.00    +0.000 A 
ATOM     11 BR   UNL     1       1.561   4.344  19.927  0.00  0.00    +0.000 Br
ATOM     12  C   UNL     1       4.391   4.412  19.591  0.00  0.00    +0.000 A 
ATOM     13  C   UNL     1       5.577   4.487  18.854  0.00  0.00    +0.000 A 
ENDBRANCH   4   7
ENDBRANCH   2   4
ENDBRANCH   1   2
BRANCH   1  14
ATOM     14  C   UNL     1       8.283   7.533  18.226  0.00  0.00    +0.000 C 
BRANCH  14  16
ATOM     15  O   UNL     1       7.808   9.816  17.633  0.00  0.00    +0.000 OA
ATOM     16  C   UNL     1       8.390   9.036  18.380  0.00  0.00    +0.000 C 
ATOM     17  N   UNL     1       9.183   9.453  19.426  0.00  0.00    +0.000 N 
ATOM     18  H   UNL     1       9.437   8.799  20.158  0.00  0.00    +0.000 HD
BRANCH  17  19
ATOM     19  C   UNL     1       9.338  10.868  19.734  0.00  0.00    +0.000 C 
BRANCH  19  20
ATOM     20  C   UNL     1      10.527  11.518  19.025  0.00  0.00    +0.000 C 
ATOM     21  C   UNL     1      11.529  12.205  19.936  0.00  0.00    +0.000 C 
ATOM     22  C   UNL     1      12.275  13.067  18.947  0.00  0.00    +0.000 C 
ATOM     23  C   UNL     1      11.182  13.487  17.979  0.00  0.00    +0.000 C 
ATOM     24  O   UNL     1      10.102  12.543  18.106  0.00  0.00    +0.000 OA
ENDBRANCH  19  20
ENDBRANCH  17  19
ENDBRANCH  14  16
ENDBRANCH   1  14
TORSDOF 7
ENDMDL
MODEL 3
REMARK VINA RESULT:      -6.7      2.910      4.409
REMARK  Name = 
REMARK  7 active torsions:
REMARK  status: ('A' for Active; 'I' for Inactive)
REMARK    1  A    between atoms: C_2  and  C_3
REMARK    2  A    between atoms: C_3  and  C_4
REMARK    3  A    between atoms: C_4  and  N_5
REMARK    4  A    between atoms: N_5  and  S_6
REMARK    5  A    between atoms: S_6  and  C_9
REMARK    6  A    between atoms: N_16  and  C_17
REMARK    7  A    between atoms: C_17  and  C_18
REMARK                            x       y       z     vdW  Elec       q    Type
REMARK                         _______ _______ _______ _____ _____    ______ ____
ROOT
ATOM      1  C   UNL     1       1.513   3.974  18.051  0.00  0.00    +0.000 C 
ENDROOT
BRANCH   1   2
ATOM      2  N   UNL     1       2.353   5.191  18.091  0.00  0.00    +0.000 NA
ATOM      3  H   UNL     1       2.100   5.934  17.439  0.00  0.00    +0.000 HD
BRANCH   2   4
ATOM      4  S   UNL     1       2.604   5.882  19.622  0.00  0.00    +0.000 S 
ATOM      5  O   UNL     1       1.699   5.205  20.526  0.00  0.00    +0.000 OA
ATOM      6  O   UNL     1       4.029   5.909  19.858  0.00  0.00    +0.000 OA
BRANCH   4   7
ATOM      7  C   UNL     1       2.020   7.546  19.421  0.00  0.00    +0.000 A 
ATOM      8  C   UNL     1       1.426   8.197  20.509  0.00  0.00    +0.000 A 
ATOM      9  C   UNL     1       0.973   9.510  20.356  0.00  0.00    +0.000 A 
ATOM     10  C   UNL     1       1.117  10.156  19.130  0.00  0.00    +0.000 A 
ATOM     11 BR   UNL     1       0.497  11.932  18.928  0.00  0.00    +0.000 Br
ATOM     12  C   UNL     1       1.717   9.510  18.047  0.00  0.00    +0.000 A 
ATOM     13  C   UNL     1       2.173   8.197  18.194  0.00  0.00    +0.000 A 
ENDBRANCH   4   7
ENDBRANCH   2   4
ENDBRANCH   1   2
BRANCH   1  14
ATOM     14  C   UNL     1       2.301   2.793  17.490  0.00  0.00    +0.000 C 
BRANCH  14  16
ATOM     15  O   UNL     1       4.389   2.692  18.683  0.00  0.00    +0.000 OA
ATOM     16  C   UNL     1       3.782   3.051  17.678  0.00  0.00    +0.000 C 
ATOM     17  N   UNL     1       4.389   3.711  16.633  0.00  0.00    +0.000 N 
ATOM     18  H   UNL     1       3.925   3.766  15.734  0.00  0.00    +0.000 HD
BRANCH  17  19
ATOM     19  C   UNL     1       5.820   3.982  16.645  0.00  0.00    +0.000 C 
BRANCH  19  20
ATOM     20  C   UNL     1       6.208   5.170  17.528  0.00  0.00    +0.000 C 
ATOM     21  C   UNL     1       7.116   6.195  16.872  0.00  0.00    +0.000 C 
ATOM     22  C   UNL     1       7.630   6.939  18.081  0.00  0.00    +0.000 C 
ATOM     23  C   UNL     1       7.763   5.838  19.119  0.00  0.00    +0.000 C 
ATOM     24  O   UNL     1       6.920   4.746  18.706  0.00  0.00    +0.000 OA
ENDBRANCH  19  20
ENDBRANCH  17  19
ENDBRANCH  14  16
ENDBRANCH   1  14
TORSDOF 7
ENDMDL
MODEL 4
REMARK VINA RESULT:      -6.7      2.950      5.116
REMARK  Name = 
REMARK  7 active torsions:
REMARK  status: ('A' for Active; 'I' for Inactive)
REMARK    1  A    between atoms: C_2  and  C_3
REMARK    2  A    between atoms: C_3  and  C_4
REMARK    3  A    between atoms: C_4  and  N_5
REMARK    4  A    between atoms: N_5  and  S_6
REMARK    5  A    between atoms: S_6  and  C_9
REMARK    6  A    between atoms: N_16  and  C_17
REMARK    7  A    between atoms: C_17  and  C_18
REMARK                            x       y       z     vdW  Elec       q    Type
REMARK                         _______ _______ _______ _____ _____    ______ ____
ROOT
ATOM      1  C   UNL     1       5.643   6.242  18.008  0.00  0.00    +0.000 C 
ENDROOT
BRANCH   1   2
ATOM      2  N   UNL     1       4.284   6.551  17.515  0.00  0.00    +0.000 NA
ATOM      3  H   UNL     1       4.045   6.184  16.593  0.00  0.00    +0.000 HD
BRANCH   2   4
ATOM      4  S   UNL     1       3.003   6.209  18.576  0.00  0.00    +0.000 S 
ATOM      5  O   UNL     1       2.075   5.379  17.838  0.00  0.00    +0.000 OA
ATOM      6  O   UNL     1       3.579   5.772  19.827  0.00  0.00    +0.000 OA
BRANCH   4   7
ATOM      7  C   UNL     1       2.236   7.792  18.815  0.00  0.00    +0.000 A 
ATOM      8  C   UNL     1       1.629   8.078  20.045  0.00  0.00    +0.000 A 
ATOM      9  C   UNL     1       1.033   9.326  20.238  0.00  0.00    +0.000 A 
ATOM     10  C   UNL     1       1.048  10.271  19.213  0.00  0.00    +0.000 A 
ATOM     11 BR   UNL     1       0.234  11.957  19.481  0.00  0.00    +0.000 Br
ATOM     12  C   UNL     1       1.660   9.989  17.991  0.00  0.00    +0.000 A 
ATOM     13  C   UNL     1       2.260   8.742  17.790  0.00  0.00    +0.000 A 
ENDBRANCH   4   7
ENDBRANCH   2   4
ENDBRANCH   1   2
BRANCH   1  14
ATOM     14  C   UNL     1       6.217   5.027  17.282  0.00  0.00    +0.000 C 
BRANCH  14  16
ATOM     15  O   UNL     1       4.631   3.882  15.880  0.00  0.00    +0.000 OA
ATOM     16  C   UNL     1       5.100   4.043  17.003  0.00  0.00    +0.000 C 
ATOM     17  N   UNL     1       4.660   3.343  18.105  0.00  0.00    +0.000 N 
ATOM     18  H   UNL     1       5.226   3.318  18.945  0.00  0.00    +0.000 HD
BRANCH  17  19
ATOM     19  C   UNL     1       3.628   2.322  17.984  0.00  0.00    +0.000 C 
BRANCH  19  20
ATOM     20  C   UNL     1       2.889   2.045  19.294  0.00  0.00    +0.000 C 
ATOM     21  C   UNL     1       1.520   2.690  19.415  0.00  0.00    +0.000 C 
ATOM     22  C   UNL     1       1.287   2.593  20.903  0.00  0.00    +0.000 C 
ATOM     23  C   UNL     1       2.676   2.817  21.474  0.00  0.00    +0.000 C 
ATOM     24  O   UNL     1       3.627   2.529  20.433  0.00  0.00    +0.000 OA
ENDBRANCH  19  20
ENDBRANCH  17  19
ENDBRANCH  14  16
ENDBRANCH   1  14
TORSDOF 7
ENDMDL
MODEL 5
REMARK VINA RESULT:      -6.7      1.335      1.827
REMARK  Name = 
REMARK  7 active torsions:
REMARK  status: ('A' for Active; 'I' for Inactive)
REMARK    1  A    between atoms: C_2  and  C_3
REMARK    2  A    between atoms: C_3  and  C_4
REMARK    3  A    between atoms: C_4  and  N_5
REMARK    4  A    between atoms: N_5  and  S_6
REMARK    5  A    between atoms: S_6  and  C_9
REMARK    6  A    between atoms: N_16  and  C_17
REMARK    7  A    between atoms: C_17  and  C_18
REMARK                            x       y       z     vdW  Elec       q    Type
REMARK                         _______ _______ _______ _____ _____    ______ ____
ROOT
ATOM      1  C   UNL     1       6.630   5.310  18.830  0.00  0.00    +0.000 C 
ENDROOT
BRANCH   1   2
ATOM      2  N   UNL     1       5.510   6.032  18.188  0.00  0.00    +0.000 NA
ATOM      3  H   UNL     1       5.611   6.225  17.191  0.00  0.00    +0.000 HD
BRANCH   2   4
ATOM      4  S   UNL     1       3.956   5.403  18.459  0.00  0.00    +0.000 S 
ATOM      5  O   UNL     1       3.544   4.793  17.213  0.00  0.00    +0.000 OA
ATOM      6  O   UNL     1       4.000   4.651  19.691  0.00  0.00    +0.000 OA
BRANCH   4   7
ATOM      7  C   UNL     1       2.963   6.854  18.703  0.00  0.00    +0.000 A 
ATOM      8  C   UNL     1       2.846   7.784  17.663  0.00  0.00    +0.000 A 
ATOM      9  C   UNL     1       2.058   8.922  17.850  0.00  0.00    +0.000 A 
ATOM     10  C   UNL     1       1.398   9.120  19.061  0.00  0.00    +0.000 A 
ATOM     11 BR   UNL     1       0.337  10.666  19.308  0.00  0.00    +0.000 Br
ATOM     12  C   UNL     1       1.507   8.189  20.095  0.00  0.00    +0.000 A 
ATOM     13  C   UNL     1       2.294   7.046  19.915  0.00  0.00    +0.000 A 
ENDBRANCH   4   7
ENDBRANCH   2   4
ENDBRANCH   1   2
BRANCH   1  14
ATOM     14  C   UNL     1       7.547   4.693  17.776  0.00  0.00    +0.000 C 
BRANCH  14  16
ATOM     15  O   UNL     1       7.585   6.329  16.012  0.00  0.00    +0.000 OA
ATOM     16  C   UNL     1       7.178   5.243  16.414  0.00  0.00    +0.000 C 
ATOM     17  N   UNL     1       6.359   4.427  15.666  0.00  0.00    +0.000 N 
ATOM     18  H   UNL     1       6.251   3.452  15.920  0.00  0.00    +0.000 HD
BRANCH  17  19
ATOM     19  C   UNL     1       5.963   4.796  14.314  0.00  0.00    +0.000 C 
BRANCH  19  20
ATOM     20  C   UNL     1       5.788   3.596  13.382  0.00  0.00    +0.000 C 
ATOM     21  C   UNL     1       6.843   3.458  12.299  0.00  0.00    +0.000 C 
ATOM     22  C   UNL     1       6.159   2.503  11.351  0.00  0.00    +0.000 C 
ATOM     23  C   UNL     1       4.704   2.930  11.438  0.00  0.00    +0.000 C 
ATOM     24  O   UNL     1       4.536   3.652  12.672  0.00  0.00    +0.000 OA
ENDBRANCH  19  20
ENDBRANCH  17  19
ENDBRANCH  14  16
ENDBRANCH   1  14
TORSDOF 7
ENDMDL
MODEL 6
REMARK VINA RESULT:      -6.6      3.488      5.723
REMARK  Name = 
REMARK  7 active torsions:
REMARK  status: ('A' for Active; 'I' for Inactive)
REMARK    1  A    between atoms: C_2  and  C_3
REMARK    2  A    between atoms: C_3  and  C_4
REMARK    3  A    between atoms: C_4  and  N_5
REMARK    4  A    between atoms: N_5  and  S_6
REMARK    5  A    between atoms: S_6  and  C_9
REMARK    6  A    between atoms: N_16  and  C_17
REMARK    7  A    between atoms: C_17  and  C_18
REMARK                            x       y       z     vdW  Elec       q    Type
REMARK                         _______ _______ _______ _____ _____    ______ ____
ROOT
ATOM      1  C   UNL     1       6.404   5.634  19.168  0.00  0.00    +0.000 C 
ENDROOT
BRANCH   1   2
ATOM      2  N   UNL     1       6.113   4.214  18.876  0.00  0.00    +0.000 NA
ATOM      3  H   UNL     1       6.537   3.529  19.504  0.00  0.00    +0.000 HD
BRANCH   2   4
ATOM      4  S   UNL     1       4.477   3.808  18.667  0.00  0.00    +0.000 S 
ATOM      5  O   UNL     1       4.368   3.238  17.341  0.00  0.00    +0.000 OA
ATOM      6  O   UNL     1       4.057   3.078  19.841  0.00  0.00    +0.000 OA
BRANCH   4   7
ATOM      7  C   UNL     1       3.663   5.385  18.644  0.00  0.00    +0.000 A 
ATOM      8  C   UNL     1       3.829   6.224  17.535  0.00  0.00    +0.000 A 
ATOM      9  C   UNL     1       3.183   7.461  17.512  0.00  0.00    +0.000 A 
ATOM     10  C   UNL     1       2.382   7.848  18.584  0.00  0.00    +0.000 A 
ATOM     11 BR   UNL     1       1.513   9.528  18.547  0.00  0.00    +0.000 Br
ATOM     12  C   UNL     1       2.209   7.009  19.686  0.00  0.00    +0.000 A 
ATOM     13  C   UNL     1       2.853   5.768  19.717  0.00  0.00    +0.000 A 
ENDBRANCH   4   7
ENDBRANCH   2   4
ENDBRANCH   1   2
BRANCH   1  14
ATOM     14  C   UNL     1       7.835   5.985  18.765  0.00  0.00    +0.000 C 
BRANCH  14  16
ATOM     15  O   UNL     1       7.261   7.600  17.075  0.00  0.00    +0.000 OA
ATOM     16  C   UNL     1       7.848   7.358  18.126  0.00  0.00    +0.000 C 
ATOM     17  N   UNL     1       8.562   8.310  18.820  0.00  0.00    +0.000 N 
ATOM     18  H   UNL     1       8.816   8.144  19.787  0.00  0.00    +0.000 HD
BRANCH  17  19
ATOM     19  C   UNL     1       8.621   9.690  18.358  0.00  0.00    +0.000 C 
BRANCH  19  20
ATOM     20  C   UNL     1       9.778  10.486  18.964  0.00  0.00    +0.000 C 
ATOM     21  C   UNL     1       9.531  11.024  20.363  0.00  0.00    +0.000 C 
ATOM     22  C   UNL     1      10.618  12.067  20.465  0.00  0.00    +0.000 C 
ATOM     23  C   UNL     1      10.679  12.625  19.054  0.00  0.00    +0.000 C 
ATOM     24  O   UNL     1      10.096  11.647  18.173  0.00  0.00    +0.000 OA
ENDBRANCH  19  20
ENDBRANCH  17  19
ENDBRANCH  14  16
ENDBRANCH   1  14
TORSDOF 7
ENDMDL
MODEL 7
REMARK VINA RESULT:      -6.5      3.337      5.140
REMARK  Name = 
REMARK  7 active torsions:
REMARK  status: ('A' for Active; 'I' for Inactive)
REMARK    1  A    between atoms: C_2  and  C_3
REMARK    2  A    between atoms: C_3  and  C_4
REMARK    3  A    between atoms: C_4  and  N_5
REMARK    4  A    between atoms: N_5  and  S_6
REMARK    5  A    between atoms: S_6  and  C_9
REMARK    6  A    between atoms: N_16  and  C_17
REMARK    7  A    between atoms: C_17  and  C_18
REMARK                            x       y       z     vdW  Elec       q    Type
REMARK                         _______ _______ _______ _____ _____    ______ ____
ROOT
ATOM      1  C   UNL     1       5.456   5.879  19.203  0.00  0.00    +0.000 C 
ENDROOT
BRANCH   1   2
ATOM      2  N   UNL     1       3.993   5.691  19.315  0.00  0.00    +0.000 NA
ATOM      3  H   UNL     1       3.589   5.847  20.239  0.00  0.00    +0.000 HD
BRANCH   2   4
ATOM      4  S   UNL     1       3.040   6.503  18.167  0.00  0.00    +0.000 S 
ATOM      5  O   UNL     1       3.959   7.233  17.322  0.00  0.00    +0.000 OA
ATOM      6  O   UNL     1       2.107   5.544  17.621  0.00  0.00    +0.000 OA
BRANCH   4   7
ATOM      7  C   UNL     1       2.146   7.687  19.142  0.00  0.00    +0.000 A 
ATOM      8  C   UNL     1       1.904   7.416  20.494  0.00  0.00    +0.000 A 
ATOM      9  C   UNL     1       1.208   8.350  21.264  0.00  0.00    +0.000 A 
ATOM     10  C   UNL     1       0.766   9.538  20.685  0.00  0.00    +0.000 A 
ATOM     11 BR   UNL     1      -0.180  10.796  21.734  0.00  0.00    +0.000 Br
ATOM     12  C   UNL     1       1.015   9.813  19.340  0.00  0.00    +0.000 A 
ATOM     13  C   UNL     1       1.711   8.883  18.562  0.00  0.00    +0.000 A 
ENDBRANCH   4   7
ENDBRANCH   2   4
ENDBRANCH   1   2
BRANCH   1  14
ATOM     14  C   UNL     1       6.069   4.807  18.303  0.00  0.00    +0.000 C 
BRANCH  14  16
ATOM     15  O   UNL     1       4.528   3.409  17.095  0.00  0.00    +0.000 OA
ATOM     16  C   UNL     1       5.089   3.662  18.157  0.00  0.00    +0.000 C 
ATOM     17  N   UNL     1       4.885   2.928  19.304  0.00  0.00    +0.000 N 
ATOM     18  H   UNL     1       5.539   3.006  20.075  0.00  0.00    +0.000 HD
BRANCH  17  19
ATOM     19  C   UNL     1       4.012   1.762  19.305  0.00  0.00    +0.000 C 
BRANCH  19  20
ATOM     20  C   UNL     1       2.600   2.060  19.809  0.00  0.00    +0.000 C 
ATOM     21  C   UNL     1       1.566   2.319  18.727  0.00  0.00    +0.000 C 
ATOM     22  C   UNL     1       0.471   2.979  19.528  0.00  0.00    +0.000 C 
ATOM     23  C   UNL     1       1.247   3.799  20.544  0.00  0.00    +0.000 C 
ATOM     24  O   UNL     1       2.569   3.237  20.639  0.00  0.00    +0.000 OA
ENDBRANCH  19  20
ENDBRANCH  17  19
ENDBRANCH  14  16
ENDBRANCH   1  14
TORSDOF 7
ENDMDL
MODEL 8
REMARK VINA RESULT:      -6.5      2.107      2.950
REMARK  Name = 
REMARK  7 active torsions:
REMARK  status: ('A' for Active; 'I' for Inactive)
REMARK    1  A    between atoms: C_2  and  C_3
REMARK    2  A    between atoms: C_3  and  C_4
REMARK    3  A    between atoms: C_4  and  N_5
REMARK    4  A    between atoms: N_5  and  S_6
REMARK    5  A    between atoms: S_6  and  C_9
REMARK    6  A    between atoms: N_16  and  C_17
REMARK    7  A    between atoms: C_17  and  C_18
REMARK                            x       y       z     vdW  Elec       q    Type
REMARK                         _______ _______ _______ _____ _____    ______ ____
ROOT
ATOM      1  C   UNL     1       3.980   2.595  19.057  0.00  0.00    +0.000 C 
ENDROOT
BRANCH   1   2
ATOM      2  N   UNL     1       2.991   1.999  19.981  0.00  0.00    +0.000 NA
ATOM      3  H   UNL     1       3.296   1.872  20.946  0.00  0.00    +0.000 HD
BRANCH   2   4
ATOM      4  S   UNL     1       1.449   2.710  19.994  0.00  0.00    +0.000 S 
ATOM      5  O   UNL     1       0.689   2.049  18.955  0.00  0.00    +0.000 OA
ATOM      6  O   UNL     1       0.994   2.735  21.365  0.00  0.00    +0.000 OA
BRANCH   4   7
ATOM      7  C   UNL     1       1.761   4.373  19.459  0.00  0.00    +0.000 A 
ATOM      8  C   UNL     1       1.871   4.641  18.089  0.00  0.00    +0.000 A 
ATOM      9  C   UNL     1       2.107   5.951  17.665  0.00  0.00    +0.000 A 
ATOM     10  C   UNL     1       2.229   6.974  18.604  0.00  0.00    +0.000 A 
ATOM     11 BR   UNL     1       2.554   8.744  18.022  0.00  0.00    +0.000 Br
ATOM     12  C   UNL     1       2.111   6.709  19.969  0.00  0.00    +0.000 A 
ATOM     13  C   UNL     1       1.873   5.401  20.401  0.00  0.00    +0.000 A 
ENDBRANCH   4   7
ENDBRANCH   2   4
ENDBRANCH   1   2
BRANCH   1  14
ATOM     14  C   UNL     1       5.113   3.260  19.837  0.00  0.00    +0.000 C 
BRANCH  14  16
ATOM     15  O   UNL     1       5.234   5.607  19.318  0.00  0.00    +0.000 OA
ATOM     16  C   UNL     1       5.607   4.465  19.064  0.00  0.00    +0.000 C 
ATOM     17  N   UNL     1       6.507   4.178  18.062  0.00  0.00    +0.000 N 
ATOM     18  H   UNL     1       6.973   3.278  18.046  0.00  0.00    +0.000 HD
BRANCH  17  19
ATOM     19  C   UNL     1       7.111   5.239  17.268  0.00  0.00    +0.000 C 
BRANCH  19  20
ATOM     20  C   UNL     1       6.579   5.306  15.835  0.00  0.00    +0.000 C 
ATOM     21  C   UNL     1       5.544   4.254  15.479  0.00  0.00    +0.000 C 
ATOM     22  C   UNL     1       5.572   4.322  13.971  0.00  0.00    +0.000 C 
ATOM     23  C   UNL     1       7.039   4.585  13.675  0.00  0.00    +0.000 C 
ATOM     24  O   UNL     1       7.632   5.131  14.868  0.00  0.00    +0.000 OA
ENDBRANCH  19  20
ENDBRANCH  17  19
ENDBRANCH  14  16
ENDBRANCH   1  14
TORSDOF 7
ENDMDL
MODEL 9
REMARK VINA RESULT:      -6.4      3.188      5.042
REMARK  Name = 
REMARK  7 active torsions:
REMARK  status: ('A' for Active; 'I' for Inactive)
REMARK    1  A    between atoms: C_2  and  C_3
REMARK    2  A    between atoms: C_3  and  C_4
REMARK    3  A    between atoms: C_4  and  N_5
REMARK    4  A    between atoms: N_5  and  S_6
REMARK    5  A    between atoms: S_6  and  C_9
REMARK    6  A    between atoms: N_16  and  C_17
REMARK    7  A    between atoms: C_17  and  C_18
REMARK                            x       y       z     vdW  Elec       q    Type
REMARK                         _______ _______ _______ _____ _____    ______ ____
ROOT
ATOM      1  C   UNL     1       4.803   6.395  17.117  0.00  0.00    +0.000 C 
ENDROOT
BRANCH   1   2
ATOM      2  N   UNL     1       4.450   6.495  18.550  0.00  0.00    +0.000 NA
ATOM      3  H   UNL     1       4.757   7.341  19.031  0.00  0.00    +0.000 HD
BRANCH   2   4
ATOM      4  S   UNL     1       2.823   6.211  18.946  0.00  0.00    +0.000 S 
ATOM      5  O   UNL     1       2.248   5.509  17.819  0.00  0.00    +0.000 OA
ATOM      6  O   UNL     1       2.791   5.657  20.280  0.00  0.00    +0.000 OA
BRANCH   4   7
ATOM      7  C   UNL     1       2.120   7.841  18.981  0.00  0.00    +0.000 A 
ATOM      8  C   UNL     1       2.168   8.631  17.826  0.00  0.00    +0.000 A 
ATOM      9  C   UNL     1       1.608   9.910  17.849  0.00  0.00    +0.000 A 
ATOM     10  C   UNL     1       1.009  10.386  19.013  0.00  0.00    +0.000 A 
ATOM     11 BR   UNL     1       0.257  12.122  19.038  0.00  0.00    +0.000 Br
ATOM     12  C   UNL     1       0.953   9.596  20.163  0.00  0.00    +0.000 A 
ATOM     13  C   UNL     1       1.511   8.314  20.147  0.00  0.00    +0.000 A 
ENDBRANCH   4   7
ENDBRANCH   2   4
ENDBRANCH   1   2
BRANCH   1  14
ATOM     14  C   UNL     1       5.699   5.184  16.865  0.00  0.00    +0.000 C 
BRANCH  14  16
ATOM     15  O   UNL     1       6.443   4.337  18.991  0.00  0.00    +0.000 OA
ATOM     16  C   UNL     1       5.638   4.264  18.067  0.00  0.00    +0.000 C 
ATOM     17  N   UNL     1       4.610   3.349  18.042  0.00  0.00    +0.000 N 
ATOM     18  H   UNL     1       3.834   3.480  17.402  0.00  0.00    +0.000 HD
BRANCH  17  19
ATOM     19  C   UNL     1       4.390   2.434  19.153  0.00  0.00    +0.000 C 
BRANCH  19  20
ATOM     20  C   UNL     1       2.924   2.039  19.336  0.00  0.00    +0.000 C 
ATOM     21  C   UNL     1       2.022   2.329  18.150  0.00  0.00    +0.000 C 
ATOM     22  C   UNL     1       0.660   2.242  18.796  0.00  0.00    +0.000 C 
ATOM     23  C   UNL     1       0.906   2.828  20.176  0.00  0.00    +0.000 C 
ATOM     24  O   UNL     1       2.319   2.739  20.440  0.00  0.00    +0.000 OA
ENDBRANCH  19  20
ENDBRANCH  17  19
ENDBRANCH  14  16
ENDBRANCH   1  14
TORSDOF 7
ENDMDL
