MODEL 1
REMARK VINA RESULT:      -7.8      0.000      0.000
REMARK  Name = 
REMARK  6 active torsions:
REMARK  status: ('A' for Active; 'I' for Inactive)
REMARK    1  A    between atoms: C_1  and  C_2
REMARK    2  A    between atoms: C_9  and  C_10
REMARK    3  A    between atoms: C_10  and  S_11
REMARK    4  A    between atoms: S_11  and  C_12
REMARK    5  A    between atoms: C_14  and  C_15
REMARK    6  A    between atoms: N_22  and  C_23
REMARK                            x       y       z     vdW  Elec       q    Type
REMARK                         _______ _______ _______ _____ _____    ______ ____
ROOT
ATOM      1  S   UNL     1       1.756   2.347  18.429  0.00  0.00    +0.000 S 
ENDROOT
BRANCH   1   2
ATOM      2  C   UNL     1       1.800   3.913  19.182  0.00  0.00    +0.000 A 
ATOM      3  N   UNL     1       1.751   5.069  18.553  0.00  0.00    +0.000 NA
ATOM      4  C   UNL     1       1.831   6.030  19.540  0.00  0.00    +0.000 A 
ATOM      5  C   UNL     1       1.918   5.439  20.780  0.00  0.00    +0.000 A 
ATOM      6  N   UNL     1       1.890   4.090  20.540  0.00  0.00    +0.000 N 
ATOM      7  C   UNL     1       1.924   3.091  21.578  0.00  0.00    +0.000 C 
BRANCH   4   8
ATOM      8  C   UNL     1       1.777   7.462  19.297  0.00  0.00    +0.000 A 
ATOM      9  C   UNL     1       2.183   7.969  18.058  0.00  0.00    +0.000 A 
ATOM     10  C   UNL     1       2.106   9.339  17.793  0.00  0.00    +0.000 A 
ATOM     11  C   UNL     1       1.634  10.216  18.768  0.00  0.00    +0.000 A 
ATOM     12  C   UNL     1       1.239   9.724  20.011  0.00  0.00    +0.000 A 
ATOM     13  C   UNL     1       1.310   8.354  20.274  0.00  0.00    +0.000 A 
ENDBRANCH   4   8
ENDBRANCH   1   2
BRANCH   1  14
ATOM     14  C   UNL     1       3.504   1.826  18.557  0.00  0.00    +0.000 C 
BRANCH  14  23
ATOM     15  C   UNL     1       5.878   5.193  14.711  0.00  0.00    +0.000 C 
ATOM     16  C   UNL     1       6.145   5.323  16.189  0.00  0.00    +0.000 A 
ATOM     17  C   UNL     1       6.983   6.289  16.636  0.00  0.00    +0.000 A 
ATOM     18  C   UNL     1       7.282   6.473  18.048  0.00  0.00    +0.000 A 
ATOM     19 CL   UNL     1       8.370   7.719  18.514  0.00  0.00    +0.000 Cl
ATOM     20  C   UNL     1       6.706   5.671  18.951  0.00  0.00    +0.000 A 
ATOM     21  N   UNL     1       5.844   4.673  18.508  0.00  0.00    +0.000 N 
ATOM     22  C   UNL     1       5.143   3.743  19.235  0.00  0.00    +0.000 A 
ATOM     23  C   UNL     1       4.455   2.969  18.318  0.00  0.00    +0.000 A 
ATOM     24  N   UNL     1       4.709   3.435  17.037  0.00  0.00    +0.000 NA
ATOM     25  C   UNL     1       5.540   4.451  17.168  0.00  0.00    +0.000 A 
ENDBRANCH  14  23
ENDBRANCH   1  14
TORSDOF 4
ENDMDL
MODEL 2
REMARK VINA RESULT:      -7.7      3.789      6.554
REMARK  Name = 
REMARK  6 active torsions:
REMARK  status: ('A' for Active; 'I' for Inactive)
REMARK    1  A    between atoms: C_1  and  C_2
REMARK    2  A    between atoms: C_9  and  C_10
REMARK    3  A    between atoms: C_10  and  S_11
REMARK    4  A    between atoms: S_11  and  C_12
REMARK    5  A    between atoms: C_14  and  C_15
REMARK    6  A    between atoms: N_22  and  C_23
REMARK                            x       y       z     vdW  Elec       q    Type
REMARK                         _______ _______ _______ _____ _____    ______ ____
ROOT
ATOM      1  S   UNL     1       6.670   5.824  16.033  0.00  0.00    +0.000 S 
ENDROOT
BRANCH   1   2
ATOM      2  C   UNL     1       7.429   6.876  17.189  0.00  0.00    +0.000 A 
ATOM      3  N   UNL     1       7.664   8.161  17.019  0.00  0.00    +0.000 NA
ATOM      4  C   UNL     1       8.290   8.578  18.176  0.00  0.00    +0.000 A 
ATOM      5  C   UNL     1       8.422   7.528  19.056  0.00  0.00    +0.000 A 
ATOM      6  N   UNL     1       7.863   6.450  18.419  0.00  0.00    +0.000 N 
ATOM      7  C   UNL     1       7.758   5.138  19.007  0.00  0.00    +0.000 C 
BRANCH   4   8
ATOM      8  C   UNL     1       8.702   9.947  18.439  0.00  0.00    +0.000 A 
ATOM      9  C   UNL     1       9.483  10.230  19.565  0.00  0.00    +0.000 A 
ATOM     10  C   UNL     1       9.918  11.534  19.816  0.00  0.00    +0.000 A 
ATOM     11  C   UNL     1       9.568  12.569  18.949  0.00  0.00    +0.000 A 
ATOM     12  C   UNL     1       8.780  12.301  17.832  0.00  0.00    +0.000 A 
ATOM     13  C   UNL     1       8.350  10.996  17.577  0.00  0.00    +0.000 A 
ENDBRANCH   4   8
ENDBRANCH   1   2
BRANCH   1  14
ATOM     14  C   UNL     1       4.946   6.431  16.055  0.00  0.00    +0.000 C 
BRANCH  14  23
ATOM     15  C   UNL     1       1.700   7.726  20.478  0.00  0.00    +0.000 C 
ATOM     16  C   UNL     1       2.061   6.308  20.114  0.00  0.00    +0.000 A 
ATOM     17  C   UNL     1       1.590   5.283  20.865  0.00  0.00    +0.000 A 
ATOM     18  C   UNL     1       1.896   3.891  20.569  0.00  0.00    +0.000 A 
ATOM     19 CL   UNL     1       1.262   2.664  21.590  0.00  0.00    +0.000 Cl
ATOM     20  C   UNL     1       2.662   3.599  19.512  0.00  0.00    +0.000 A 
ATOM     21  N   UNL     1       3.154   4.639  18.731  0.00  0.00    +0.000 N 
ATOM     22  C   UNL     1       3.948   4.588  17.612  0.00  0.00    +0.000 A 
ATOM     23  C   UNL     1       4.173   5.898  17.232  0.00  0.00    +0.000 A 
ATOM     24  N   UNL     1       3.503   6.751  18.096  0.00  0.00    +0.000 NA
ATOM     25  C   UNL     1       2.900   5.984  18.984  0.00  0.00    +0.000 A 
ENDBRANCH  14  23
ENDBRANCH   1  14
TORSDOF 4
ENDMDL
MODEL 3
REMARK VINA RESULT:      -7.5      2.566      6.812
REMARK  Name = 
REMARK  6 active torsions:
REMARK  status: ('A' for Active; 'I' for Inactive)
REMARK    1  A    between atoms: C_1  and  C_2
REMARK    2  A    between atoms: C_9  and  C_10
REMARK    3  A    between atoms: C_10  and  S_11
REMARK    4  A    between atoms: S_11  and  C_12
REMARK    5  A    between atoms: C_14  and  C_15
REMARK    6  A    between atoms: N_22  and  C_23
REMARK                            x       y       z     vdW  Elec       q    Type
REMARK                         _______ _______ _______ _____ _____    ______ ____
ROOT
ATOM      1  S   UNL     1       4.635   3.810  19.246  0.00  0.00    +0.000 S 
ENDROOT
BRANCH   1   2
ATOM      2  C   UNL     1       5.634   4.281  17.903  0.00  0.00    +0.000 A 
ATOM      3  N   UNL     1       5.440   3.941  16.646  0.00  0.00    +0.000 NA
ATOM      4  C   UNL     1       6.476   4.521  15.942  0.00  0.00    +0.000 A 
ATOM      5  C   UNL     1       7.296   5.229  16.792  0.00  0.00    +0.000 A 
ATOM      6  N   UNL     1       6.745   5.075  18.038  0.00  0.00    +0.000 N 
ATOM      7  C   UNL     1       7.275   5.689  19.229  0.00  0.00    +0.000 C 
BRANCH   4   8
ATOM      8  C   UNL     1       6.640   4.434  14.502  0.00  0.00    +0.000 A 
ATOM      9  C   UNL     1       7.568   5.261  13.859  0.00  0.00    +0.000 A 
ATOM     10  C   UNL     1       7.765   5.167  12.479  0.00  0.00    +0.000 A 
ATOM     11  C   UNL     1       7.028   4.254  11.726  0.00  0.00    +0.000 A 
ATOM     12  C   UNL     1       6.092   3.434  12.352  0.00  0.00    +0.000 A 
ATOM     13  C   UNL     1       5.899   3.523  13.734  0.00  0.00    +0.000 A 
ENDBRANCH   4   8
ENDBRANCH   1   2
BRANCH   1  14
ATOM     14  C   UNL     1       2.965   4.228  18.630  0.00  0.00    +0.000 C 
BRANCH  14  23
ATOM     15  C   UNL     1       1.977   9.709  17.765  0.00  0.00    +0.000 C 
ATOM     16  C   UNL     1       1.639   9.010  19.058  0.00  0.00    +0.000 A 
ATOM     17  C   UNL     1       1.066   9.709  20.067  0.00  0.00    +0.000 A 
ATOM     18  C   UNL     1       0.712   9.097  21.339  0.00  0.00    +0.000 A 
ATOM     19 CL   UNL     1       0.001  10.071  22.563  0.00  0.00    +0.000 Cl
ATOM     20  C   UNL     1       0.946   7.793  21.528  0.00  0.00    +0.000 A 
ATOM     21  N   UNL     1       1.535   7.062  20.502  0.00  0.00    +0.000 N 
ATOM     22  C   UNL     1       1.866   5.730  20.461  0.00  0.00    +0.000 A 
ATOM     23  C   UNL     1       2.446   5.510  19.225  0.00  0.00    +0.000 A 
ATOM     24  N   UNL     1       2.450   6.691  18.500  0.00  0.00    +0.000 NA
ATOM     25  C   UNL     1       1.903   7.607  19.275  0.00  0.00    +0.000 A 
ENDBRANCH  14  23
ENDBRANCH   1  14
TORSDOF 4
ENDMDL
MODEL 4
REMARK VINA RESULT:      -7.3      2.826      3.887
REMARK  Name = 
REMARK  6 active torsions:
REMARK  status: ('A' for Active; 'I' for Inactive)
REMARK    1  A    between atoms: C_1  and  C_2
REMARK    2  A    between atoms: C_9  and  C_10
REMARK    3  A    between atoms: C_10  and  S_11
REMARK    4  A    between atoms: S_11  and  C_12
REMARK    5  A    between atoms: C_14  and  C_15
REMARK    6  A    between atoms: N_22  and  C_23
REMARK                            x       y       z     vdW  Elec       q    Type
REMARK                         _______ _______ _______ _____ _____    ______ ____
ROOT
ATOM      1  S   UNL     1       5.772   4.394  19.074  0.00  0.00    +0.000 S 
ENDROOT
BRANCH   1   2
ATOM      2  C   UNL     1       4.252   5.183  19.371  0.00  0.00    +0.000 A 
ATOM      3  N   UNL     1       3.971   6.439  19.090  0.00  0.00    +0.000 NA
ATOM      4  C   UNL     1       2.670   6.630  19.510  0.00  0.00    +0.000 A 
ATOM      5  C   UNL     1       2.161   5.466  20.040  0.00  0.00    +0.000 A 
ATOM      6  N   UNL     1       3.176   4.549  19.939  0.00  0.00    +0.000 N 
ATOM      7  C   UNL     1       3.055   3.173  20.352  0.00  0.00    +0.000 C 
BRANCH   4   8
ATOM      8  C   UNL     1       1.934   7.873  19.361  0.00  0.00    +0.000 A 
ATOM      9  C   UNL     1       1.293   8.435  20.471  0.00  0.00    +0.000 A 
ATOM     10  C   UNL     1       0.609   9.648  20.356  0.00  0.00    +0.000 A 
ATOM     11  C   UNL     1       0.550  10.306  19.128  0.00  0.00    +0.000 A 
ATOM     12  C   UNL     1       1.174   9.750  18.013  0.00  0.00    +0.000 A 
ATOM     13  C   UNL     1       1.863   8.540  18.129  0.00  0.00    +0.000 A 
ENDBRANCH   4   8
ENDBRANCH   1   2
BRANCH   1  14
ATOM     14  C   UNL     1       6.569   5.553  17.906  0.00  0.00    +0.000 C 
BRANCH  14  23
ATOM     15  C   UNL     1       8.709   5.892  12.703  0.00  0.00    +0.000 C 
ATOM     16  C   UNL     1       7.541   5.004  13.052  0.00  0.00    +0.000 A 
ATOM     17  C   UNL     1       6.970   4.240  12.090  0.00  0.00    +0.000 A 
ATOM     18  C   UNL     1       5.843   3.358  12.357  0.00  0.00    +0.000 A 
ATOM     19 CL   UNL     1       5.179   2.439  11.066  0.00  0.00    +0.000 Cl
ATOM     20  C   UNL     1       5.350   3.283  13.599  0.00  0.00    +0.000 A 
ATOM     21  N   UNL     1       5.925   4.062  14.598  0.00  0.00    +0.000 N 
ATOM     22  C   UNL     1       5.597   4.152  15.928  0.00  0.00    +0.000 A 
ATOM     23  C   UNL     1       6.456   5.085  16.479  0.00  0.00    +0.000 A 
ATOM     24  N   UNL     1       7.323   5.549  15.502  0.00  0.00    +0.000 NA
ATOM     25  C   UNL     1       6.993   4.928  14.385  0.00  0.00    +0.000 A 
ENDBRANCH  14  23
ENDBRANCH   1  14
TORSDOF 4
ENDMDL
MODEL 5
REMARK VINA RESULT:      -7.3      3.321      7.669
REMARK  Name = 
REMARK  6 active torsions:
REMARK  status: ('A' for Active; 'I' for Inactive)
REMARK    1  A    between atoms: C_1  and  C_2
REMARK    2  A    between atoms: C_9  and  C_10
REMARK    3  A    between atoms: C_10  and  S_11
REMARK    4  A    between atoms: S_11  and  C_12
REMARK    5  A    between atoms: C_14  and  C_15
REMARK    6  A    between atoms: N_22  and  C_23
REMARK                            x       y       z     vdW  Elec       q    Type
REMARK                         _______ _______ _______ _____ _____    ______ ____
ROOT
ATOM      1  S   UNL     1       3.786   5.904  18.848  0.00  0.00    +0.000 S 
ENDROOT
BRANCH   1   2
ATOM      2  C   UNL     1       5.030   5.447  17.723  0.00  0.00    +0.000 A 
ATOM      3  N   UNL     1       4.860   5.239  16.434  0.00  0.00    +0.000 NA
ATOM      4  C   UNL     1       6.103   4.884  15.950  0.00  0.00    +0.000 A 
ATOM      5  C   UNL     1       7.033   4.891  16.965  0.00  0.00    +0.000 A 
ATOM      6  N   UNL     1       6.339   5.258  18.089  0.00  0.00    +0.000 N 
ATOM      7  C   UNL     1       6.945   5.424  19.386  0.00  0.00    +0.000 C 
BRANCH   4   8
ATOM      8  C   UNL     1       6.390   4.597  14.555  0.00  0.00    +0.000 A 
ATOM      9  C   UNL     1       7.471   5.225  13.927  0.00  0.00    +0.000 A 
ATOM     10  C   UNL     1       7.784   4.935  12.596  0.00  0.00    +0.000 A 
ATOM     11  C   UNL     1       7.012   4.023  11.877  0.00  0.00    +0.000 A 
ATOM     12  C   UNL     1       5.925   3.401  12.488  0.00  0.00    +0.000 A 
ATOM     13  C   UNL     1       5.615   3.687  13.820  0.00  0.00    +0.000 A 
ENDBRANCH   4   8
ENDBRANCH   1   2
BRANCH   1  14
ATOM     14  C   UNL     1       2.978   7.286  17.964  0.00  0.00    +0.000 C 
BRANCH  14  23
ATOM     15  C   UNL     1      -0.000  12.040  18.510  0.00  0.00    +0.000 C 
ATOM     16  C   UNL     1       0.127  11.021  19.615  0.00  0.00    +0.000 A 
ATOM     17  C   UNL     1      -0.499  11.235  20.798  0.00  0.00    +0.000 A 
ATOM     18  C   UNL     1      -0.422  10.293  21.905  0.00  0.00    +0.000 A 
ATOM     19 CL   UNL     1      -1.240  10.661  23.370  0.00  0.00    +0.000 Cl
ATOM     20  C   UNL     1       0.284   9.166  21.758  0.00  0.00    +0.000 A 
ATOM     21  N   UNL     1       0.933   8.932  20.551  0.00  0.00    +0.000 N 
ATOM     22  C   UNL     1       1.703   7.862  20.169  0.00  0.00    +0.000 A 
ATOM     23  C   UNL     1       2.134   8.129  18.883  0.00  0.00    +0.000 A 
ATOM     24  N   UNL     1       1.613   9.344  18.465  0.00  0.00    +0.000 NA
ATOM     25  C   UNL     1       0.899   9.810  19.471  0.00  0.00    +0.000 A 
ENDBRANCH  14  23
ENDBRANCH   1  14
TORSDOF 4
ENDMDL
MODEL 6
REMARK VINA RESULT:      -7.2      2.818      3.755
REMARK  Name = 
REMARK  6 active torsions:
REMARK  status: ('A' for Active; 'I' for Inactive)
REMARK    1  A    between atoms: C_1  and  C_2
REMARK    2  A    between atoms: C_9  and  C_10
REMARK    3  A    between atoms: C_10  and  S_11
REMARK    4  A    between atoms: S_11  and  C_12
REMARK    5  A    between atoms: C_14  and  C_15
REMARK    6  A    between atoms: N_22  and  C_23
REMARK                            x       y       z     vdW  Elec       q    Type
REMARK                         _______ _______ _______ _____ _____    ______ ____
ROOT
ATOM      1  S   UNL     1       5.475   4.491  19.019  0.00  0.00    +0.000 S 
ENDROOT
BRANCH   1   2
ATOM      2  C   UNL     1       4.007   5.314  19.452  0.00  0.00    +0.000 A 
ATOM      3  N   UNL     1       3.718   6.568  19.172  0.00  0.00    +0.000 NA
ATOM      4  C   UNL     1       2.470   6.791  19.719  0.00  0.00    +0.000 A 
ATOM      5  C   UNL     1       2.001   5.648  20.327  0.00  0.00    +0.000 A 
ATOM      6  N   UNL     1       2.986   4.711  20.144  0.00  0.00    +0.000 N 
ATOM      7  C   UNL     1       2.888   3.347  20.599  0.00  0.00    +0.000 C 
BRANCH   4   8
ATOM      8  C   UNL     1       1.742   8.044  19.618  0.00  0.00    +0.000 A 
ATOM      9  C   UNL     1       1.697   8.722  18.394  0.00  0.00    +0.000 A 
ATOM     10  C   UNL     1       0.972   9.910  18.268  0.00  0.00    +0.000 A 
ATOM     11  C   UNL     1       0.294  10.437  19.366  0.00  0.00    +0.000 A 
ATOM     12  C   UNL     1       0.342   9.778  20.593  0.00  0.00    +0.000 A 
ATOM     13  C   UNL     1       1.062   8.587  20.718  0.00  0.00    +0.000 A 
ENDBRANCH   4   8
ENDBRANCH   1   2
BRANCH   1  14
ATOM     14  C   UNL     1       6.236   5.680  17.857  0.00  0.00    +0.000 C 
BRANCH  14  23
ATOM     15  C   UNL     1       8.744   5.890  12.814  0.00  0.00    +0.000 C 
ATOM     16  C   UNL     1       7.562   5.000  13.104  0.00  0.00    +0.000 A 
ATOM     17  C   UNL     1       7.068   4.203  12.126  0.00  0.00    +0.000 A 
ATOM     18  C   UNL     1       5.932   3.318  12.338  0.00  0.00    +0.000 A 
ATOM     19 CL   UNL     1       5.371   2.355  11.031  0.00  0.00    +0.000 Cl
ATOM     20  C   UNL     1       5.351   3.274  13.543  0.00  0.00    +0.000 A 
ATOM     21  N   UNL     1       5.845   4.087  14.557  0.00  0.00    +0.000 N 
ATOM     22  C   UNL     1       5.422   4.213  15.857  0.00  0.00    +0.000 A 
ATOM     23  C   UNL     1       6.231   5.170  16.440  0.00  0.00    +0.000 A 
ATOM     24  N   UNL     1       7.163   5.614  15.514  0.00  0.00    +0.000 NA
ATOM     25  C   UNL     1       6.919   4.958  14.396  0.00  0.00    +0.000 A 
ENDBRANCH  14  23
ENDBRANCH   1  14
TORSDOF 4
ENDMDL
MODEL 7
REMARK VINA RESULT:      -7.2      4.091      6.117
REMARK  Name = 
REMARK  6 active torsions:
REMARK  status: ('A' for Active; 'I' for Inactive)
REMARK    1  A    between atoms: C_1  and  C_2
REMARK    2  A    between atoms: C_9  and  C_10
REMARK    3  A    between atoms: C_10  and  S_11
REMARK    4  A    between atoms: S_11  and  C_12
REMARK    5  A    between atoms: C_14  and  C_15
REMARK    6  A    between atoms: N_22  and  C_23
REMARK                            x       y       z     vdW  Elec       q    Type
REMARK                         _______ _______ _______ _____ _____    ______ ____
ROOT
ATOM      1  S   UNL     1       1.358   9.832  21.312  0.00  0.00    +0.000 S 
ENDROOT
BRANCH   1   2
ATOM      2  C   UNL     1      -0.009  10.491  20.465  0.00  0.00    +0.000 A 
ATOM      3  N   UNL     1      -0.457  10.084  19.296  0.00  0.00    +0.000 NA
ATOM      4  C   UNL     1      -1.535  10.896  19.009  0.00  0.00    +0.000 A 
ATOM      5  C   UNL     1      -1.742  11.797  20.029  0.00  0.00    +0.000 A 
ATOM      6  N   UNL     1      -0.768  11.524  20.955  0.00  0.00    +0.000 N 
ATOM      7  C   UNL     1      -0.639  12.220  22.211  0.00  0.00    +0.000 C 
BRANCH   4   8
ATOM      8  C   UNL     1      -2.361  10.776  17.819  0.00  0.00    +0.000 A 
ATOM      9  C   UNL     1      -3.525  11.544  17.704  0.00  0.00    +0.000 A 
ATOM     10  C   UNL     1      -4.314  11.468  16.553  0.00  0.00    +0.000 A 
ATOM     11  C   UNL     1      -3.952  10.616  15.510  0.00  0.00    +0.000 A 
ATOM     12  C   UNL     1      -2.801   9.837  15.619  0.00  0.00    +0.000 A 
ATOM     13  C   UNL     1      -2.009   9.917  16.768  0.00  0.00    +0.000 A 
ENDBRANCH   4   8
ENDBRANCH   1   2
BRANCH   1  14
ATOM     14  C   UNL     1       0.853   8.088  21.529  0.00  0.00    +0.000 C 
BRANCH  14  23
ATOM     15  C   UNL     1       2.164   2.736  20.343  0.00  0.00    +0.000 C 
ATOM     16  C   UNL     1       2.626   3.899  19.501  0.00  0.00    +0.000 A 
ATOM     17  C   UNL     1       3.386   3.670  18.402  0.00  0.00    +0.000 A 
ATOM     18  C   UNL     1       3.863   4.744  17.544  0.00  0.00    +0.000 A 
ATOM     19 CL   UNL     1       4.832   4.352  16.180  0.00  0.00    +0.000 Cl
ATOM     20  C   UNL     1       3.538   6.009  17.834  0.00  0.00    +0.000 A 
ATOM     21  N   UNL     1       2.760   6.261  18.959  0.00  0.00    +0.000 N 
ATOM     22  C   UNL     1       2.304   7.458  19.452  0.00  0.00    +0.000 A 
ATOM     23  C   UNL     1       1.597   7.163  20.603  0.00  0.00    +0.000 A 
ATOM     24  N   UNL     1       1.596   5.792  20.805  0.00  0.00    +0.000 NA
ATOM     25  C   UNL     1       2.294   5.268  19.816  0.00  0.00    +0.000 A 
ENDBRANCH  14  23
ENDBRANCH   1  14
TORSDOF 4
ENDMDL
MODEL 8
REMARK VINA RESULT:      -7.1      2.682      7.234
REMARK  Name = 
REMARK  6 active torsions:
REMARK  status: ('A' for Active; 'I' for Inactive)
REMARK    1  A    between atoms: C_1  and  C_2
REMARK    2  A    between atoms: C_9  and  C_10
REMARK    3  A    between atoms: C_10  and  S_11
REMARK    4  A    between atoms: S_11  and  C_12
REMARK    5  A    between atoms: C_14  and  C_15
REMARK    6  A    between atoms: N_22  and  C_23
REMARK                            x       y       z     vdW  Elec       q    Type
REMARK                         _______ _______ _______ _____ _____    ______ ____
ROOT
ATOM      1  S   UNL     1       4.823   5.159  19.241  0.00  0.00    +0.000 S 
ENDROOT
BRANCH   1   2
ATOM      2  C   UNL     1       5.739   5.189  17.764  0.00  0.00    +0.000 A 
ATOM      3  N   UNL     1       5.367   4.656  16.619  0.00  0.00    +0.000 NA
ATOM      4  C   UNL     1       6.403   4.906  15.741  0.00  0.00    +0.000 A 
ATOM      5  C   UNL     1       7.405   5.610  16.369  0.00  0.00    +0.000 A 
ATOM      6  N   UNL     1       6.968   5.792  17.656  0.00  0.00    +0.000 N 
ATOM      7  C   UNL     1       7.706   6.519  18.658  0.00  0.00    +0.000 C 
BRANCH   4   8
ATOM      8  C   UNL     1       6.402   4.520  14.341  0.00  0.00    +0.000 A 
ATOM      9  C   UNL     1       7.446   4.939  13.507  0.00  0.00    +0.000 A 
ATOM     10  C   UNL     1       7.481   4.550  12.166  0.00  0.00    +0.000 A 
ATOM     11  C   UNL     1       6.468   3.748  11.641  0.00  0.00    +0.000 A 
ATOM     12  C   UNL     1       5.417   3.336  12.458  0.00  0.00    +0.000 A 
ATOM     13  C   UNL     1       5.384   3.720  13.801  0.00  0.00    +0.000 A 
ENDBRANCH   4   8
ENDBRANCH   1   2
BRANCH   1  14
ATOM     14  C   UNL     1       3.111   5.307  18.617  0.00  0.00    +0.000 C 
BRANCH  14  23
ATOM     15  C   UNL     1       0.654   8.903  22.195  0.00  0.00    +0.000 C 
ATOM     16  C   UNL     1       1.027   9.279  20.783  0.00  0.00    +0.000 A 
ATOM     17  C   UNL     1       0.775  10.533  20.335  0.00  0.00    +0.000 A 
ATOM     18  C   UNL     1       1.110  10.963  18.986  0.00  0.00    +0.000 A 
ATOM     19 CL   UNL     1       0.738  12.571  18.508  0.00  0.00    +0.000 Cl
ATOM     20  C   UNL     1       1.699  10.100  18.150  0.00  0.00    +0.000 A 
ATOM     21  N   UNL     1       1.964   8.809  18.594  0.00  0.00    +0.000 N 
ATOM     22  C   UNL     1       2.554   7.763  17.929  0.00  0.00    +0.000 A 
ATOM     23  C   UNL     1       2.557   6.695  18.806  0.00  0.00    +0.000 A 
ATOM     24  N   UNL     1       1.997   7.085  20.012  0.00  0.00    +0.000 NA
ATOM     25  C   UNL     1       1.648   8.349  19.869  0.00  0.00    +0.000 A 
ENDBRANCH  14  23
ENDBRANCH   1  14
TORSDOF 4
ENDMDL
MODEL 9
REMARK VINA RESULT:      -7.1      3.229      7.620
REMARK  Name = 
REMARK  6 active torsions:
REMARK  status: ('A' for Active; 'I' for Inactive)
REMARK    1  A    between atoms: C_1  and  C_2
REMARK    2  A    between atoms: C_9  and  C_10
REMARK    3  A    between atoms: C_10  and  S_11
REMARK    4  A    between atoms: S_11  and  C_12
REMARK    5  A    between atoms: C_14  and  C_15
REMARK    6  A    between atoms: N_22  and  C_23
REMARK                            x       y       z     vdW  Elec       q    Type
REMARK                         _______ _______ _______ _____ _____    ______ ____
ROOT
ATOM      1  S   UNL     1       4.002   6.093  18.961  0.00  0.00    +0.000 S 
ENDROOT
BRANCH   1   2
ATOM      2  C   UNL     1       5.206   5.581  17.816  0.00  0.00    +0.000 A 
ATOM      3  N   UNL     1       5.009   5.389  16.529  0.00  0.00    +0.000 NA
ATOM      4  C   UNL     1       6.227   4.975  16.026  0.00  0.00    +0.000 A 
ATOM      5  C   UNL     1       7.170   4.931  17.028  0.00  0.00    +0.000 A 
ATOM      6  N   UNL     1       6.510   5.326  18.163  0.00  0.00    +0.000 N 
ATOM      7  C   UNL     1       7.141   5.455  19.452  0.00  0.00    +0.000 C 
BRANCH   4   8
ATOM      8  C   UNL     1       6.479   4.681  14.626  0.00  0.00    +0.000 A 
ATOM      9  C   UNL     1       7.503   5.355  13.951  0.00  0.00    +0.000 A 
ATOM     10  C   UNL     1       7.785   5.061  12.614  0.00  0.00    +0.000 A 
ATOM     11  C   UNL     1       7.038   4.099  11.936  0.00  0.00    +0.000 A 
ATOM     12  C   UNL     1       6.007   3.430  12.593  0.00  0.00    +0.000 A 
ATOM     13  C   UNL     1       5.729   3.720  13.932  0.00  0.00    +0.000 A 
ENDBRANCH   4   8
ENDBRANCH   1   2
BRANCH   1  14
ATOM     14  C   UNL     1       2.729   6.809  17.862  0.00  0.00    +0.000 C 
BRANCH  14  23
ATOM     15  C   UNL     1       0.733   9.206  22.556  0.00  0.00    +0.000 C 
ATOM     16  C   UNL     1       0.755   9.910  21.223  0.00  0.00    +0.000 A 
ATOM     17  C   UNL     1       0.285  11.178  21.127  0.00  0.00    +0.000 A 
ATOM     18  C   UNL     1       0.280  11.917  19.873  0.00  0.00    +0.000 A 
ATOM     19 CL   UNL     1      -0.350  13.515  19.851  0.00  0.00    +0.000 Cl
ATOM     20  C   UNL     1       0.763  11.337  18.768  0.00  0.00    +0.000 A 
ATOM     21  N   UNL     1       1.247  10.036  18.850  0.00  0.00    +0.000 N 
ATOM     22  C   UNL     1       1.787   9.245  17.866  0.00  0.00    +0.000 A 
ATOM     23  C   UNL     1       2.088   8.033  18.460  0.00  0.00    +0.000 A 
ATOM     24  N   UNL     1       1.760   8.085  19.807  0.00  0.00    +0.000 NA
ATOM     25  C   UNL     1       1.260   9.287  20.022  0.00  0.00    +0.000 A 
ENDBRANCH  14  23
ENDBRANCH   1  14
TORSDOF 4
ENDMDL
