MODEL 1
REMARK VINA RESULT:      -8.6      0.000      0.000
REMARK  Name = 
REMARK  5 active torsions:
REMARK  status: ('A' for Active; 'I' for Inactive)
REMARK    1  A    between atoms: C_2  and  OXT_3
REMARK    2  A    between atoms: C_2  and  CA_4
REMARK    3  A    between atoms: C_11  and  C_12
REMARK    4  A    between atoms: C_12  and  C_13
REMARK    5  A    between atoms: C_13  and  C_14
REMARK                            x       y       z     vdW  Elec       q    Type
REMARK                         _______ _______ _______ _____ _____    ______ ____
ROOT
ATOM      1  CA  UNL     1       2.490   3.051  19.275  0.00  0.00    +0.000 A 
ATOM      2  N   UNL     1       3.292   2.042  19.754  0.00  0.00    +0.000 N 
ATOM      3  C   UNL     1       4.630   2.168  19.963  0.00  0.00    +0.000 A 
ATOM      4  O   UNL     1       5.289   1.320  20.558  0.00  0.00    +0.000 OA
ATOM      5  N   UNL     1       5.187   3.312  19.477  0.00  0.00    +0.000 N 
ATOM      6  C   UNL     1       4.506   4.306  18.846  0.00  0.00    +0.000 A 
ATOM      7  O   UNL     1       5.085   5.231  18.290  0.00  0.00    +0.000 OA
ATOM      8  C   UNL     1       3.016   4.232  18.896  0.00  0.00    +0.000 A 
ATOM      9  H   UNL     1       2.832   1.228  20.158  0.00  0.00    +0.000 HD
ATOM     10  H   UNL     1       6.192   3.388  19.517  0.00  0.00    +0.000 HD
ENDROOT
BRANCH   1  12
ATOM     11  O   UNL     1       0.263   2.440  18.518  0.00  0.00    +0.000 OA
ATOM     12  C   UNL     1       1.015   2.845  19.378  0.00  0.00    +0.000 C 
BRANCH  12  13
ATOM     13  OXT UNL     1       0.588   3.246  20.592  0.00  0.00    +0.000 OA
ATOM     14  HXT UNL     1       1.094   2.685  21.218  0.00  0.00    +0.000 HD
ENDBRANCH  12  13
ENDBRANCH   1  12
BRANCH   8  15
ATOM     15  C   UNL     1       2.285   5.539  18.717  0.00  0.00    +0.000 C 
BRANCH  15  16
ATOM     16  C   UNL     1       2.281   6.464  19.931  0.00  0.00    +0.000 C 
BRANCH  16  17
ATOM     17  C   UNL     1       1.879   7.873  19.526  0.00  0.00    +0.000 A 
ATOM     18  C   UNL     1       2.195   8.287  18.219  0.00  0.00    +0.000 A 
ATOM     19  C   UNL     1       1.863   9.561  17.776  0.00  0.00    +0.000 A 
ATOM     20  C   UNL     1       1.202  10.441  18.628  0.00  0.00    +0.000 A 
ATOM     21  C   UNL     1       0.845  10.055  19.928  0.00  0.00    +0.000 A 
ATOM     22  C   UNL     1       0.164  10.955  20.762  0.00  0.00    +0.000 A 
ATOM     23  C   UNL     1      -0.219  10.591  22.052  0.00  0.00    +0.000 A 
ATOM     24  C   UNL     1       0.076   9.317  22.522  0.00  0.00    +0.000 A 
ATOM     25  C   UNL     1       0.763   8.415  21.706  0.00  0.00    +0.000 A 
ATOM     26  C   UNL     1       1.171   8.755  20.394  0.00  0.00    +0.000 A 
ENDBRANCH  16  17
ENDBRANCH  15  16
ENDBRANCH   8  15
TORSDOF 5
ENDMDL
MODEL 2
REMARK VINA RESULT:      -8.3      2.793      5.183
REMARK  Name = 
REMARK  5 active torsions:
REMARK  status: ('A' for Active; 'I' for Inactive)
REMARK    1  A    between atoms: C_2  and  OXT_3
REMARK    2  A    between atoms: C_2  and  CA_4
REMARK    3  A    between atoms: C_11  and  C_12
REMARK    4  A    between atoms: C_12  and  C_13
REMARK    5  A    between atoms: C_13  and  C_14
REMARK                            x       y       z     vdW  Elec       q    Type
REMARK                         _______ _______ _______ _____ _____    ______ ____
ROOT
ATOM      1  CA  UNL     1       5.913   5.601  16.839  0.00  0.00    +0.000 A 
ATOM      2  N   UNL     1       6.914   6.399  17.341  0.00  0.00    +0.000 N 
ATOM      3  C   UNL     1       7.506   6.206  18.550  0.00  0.00    +0.000 A 
ATOM      4  O   UNL     1       8.514   6.815  18.897  0.00  0.00    +0.000 OA
ATOM      5  N   UNL     1       6.909   5.275  19.346  0.00  0.00    +0.000 N 
ATOM      6  C   UNL     1       5.817   4.539  19.004  0.00  0.00    +0.000 A 
ATOM      7  O   UNL     1       5.231   3.839  19.820  0.00  0.00    +0.000 OA
ATOM      8  C   UNL     1       5.390   4.601  17.575  0.00  0.00    +0.000 A 
ATOM      9  H   UNL     1       7.369   7.043  16.697  0.00  0.00    +0.000 HD
ATOM     10  H   UNL     1       7.255   5.185  20.289  0.00  0.00    +0.000 HD
ENDROOT
BRANCH   1  12
ATOM     11  O   UNL     1       5.836   5.017  14.481  0.00  0.00    +0.000 OA
ATOM     12  C   UNL     1       5.577   5.771  15.394  0.00  0.00    +0.000 C 
BRANCH  12  13
ATOM     13  OXT UNL     1       4.972   6.961  15.210  0.00  0.00    +0.000 OA
ATOM     14  HXT UNL     1       4.662   6.927  14.279  0.00  0.00    +0.000 HD
ENDBRANCH  12  13
ENDBRANCH   1  12
BRANCH   8  15
ATOM     15  C   UNL     1       4.590   3.424  17.075  0.00  0.00    +0.000 C 
BRANCH  15  16
ATOM     16  C   UNL     1       3.090   3.665  16.924  0.00  0.00    +0.000 C 
BRANCH  16  17
ATOM     17  C   UNL     1       2.432   3.800  18.287  0.00  0.00    +0.000 A 
ATOM     18  C   UNL     1       2.063   2.615  18.950  0.00  0.00    +0.000 A 
ATOM     19  C   UNL     1       1.454   2.658  20.198  0.00  0.00    +0.000 A 
ATOM     20  C   UNL     1       1.210   3.884  20.809  0.00  0.00    +0.000 A 
ATOM     21  C   UNL     1       1.589   5.085  20.192  0.00  0.00    +0.000 A 
ATOM     22  C   UNL     1       1.347   6.309  20.837  0.00  0.00    +0.000 A 
ATOM     23  C   UNL     1       1.730   7.516  20.254  0.00  0.00    +0.000 A 
ATOM     24  C   UNL     1       2.361   7.512  19.017  0.00  0.00    +0.000 A 
ATOM     25  C   UNL     1       2.598   6.302  18.359  0.00  0.00    +0.000 A 
ATOM     26  C   UNL     1       2.218   5.060  18.920  0.00  0.00    +0.000 A 
ENDBRANCH  16  17
ENDBRANCH  15  16
ENDBRANCH   8  15
TORSDOF 5
ENDMDL
MODEL 3
REMARK VINA RESULT:      -8.2      2.762      4.947
REMARK  Name = 
REMARK  5 active torsions:
REMARK  status: ('A' for Active; 'I' for Inactive)
REMARK    1  A    between atoms: C_2  and  OXT_3
REMARK    2  A    between atoms: C_2  and  CA_4
REMARK    3  A    between atoms: C_11  and  C_12
REMARK    4  A    between atoms: C_12  and  C_13
REMARK    5  A    between atoms: C_13  and  C_14
REMARK                            x       y       z     vdW  Elec       q    Type
REMARK                         _______ _______ _______ _____ _____    ______ ____
ROOT
ATOM      1  CA  UNL     1       5.835   4.565  17.939  0.00  0.00    +0.000 A 
ATOM      2  N   UNL     1       6.677   5.650  17.866  0.00  0.00    +0.000 N 
ATOM      3  C   UNL     1       6.966   6.312  16.714  0.00  0.00    +0.000 A 
ATOM      4  O   UNL     1       7.571   7.381  16.700  0.00  0.00    +0.000 OA
ATOM      5  N   UNL     1       6.524   5.712  15.574  0.00  0.00    +0.000 N 
ATOM      6  C   UNL     1       5.815   4.552  15.526  0.00  0.00    +0.000 A 
ATOM      7  O   UNL     1       5.588   3.980  14.467  0.00  0.00    +0.000 OA
ATOM      8  C   UNL     1       5.298   4.030  16.825  0.00  0.00    +0.000 A 
ATOM      9  H   UNL     1       6.938   6.100  18.741  0.00  0.00    +0.000 HD
ATOM     10  H   UNL     1       6.815   6.117  14.698  0.00  0.00    +0.000 HD
ENDROOT
BRANCH   1  12
ATOM     11  O   UNL     1       5.208   3.011  19.700  0.00  0.00    +0.000 OA
ATOM     12  C   UNL     1       5.400   4.140  19.302  0.00  0.00    +0.000 C 
BRANCH  12  13
ATOM     13  OXT UNL     1       5.173   5.230  20.062  0.00  0.00    +0.000 OA
ATOM     14  HXT UNL     1       5.102   5.962  19.411  0.00  0.00    +0.000 HD
ENDBRANCH  12  13
ENDBRANCH   1  12
BRANCH   8  15
ATOM     15  C   UNL     1       4.099   3.119  16.739  0.00  0.00    +0.000 C 
BRANCH  15  16
ATOM     16  C   UNL     1       2.742   3.817  16.711  0.00  0.00    +0.000 C 
BRANCH  16  17
ATOM     17  C   UNL     1       2.174   3.934  18.116  0.00  0.00    +0.000 A 
ATOM     18  C   UNL     1       1.766   2.747  18.751  0.00  0.00    +0.000 A 
ATOM     19  C   UNL     1       1.235   2.773  20.034  0.00  0.00    +0.000 A 
ATOM     20  C   UNL     1       1.108   3.984  20.708  0.00  0.00    +0.000 A 
ATOM     21  C   UNL     1       1.529   5.185  20.118  0.00  0.00    +0.000 A 
ATOM     22  C   UNL     1       1.406   6.392  20.825  0.00  0.00    +0.000 A 
ATOM     23  C   UNL     1       1.833   7.597  20.269  0.00  0.00    +0.000 A 
ATOM     24  C   UNL     1       2.391   7.607  18.997  0.00  0.00    +0.000 A 
ATOM     25  C   UNL     1       2.509   6.415  18.278  0.00  0.00    +0.000 A 
ATOM     26  C   UNL     1       2.081   5.176  18.811  0.00  0.00    +0.000 A 
ENDBRANCH  16  17
ENDBRANCH  15  16
ENDBRANCH   8  15
TORSDOF 5
ENDMDL
MODEL 4
REMARK VINA RESULT:      -8.1      3.186      6.541
REMARK  Name = 
REMARK  5 active torsions:
REMARK  status: ('A' for Active; 'I' for Inactive)
REMARK    1  A    between atoms: C_2  and  OXT_3
REMARK    2  A    between atoms: C_2  and  CA_4
REMARK    3  A    between atoms: C_11  and  C_12
REMARK    4  A    between atoms: C_12  and  C_13
REMARK    5  A    between atoms: C_13  and  C_14
REMARK                            x       y       z     vdW  Elec       q    Type
REMARK                         _______ _______ _______ _____ _____    ______ ____
ROOT
ATOM      1  CA  UNL     1       2.001   5.324  20.277  0.00  0.00    +0.000 A 
ATOM      2  N   UNL     1       1.620   6.389  21.060  0.00  0.00    +0.000 N 
ATOM      3  C   UNL     1       1.562   7.674  20.619  0.00  0.00    +0.000 A 
ATOM      4  O   UNL     1       1.049   8.575  21.277  0.00  0.00    +0.000 OA
ATOM      5  N   UNL     1       2.101   7.890  19.387  0.00  0.00    +0.000 N 
ATOM      6  C   UNL     1       2.646   6.928  18.593  0.00  0.00    +0.000 A 
ATOM      7  O   UNL     1       3.259   7.208  17.571  0.00  0.00    +0.000 OA
ATOM      8  C   UNL     1       2.429   5.512  19.014  0.00  0.00    +0.000 A 
ATOM      9  H   UNL     1       1.172   6.181  21.950  0.00  0.00    +0.000 HD
ATOM     10  H   UNL     1       2.173   8.846  19.076  0.00  0.00    +0.000 HD
ENDROOT
BRANCH   1  12
ATOM     11  O   UNL     1       2.488   3.258  21.461  0.00  0.00    +0.000 OA
ATOM     12  C   UNL     1       1.734   3.960  20.820  0.00  0.00    +0.000 C 
BRANCH  12  13
ATOM     13  OXT UNL     1       0.507   3.554  20.438  0.00  0.00    +0.000 OA
ATOM     14  HXT UNL     1       0.685   2.827  19.803  0.00  0.00    +0.000 HD
ENDBRANCH  12  13
ENDBRANCH   1  12
BRANCH   8  15
ATOM     15  C   UNL     1       2.519   4.479  17.919  0.00  0.00    +0.000 C 
BRANCH  15  16
ATOM     16  C   UNL     1       3.690   3.506  18.025  0.00  0.00    +0.000 C 
BRANCH  16  17
ATOM     17  C   UNL     1       5.010   4.243  17.863  0.00  0.00    +0.000 A 
ATOM     18  C   UNL     1       5.616   4.751  19.026  0.00  0.00    +0.000 A 
ATOM     19  C   UNL     1       6.821   5.438  18.959  0.00  0.00    +0.000 A 
ATOM     20  C   UNL     1       7.446   5.624  17.729  0.00  0.00    +0.000 A 
ATOM     21  C   UNL     1       6.887   5.107  16.551  0.00  0.00    +0.000 A 
ATOM     22  C   UNL     1       7.546   5.292  15.325  0.00  0.00    +0.000 A 
ATOM     23  C   UNL     1       7.021   4.774  14.142  0.00  0.00    +0.000 A 
ATOM     24  C   UNL     1       5.829   4.062  14.173  0.00  0.00    +0.000 A 
ATOM     25  C   UNL     1       5.158   3.879  15.385  0.00  0.00    +0.000 A 
ATOM     26  C   UNL     1       5.660   4.396  16.603  0.00  0.00    +0.000 A 
ENDBRANCH  16  17
ENDBRANCH  15  16
ENDBRANCH   8  15
TORSDOF 5
ENDMDL
MODEL 5
REMARK VINA RESULT:      -8.1      3.710      5.767
REMARK  Name = 
REMARK  5 active torsions:
REMARK  status: ('A' for Active; 'I' for Inactive)
REMARK    1  A    between atoms: C_2  and  OXT_3
REMARK    2  A    between atoms: C_2  and  CA_4
REMARK    3  A    between atoms: C_11  and  C_12
REMARK    4  A    between atoms: C_12  and  C_13
REMARK    5  A    between atoms: C_13  and  C_14
REMARK                            x       y       z     vdW  Elec       q    Type
REMARK                         _______ _______ _______ _____ _____    ______ ____
ROOT
ATOM      1  CA  UNL     1       2.633   3.101  20.216  0.00  0.00    +0.000 A 
ATOM      2  N   UNL     1       3.446   2.471  21.130  0.00  0.00    +0.000 N 
ATOM      3  C   UNL     1       4.562   1.768  20.797  0.00  0.00    +0.000 A 
ATOM      4  O   UNL     1       5.367   1.371  21.634  0.00  0.00    +0.000 OA
ATOM      5  N   UNL     1       4.731   1.546  19.463  0.00  0.00    +0.000 N 
ATOM      6  C   UNL     1       3.898   1.993  18.485  0.00  0.00    +0.000 A 
ATOM      7  O   UNL     1       4.014   1.626  17.323  0.00  0.00    +0.000 OA
ATOM      8  C   UNL     1       2.857   2.982  18.893  0.00  0.00    +0.000 A 
ATOM      9  H   UNL     1       3.320   2.708  22.112  0.00  0.00    +0.000 HD
ATOM     10  H   UNL     1       5.486   0.937  19.190  0.00  0.00    +0.000 HD
ENDROOT
BRANCH   1  12
ATOM     11  O   UNL     1       1.833   5.149  21.252  0.00  0.00    +0.000 OA
ATOM     12  C   UNL     1       1.627   4.060  20.760  0.00  0.00    +0.000 C 
BRANCH  12  13
ATOM     13  OXT UNL     1       0.398   3.511  20.691  0.00  0.00    +0.000 OA
ATOM     14  HXT UNL     1      -0.190   4.196  21.075  0.00  0.00    +0.000 HD
ENDBRANCH  12  13
ENDBRANCH   1  12
BRANCH   8  15
ATOM     15  C   UNL     1       2.329   3.873  17.797  0.00  0.00    +0.000 C 
BRANCH  15  16
ATOM     16  C   UNL     1       2.895   5.291  17.770  0.00  0.00    +0.000 C 
BRANCH  16  17
ATOM     17  C   UNL     1       4.413   5.259  17.836  0.00  0.00    +0.000 A 
ATOM     18  C   UNL     1       5.012   5.492  19.087  0.00  0.00    +0.000 A 
ATOM     19  C   UNL     1       6.394   5.481  19.228  0.00  0.00    +0.000 A 
ATOM     20  C   UNL     1       7.202   5.232  18.121  0.00  0.00    +0.000 A 
ATOM     21  C   UNL     1       6.641   4.968  16.864  0.00  0.00    +0.000 A 
ATOM     22  C   UNL     1       7.476   4.702  15.767  0.00  0.00    +0.000 A 
ATOM     23  C   UNL     1       6.943   4.419  14.510  0.00  0.00    +0.000 A 
ATOM     24  C   UNL     1       5.565   4.398  14.337  0.00  0.00    +0.000 A 
ATOM     25  C   UNL     1       4.723   4.671  15.417  0.00  0.00    +0.000 A 
ATOM     26  C   UNL     1       5.230   4.967  16.704  0.00  0.00    +0.000 A 
ENDBRANCH  16  17
ENDBRANCH  15  16
ENDBRANCH   8  15
TORSDOF 5
ENDMDL
MODEL 6
REMARK VINA RESULT:      -8.1      1.567      2.188
REMARK  Name = 
REMARK  5 active torsions:
REMARK  status: ('A' for Active; 'I' for Inactive)
REMARK    1  A    between atoms: C_2  and  OXT_3
REMARK    2  A    between atoms: C_2  and  CA_4
REMARK    3  A    between atoms: C_11  and  C_12
REMARK    4  A    between atoms: C_12  and  C_13
REMARK    5  A    between atoms: C_13  and  C_14
REMARK                            x       y       z     vdW  Elec       q    Type
REMARK                         _______ _______ _______ _____ _____    ______ ____
ROOT
ATOM      1  CA  UNL     1       4.375   4.075  18.511  0.00  0.00    +0.000 A 
ATOM      2  N   UNL     1       5.720   3.785  18.480  0.00  0.00    +0.000 N 
ATOM      3  C   UNL     1       6.674   4.647  18.039  0.00  0.00    +0.000 A 
ATOM      4  O   UNL     1       7.874   4.438  18.190  0.00  0.00    +0.000 OA
ATOM      5  N   UNL     1       6.203   5.771  17.428  0.00  0.00    +0.000 N 
ATOM      6  C   UNL     1       4.888   6.079  17.267  0.00  0.00    +0.000 A 
ATOM      7  O   UNL     1       4.528   7.019  16.570  0.00  0.00    +0.000 OA
ATOM      8  C   UNL     1       3.907   5.235  18.012  0.00  0.00    +0.000 A 
ATOM      9  H   UNL     1       6.035   2.965  18.995  0.00  0.00    +0.000 HD
ATOM     10  H   UNL     1       6.880   6.377  16.994  0.00  0.00    +0.000 HD
ENDROOT
BRANCH   1  12
ATOM     11  O   UNL     1       3.411   3.044  20.489  0.00  0.00    +0.000 OA
ATOM     12  C   UNL     1       3.503   3.143  19.285  0.00  0.00    +0.000 C 
BRANCH  12  13
ATOM     13  OXT UNL     1       2.838   2.338  18.433  0.00  0.00    +0.000 OA
ATOM     14  HXT UNL     1       3.041   1.433  18.755  0.00  0.00    +0.000 HD
ENDBRANCH  12  13
ENDBRANCH   1  12
BRANCH   8  15
ATOM     15  C   UNL     1       2.569   5.873  18.293  0.00  0.00    +0.000 C 
BRANCH  15  16
ATOM     16  C   UNL     1       2.472   6.653  19.601  0.00  0.00    +0.000 C 
BRANCH  16  17
ATOM     17  C   UNL     1       1.932   8.051  19.348  0.00  0.00    +0.000 A 
ATOM     18  C   UNL     1       2.116   8.595  18.064  0.00  0.00    +0.000 A 
ATOM     19  C   UNL     1       1.653   9.869  17.757  0.00  0.00    +0.000 A 
ATOM     20  C   UNL     1       0.990  10.618  18.725  0.00  0.00    +0.000 A 
ATOM     21  C   UNL     1       0.763  10.099  20.008  0.00  0.00    +0.000 A 
ATOM     22  C   UNL     1       0.077  10.867  20.962  0.00  0.00    +0.000 A 
ATOM     23  C   UNL     1      -0.178  10.368  22.239  0.00  0.00    +0.000 A 
ATOM     24  C   UNL     1       0.251   9.090  22.575  0.00  0.00    +0.000 A 
ATOM     25  C   UNL     1       0.943   8.318  21.638  0.00  0.00    +0.000 A 
ATOM     26  C   UNL     1       1.223   8.797  20.336  0.00  0.00    +0.000 A 
ENDBRANCH  16  17
ENDBRANCH  15  16
ENDBRANCH   8  15
TORSDOF 5
ENDMDL
MODEL 7
REMARK VINA RESULT:      -8.0      2.993      5.870
REMARK  Name = 
REMARK  5 active torsions:
REMARK  status: ('A' for Active; 'I' for Inactive)
REMARK    1  A    between atoms: C_2  and  OXT_3
REMARK    2  A    between atoms: C_2  and  CA_4
REMARK    3  A    between atoms: C_11  and  C_12
REMARK    4  A    between atoms: C_12  and  C_13
REMARK    5  A    between atoms: C_13  and  C_14
REMARK                            x       y       z     vdW  Elec       q    Type
REMARK                         _______ _______ _______ _____ _____    ______ ____
ROOT
ATOM      1  CA  UNL     1       2.000   5.090  20.189  0.00  0.00    +0.000 A 
ATOM      2  N   UNL     1       1.712   6.124  21.050  0.00  0.00    +0.000 N 
ATOM      3  C   UNL     1       1.674   7.432  20.683  0.00  0.00    +0.000 A 
ATOM      4  O   UNL     1       1.240   8.313  21.420  0.00  0.00    +0.000 OA
ATOM      5  N   UNL     1       2.139   7.696  19.429  0.00  0.00    +0.000 N 
ATOM      6  C   UNL     1       2.594   6.762  18.552  0.00  0.00    +0.000 A 
ATOM      7  O   UNL     1       3.148   7.076  17.506  0.00  0.00    +0.000 OA
ATOM      8  C   UNL     1       2.352   5.333  18.911  0.00  0.00    +0.000 A 
ATOM      9  H   UNL     1       1.316   5.882  21.957  0.00  0.00    +0.000 HD
ATOM     10  H   UNL     1       2.227   8.665  19.166  0.00  0.00    +0.000 HD
ENDROOT
BRANCH   1  12
ATOM     11  O   UNL     1       2.493   2.938  21.205  0.00  0.00    +0.000 OA
ATOM     12  C   UNL     1       1.719   3.708  20.677  0.00  0.00    +0.000 C 
BRANCH  12  13
ATOM     13  OXT UNL     1       0.445   3.379  20.387  0.00  0.00    +0.000 OA
ATOM     14  HXT UNL     1       0.087   4.181  19.947  0.00  0.00    +0.000 HD
ENDBRANCH  12  13
ENDBRANCH   1  12
BRANCH   8  15
ATOM     15  C   UNL     1       2.330   4.359  17.760  0.00  0.00    +0.000 C 
BRANCH  15  16
ATOM     16  C   UNL     1       3.546   3.443  17.648  0.00  0.00    +0.000 C 
BRANCH  16  17
ATOM     17  C   UNL     1       4.678   4.148  16.918  0.00  0.00    +0.000 A 
ATOM     18  C   UNL     1       4.642   4.148  15.512  0.00  0.00    +0.000 A 
ATOM     19  C   UNL     1       5.642   4.769  14.775  0.00  0.00    +0.000 A 
ATOM     20  C   UNL     1       6.692   5.407  15.429  0.00  0.00    +0.000 A 
ATOM     21  C   UNL     1       6.748   5.451  16.830  0.00  0.00    +0.000 A 
ATOM     22  C   UNL     1       7.809   6.115  17.467  0.00  0.00    +0.000 A 
ATOM     23  C   UNL     1       7.879   6.190  18.857  0.00  0.00    +0.000 A 
ATOM     24  C   UNL     1       6.885   5.600  19.627  0.00  0.00    +0.000 A 
ATOM     25  C   UNL     1       5.829   4.927  19.007  0.00  0.00    +0.000 A 
ATOM     26  C   UNL     1       5.731   4.828  17.599  0.00  0.00    +0.000 A 
ENDBRANCH  16  17
ENDBRANCH  15  16
ENDBRANCH   8  15
TORSDOF 5
ENDMDL
MODEL 8
REMARK VINA RESULT:      -7.8      3.135      5.562
REMARK  Name = 
REMARK  5 active torsions:
REMARK  status: ('A' for Active; 'I' for Inactive)
REMARK    1  A    between atoms: C_2  and  OXT_3
REMARK    2  A    between atoms: C_2  and  CA_4
REMARK    3  A    between atoms: C_11  and  C_12
REMARK    4  A    between atoms: C_12  and  C_13
REMARK    5  A    between atoms: C_13  and  C_14
REMARK                            x       y       z     vdW  Elec       q    Type
REMARK                         _______ _______ _______ _____ _____    ______ ____
ROOT
ATOM      1  CA  UNL     1       3.268   2.736  20.140  0.00  0.00    +0.000 A 
ATOM      2  N   UNL     1       2.734   2.785  21.407  0.00  0.00    +0.000 N 
ATOM      3  C   UNL     1       1.423   2.561  21.689  0.00  0.00    +0.000 A 
ATOM      4  O   UNL     1       1.007   2.431  22.837  0.00  0.00    +0.000 OA
ATOM      5  N   UNL     1       0.602   2.477  20.605  0.00  0.00    +0.000 N 
ATOM      6  C   UNL     1       1.008   2.572  19.310  0.00  0.00    +0.000 A 
ATOM      7  O   UNL     1       0.205   2.650  18.388  0.00  0.00    +0.000 OA
ATOM      8  C   UNL     1       2.480   2.539  19.065  0.00  0.00    +0.000 A 
ATOM      9  H   UNL     1       3.385   2.793  22.190  0.00  0.00    +0.000 HD
ATOM     10  H   UNL     1      -0.389   2.421  20.780  0.00  0.00    +0.000 HD
ENDROOT
BRANCH   1  12
ATOM     11  O   UNL     1       5.487   3.630  19.716  0.00  0.00    +0.000 OA
ATOM     12  C   UNL     1       4.756   2.718  20.036  0.00  0.00    +0.000 C 
BRANCH  12  13
ATOM     13  OXT UNL     1       5.210   1.476  20.297  0.00  0.00    +0.000 OA
ATOM     14  HXT UNL     1       5.930   1.344  19.642  0.00  0.00    +0.000 HD
ENDBRANCH  12  13
ENDBRANCH   1  12
BRANCH   8  15
ATOM     15  C   UNL     1       2.910   2.088  17.692  0.00  0.00    +0.000 C 
BRANCH  15  16
ATOM     16  C   UNL     1       2.758   3.124  16.581  0.00  0.00    +0.000 C 
BRANCH  16  17
ATOM     17  C   UNL     1       3.244   4.485  17.052  0.00  0.00    +0.000 A 
ATOM     18  C   UNL     1       2.314   5.314  17.706  0.00  0.00    +0.000 A 
ATOM     19  C   UNL     1       2.682   6.574  18.164  0.00  0.00    +0.000 A 
ATOM     20  C   UNL     1       3.987   7.024  17.982  0.00  0.00    +0.000 A 
ATOM     21  C   UNL     1       4.949   6.215  17.359  0.00  0.00    +0.000 A 
ATOM     22  C   UNL     1       6.262   6.685  17.203  0.00  0.00    +0.000 A 
ATOM     23  C   UNL     1       7.242   5.894  16.604  0.00  0.00    +0.000 A 
ATOM     24  C   UNL     1       6.917   4.621  16.154  0.00  0.00    +0.000 A 
ATOM     25  C   UNL     1       5.611   4.145  16.294  0.00  0.00    +0.000 A 
ATOM     26  C   UNL     1       4.592   4.923  16.892  0.00  0.00    +0.000 A 
ENDBRANCH  16  17
ENDBRANCH  15  16
ENDBRANCH   8  15
TORSDOF 5
ENDMDL
MODEL 9
REMARK VINA RESULT:      -7.8      2.929      4.920
REMARK  Name = 
REMARK  5 active torsions:
REMARK  status: ('A' for Active; 'I' for Inactive)
REMARK    1  A    between atoms: C_2  and  OXT_3
REMARK    2  A    between atoms: C_2  and  CA_4
REMARK    3  A    between atoms: C_11  and  C_12
REMARK    4  A    between atoms: C_12  and  C_13
REMARK    5  A    between atoms: C_13  and  C_14
REMARK                            x       y       z     vdW  Elec       q    Type
REMARK                         _______ _______ _______ _____ _____    ______ ____
ROOT
ATOM      1  CA  UNL     1       6.743   5.899  16.717  0.00  0.00    +0.000 A 
ATOM      2  N   UNL     1       7.309   5.564  15.508  0.00  0.00    +0.000 N 
ATOM      3  C   UNL     1       6.703   4.784  14.574  0.00  0.00    +0.000 A 
ATOM      4  O   UNL     1       7.146   4.650  13.437  0.00  0.00    +0.000 OA
ATOM      5  N   UNL     1       5.558   4.171  14.985  0.00  0.00    +0.000 N 
ATOM      6  C   UNL     1       4.995   4.312  16.216  0.00  0.00    +0.000 A 
ATOM      7  O   UNL     1       4.059   3.612  16.579  0.00  0.00    +0.000 OA
ATOM      8  C   UNL     1       5.554   5.387  17.088  0.00  0.00    +0.000 A 
ATOM      9  H   UNL     1       8.134   6.086  15.216  0.00  0.00    +0.000 HD
ATOM     10  H   UNL     1       5.143   3.502  14.357  0.00  0.00    +0.000 HD
ENDROOT
BRANCH   1  12
ATOM     11  O   UNL     1       7.519   8.153  17.187  0.00  0.00    +0.000 OA
ATOM     12  C   UNL     1       7.408   6.986  17.494  0.00  0.00    +0.000 C 
BRANCH  12  13
ATOM     13  OXT UNL     1       7.955   6.469  18.612  0.00  0.00    +0.000 OA
ATOM     14  HXT UNL     1       8.526   5.742  18.283  0.00  0.00    +0.000 HD
ENDBRANCH  12  13
ENDBRANCH   1  12
BRANCH   8  15
ATOM     15  C   UNL     1       4.631   5.913  18.158  0.00  0.00    +0.000 C 
BRANCH  15  16
ATOM     16  C   UNL     1       3.512   6.831  17.671  0.00  0.00    +0.000 C 
BRANCH  16  17
ATOM     17  C   UNL     1       2.606   7.224  18.827  0.00  0.00    +0.000 A 
ATOM     18  C   UNL     1       2.420   6.283  19.855  0.00  0.00    +0.000 A 
ATOM     19  C   UNL     1       1.604   6.568  20.943  0.00  0.00    +0.000 A 
ATOM     20  C   UNL     1       0.965   7.802  21.025  0.00  0.00    +0.000 A 
ATOM     21  C   UNL     1       1.148   8.777  20.034  0.00  0.00    +0.000 A 
ATOM     22  C   UNL     1       0.506  10.020  20.148  0.00  0.00    +0.000 A 
ATOM     23  C   UNL     1       0.685  11.013  19.186  0.00  0.00    +0.000 A 
ATOM     24  C   UNL     1       1.512  10.772  18.096  0.00  0.00    +0.000 A 
ATOM     25  C   UNL     1       2.148   9.535  17.964  0.00  0.00    +0.000 A 
ATOM     26  C   UNL     1       1.984   8.504  18.919  0.00  0.00    +0.000 A 
ENDBRANCH  16  17
ENDBRANCH  15  16
ENDBRANCH   8  15
TORSDOF 5
ENDMDL
