MODEL 1
REMARK VINA RESULT:      -7.6      0.000      0.000
REMARK  Name = 
REMARK  2 active torsions:
REMARK  status: ('A' for Active; 'I' for Inactive)
REMARK    1  A    between atoms: C_3  and  C_4
REMARK    2  A    between atoms: C_15  and  O_16
REMARK                            x       y       z     vdW  Elec       q    Type
REMARK                         _______ _______ _______ _____ _____    ______ ____
ROOT
ATOM      1  O   UNL     1       3.138   8.599  17.855  0.00  0.00    +0.000 OA
ATOM      2  C   UNL     1       3.070   7.472  18.332  0.00  0.00    +0.000 C 
ATOM      3  C   UNL     1       2.260   7.183  19.548  0.00  0.00    +0.000 C 
ATOM      4  C   UNL     1       2.206   5.945  20.058  0.00  0.00    +0.000 C 
ATOM      5  C   UNL     1       2.925   4.815  19.444  0.00  0.00    +0.000 C 
ATOM      6  O   UNL     1       2.861   3.692  19.934  0.00  0.00    +0.000 OA
ATOM      7  C   UNL     1       3.715   5.062  18.227  0.00  0.00    +0.000 A 
ATOM      8  C   UNL     1       4.391   4.014  17.588  0.00  0.00    +0.000 A 
ATOM      9  C   UNL     1       5.142   4.251  16.440  0.00  0.00    +0.000 A 
ATOM     10  C   UNL     1       5.233   5.543  15.922  0.00  0.00    +0.000 A 
ATOM     11  C   UNL     1       4.561   6.592  16.550  0.00  0.00    +0.000 A 
ATOM     12  C   UNL     1       3.794   6.349  17.699  0.00  0.00    +0.000 A 
ENDROOT
BRANCH   3  13
ATOM     13  C   UNL     1       1.492   8.255  20.201  0.00  0.00    +0.000 A 
ATOM     14  C   UNL     1       0.908   9.274  19.440  0.00  0.00    +0.000 A 
ATOM     15  C   UNL     1       0.168  10.284  20.064  0.00  0.00    +0.000 A 
ATOM     16  C   UNL     1       0.014  10.274  21.450  0.00  0.00    +0.000 A 
ATOM     17  I   UNL     1      -1.103  11.762  22.377  0.00  0.00    +0.000 I 
ATOM     18  C   UNL     1       0.598   9.267  22.218  0.00  0.00    +0.000 A 
ATOM     19  C   UNL     1       1.336   8.259  21.593  0.00  0.00    +0.000 A 
ENDBRANCH   3  13
BRANCH   8  20
ATOM     20  O   UNL     1       4.358   2.719  18.033  0.00  0.00    +0.000 OA
ATOM     21  H   UNL     1       4.081   2.718  18.976  0.00  0.00    +0.000 HD
ENDBRANCH   8  20
TORSDOF 2
ENDMDL
MODEL 2
REMARK VINA RESULT:      -7.6      0.086      1.086
REMARK  Name = 
REMARK  2 active torsions:
REMARK  status: ('A' for Active; 'I' for Inactive)
REMARK    1  A    between atoms: C_3  and  C_4
REMARK    2  A    between atoms: C_15  and  O_16
REMARK                            x       y       z     vdW  Elec       q    Type
REMARK                         _______ _______ _______ _____ _____    ______ ____
ROOT
ATOM      1  O   UNL     1       3.070   8.653  17.860  0.00  0.00    +0.000 OA
ATOM      2  C   UNL     1       3.033   7.530  18.349  0.00  0.00    +0.000 C 
ATOM      3  C   UNL     1       2.239   7.234  19.574  0.00  0.00    +0.000 C 
ATOM      4  C   UNL     1       2.220   6.002  20.098  0.00  0.00    +0.000 C 
ATOM      5  C   UNL     1       2.962   4.883  19.492  0.00  0.00    +0.000 C 
ATOM      6  O   UNL     1       2.929   3.765  19.995  0.00  0.00    +0.000 OA
ATOM      7  C   UNL     1       3.737   5.136  18.267  0.00  0.00    +0.000 A 
ATOM      8  C   UNL     1       4.434   4.097  17.634  0.00  0.00    +0.000 A 
ATOM      9  C   UNL     1       5.172   4.340  16.478  0.00  0.00    +0.000 A 
ATOM     10  C   UNL     1       5.227   5.628  15.946  0.00  0.00    +0.000 A 
ATOM     11  C   UNL     1       4.533   6.667  16.566  0.00  0.00    +0.000 A 
ATOM     12  C   UNL     1       3.780   6.418  17.724  0.00  0.00    +0.000 A 
ENDROOT
BRANCH   3  13
ATOM     13  C   UNL     1       1.449   8.294  20.220  0.00  0.00    +0.000 A 
ATOM     14  C   UNL     1       1.266   8.297  21.608  0.00  0.00    +0.000 A 
ATOM     15  C   UNL     1       0.525   9.315  22.220  0.00  0.00    +0.000 A 
ATOM     16  C   UNL     1      -0.033  10.328  21.441  0.00  0.00    +0.000 A 
ATOM     17  I   UNL     1      -1.117  11.852  22.349  0.00  0.00    +0.000 I 
ATOM     18  C   UNL     1       0.137  10.330  20.056  0.00  0.00    +0.000 A 
ATOM     19  C   UNL     1       0.878   9.314  19.448  0.00  0.00    +0.000 A 
ENDBRANCH   3  13
BRANCH   8  20
ATOM     20  O   UNL     1       4.437   2.807  18.094  0.00  0.00    +0.000 OA
ATOM     21  H   UNL     1       4.334   2.200  17.326  0.00  0.00    +0.000 HD
ENDBRANCH   8  20
TORSDOF 2
ENDMDL
MODEL 3
REMARK VINA RESULT:      -7.3      1.504      2.645
REMARK  Name = 
REMARK  2 active torsions:
REMARK  status: ('A' for Active; 'I' for Inactive)
REMARK    1  A    between atoms: C_3  and  C_4
REMARK    2  A    between atoms: C_15  and  O_16
REMARK                            x       y       z     vdW  Elec       q    Type
REMARK                         _______ _______ _______ _____ _____    ______ ____
ROOT
ATOM      1  O   UNL     1       1.089   5.318  20.480  0.00  0.00    +0.000 OA
ATOM      2  C   UNL     1       1.943   5.457  19.612  0.00  0.00    +0.000 C 
ATOM      3  C   UNL     1       2.350   6.803  19.120  0.00  0.00    +0.000 C 
ATOM      4  C   UNL     1       3.278   6.932  18.164  0.00  0.00    +0.000 C 
ATOM      5  C   UNL     1       3.949   5.766  17.564  0.00  0.00    +0.000 C 
ATOM      6  O   UNL     1       4.794   5.914  16.686  0.00  0.00    +0.000 OA
ATOM      7  C   UNL     1       3.588   4.423  18.044  0.00  0.00    +0.000 A 
ATOM      8  C   UNL     1       4.221   3.284  17.526  0.00  0.00    +0.000 A 
ATOM      9  C   UNL     1       3.874   2.014  17.979  0.00  0.00    +0.000 A 
ATOM     10  C   UNL     1       2.882   1.867  18.948  0.00  0.00    +0.000 A 
ATOM     11  C   UNL     1       2.250   2.996  19.472  0.00  0.00    +0.000 A 
ATOM     12  C   UNL     1       2.610   4.276  19.025  0.00  0.00    +0.000 A 
ENDROOT
BRANCH   3  13
ATOM     13  C   UNL     1       1.744   8.016  19.692  0.00  0.00    +0.000 A 
ATOM     14  C   UNL     1       1.372   9.082  18.864  0.00  0.00    +0.000 A 
ATOM     15  C   UNL     1       0.784  10.228  19.411  0.00  0.00    +0.000 A 
ATOM     16  C   UNL     1       0.571  10.307  20.787  0.00  0.00    +0.000 A 
ATOM     17  I   UNL     1      -0.321  12.000  21.599  0.00  0.00    +0.000 I 
ATOM     18  C   UNL     1       0.945   9.254  21.622  0.00  0.00    +0.000 A 
ATOM     19  C   UNL     1       1.532   8.110  21.073  0.00  0.00    +0.000 A 
ENDBRANCH   3  13
BRANCH   8  20
ATOM     20  O   UNL     1       5.200   3.340  16.570  0.00  0.00    +0.000 OA
ATOM     21  H   UNL     1       4.775   3.296  15.684  0.00  0.00    +0.000 HD
ENDBRANCH   8  20
TORSDOF 2
ENDMDL
MODEL 4
REMARK VINA RESULT:      -7.3      1.527      2.868
REMARK  Name = 
REMARK  2 active torsions:
REMARK  status: ('A' for Active; 'I' for Inactive)
REMARK    1  A    between atoms: C_3  and  C_4
REMARK    2  A    between atoms: C_15  and  O_16
REMARK                            x       y       z     vdW  Elec       q    Type
REMARK                         _______ _______ _______ _____ _____    ______ ____
ROOT
ATOM      1  O   UNL     1       1.090   5.320  20.456  0.00  0.00    +0.000 OA
ATOM      2  C   UNL     1       1.946   5.451  19.589  0.00  0.00    +0.000 C 
ATOM      3  C   UNL     1       2.354   6.793  19.087  0.00  0.00    +0.000 C 
ATOM      4  C   UNL     1       3.285   6.914  18.131  0.00  0.00    +0.000 C 
ATOM      5  C   UNL     1       3.957   5.743  17.542  0.00  0.00    +0.000 C 
ATOM      6  O   UNL     1       4.804   5.883  16.666  0.00  0.00    +0.000 OA
ATOM      7  C   UNL     1       3.594   4.404  18.033  0.00  0.00    +0.000 A 
ATOM      8  C   UNL     1       4.228   3.261  17.527  0.00  0.00    +0.000 A 
ATOM      9  C   UNL     1       3.879   1.994  17.988  0.00  0.00    +0.000 A 
ATOM     10  C   UNL     1       2.885   1.856  18.957  0.00  0.00    +0.000 A 
ATOM     11  C   UNL     1       2.252   2.989  19.470  0.00  0.00    +0.000 A 
ATOM     12  C   UNL     1       2.613   4.265  19.013  0.00  0.00    +0.000 A 
ENDROOT
BRANCH   3  13
ATOM     13  C   UNL     1       1.748   8.011  19.647  0.00  0.00    +0.000 A 
ATOM     14  C   UNL     1       1.525   8.125  21.024  0.00  0.00    +0.000 A 
ATOM     15  C   UNL     1       0.960   9.290  21.554  0.00  0.00    +0.000 A 
ATOM     16  C   UNL     1       0.617  10.341  20.704  0.00  0.00    +0.000 A 
ATOM     17  I   UNL     1      -0.203  12.081  21.491  0.00  0.00    +0.000 I 
ATOM     18  C   UNL     1       0.828  10.235  19.329  0.00  0.00    +0.000 A 
ATOM     19  C   UNL     1       1.392   9.071  18.802  0.00  0.00    +0.000 A 
ENDBRANCH   3  13
BRANCH   8  20
ATOM     20  O   UNL     1       5.209   3.308  16.572  0.00  0.00    +0.000 OA
ATOM     21  H   UNL     1       5.520   2.391  16.396  0.00  0.00    +0.000 HD
ENDBRANCH   8  20
TORSDOF 2
ENDMDL
MODEL 5
REMARK VINA RESULT:      -7.3      3.400      7.252
REMARK  Name = 
REMARK  2 active torsions:
REMARK  status: ('A' for Active; 'I' for Inactive)
REMARK    1  A    between atoms: C_3  and  C_4
REMARK    2  A    between atoms: C_15  and  O_16
REMARK                            x       y       z     vdW  Elec       q    Type
REMARK                         _______ _______ _______ _____ _____    ______ ____
ROOT
ATOM      1  O   UNL     1       1.838   7.278  21.164  0.00  0.00    +0.000 OA
ATOM      2  C   UNL     1       1.421   8.231  20.517  0.00  0.00    +0.000 C 
ATOM      3  C   UNL     1       1.755   8.408  19.076  0.00  0.00    +0.000 C 
ATOM      4  C   UNL     1       1.296   9.463  18.390  0.00  0.00    +0.000 C 
ATOM      5  C   UNL     1       0.435  10.484  19.011  0.00  0.00    +0.000 C 
ATOM      6  O   UNL     1       0.031  11.442  18.359  0.00  0.00    +0.000 OA
ATOM      7  C   UNL     1       0.066  10.327  20.427  0.00  0.00    +0.000 A 
ATOM      8  C   UNL     1      -0.777  11.255  21.054  0.00  0.00    +0.000 A 
ATOM      9  C   UNL     1      -1.120  11.107  22.395  0.00  0.00    +0.000 A 
ATOM     10  C   UNL     1      -0.617  10.031  23.127  0.00  0.00    +0.000 A 
ATOM     11  C   UNL     1       0.218   9.100  22.510  0.00  0.00    +0.000 A 
ATOM     12  C   UNL     1       0.554   9.244  21.155  0.00  0.00    +0.000 A 
ENDROOT
BRANCH   3  13
ATOM     13  C   UNL     1       2.587   7.414  18.380  0.00  0.00    +0.000 A 
ATOM     14  C   UNL     1       3.721   7.814  17.663  0.00  0.00    +0.000 A 
ATOM     15  C   UNL     1       4.516   6.864  17.014  0.00  0.00    +0.000 A 
ATOM     16  C   UNL     1       4.175   5.514  17.080  0.00  0.00    +0.000 A 
ATOM     17  I   UNL     1       5.366   4.098  16.133  0.00  0.00    +0.000 I 
ATOM     18  C   UNL     1       3.043   5.105  17.785  0.00  0.00    +0.000 A 
ATOM     19  C   UNL     1       2.250   6.056  18.434  0.00  0.00    +0.000 A 
ENDBRANCH   3  13
BRANCH   8  20
ATOM     20  O   UNL     1      -1.309  12.340  20.410  0.00  0.00    +0.000 OA
ATOM     21  H   UNL     1      -0.912  12.397  19.512  0.00  0.00    +0.000 HD
ENDBRANCH   8  20
TORSDOF 2
ENDMDL
MODEL 6
REMARK VINA RESULT:      -7.3      3.398      7.294
REMARK  Name = 
REMARK  2 active torsions:
REMARK  status: ('A' for Active; 'I' for Inactive)
REMARK    1  A    between atoms: C_3  and  C_4
REMARK    2  A    between atoms: C_15  and  O_16
REMARK                            x       y       z     vdW  Elec       q    Type
REMARK                         _______ _______ _______ _____ _____    ______ ____
ROOT
ATOM      1  O   UNL     1       1.811   7.272  21.192  0.00  0.00    +0.000 OA
ATOM      2  C   UNL     1       1.417   8.232  20.540  0.00  0.00    +0.000 C 
ATOM      3  C   UNL     1       1.777   8.407  19.105  0.00  0.00    +0.000 C 
ATOM      4  C   UNL     1       1.343   9.470  18.414  0.00  0.00    +0.000 C 
ATOM      5  C   UNL     1       0.487  10.502  19.024  0.00  0.00    +0.000 C 
ATOM      6  O   UNL     1       0.107  11.467  18.368  0.00  0.00    +0.000 OA
ATOM      7  C   UNL     1       0.093  10.347  20.433  0.00  0.00    +0.000 A 
ATOM      8  C   UNL     1      -0.746  11.286  21.049  0.00  0.00    +0.000 A 
ATOM      9  C   UNL     1      -1.112  11.140  22.385  0.00  0.00    +0.000 A 
ATOM     10  C   UNL     1      -0.636  10.056  23.122  0.00  0.00    +0.000 A 
ATOM     11  C   UNL     1       0.196   9.114  22.516  0.00  0.00    +0.000 A 
ATOM     12  C   UNL     1       0.554   9.256  21.167  0.00  0.00    +0.000 A 
ENDROOT
BRANCH   3  13
ATOM     13  C   UNL     1       2.605   7.403  18.420  0.00  0.00    +0.000 A 
ATOM     14  C   UNL     1       2.256   6.048  18.460  0.00  0.00    +0.000 A 
ATOM     15  C   UNL     1       3.040   5.098  17.795  0.00  0.00    +0.000 A 
ATOM     16  C   UNL     1       4.174   5.505  17.093  0.00  0.00    +0.000 A 
ATOM     17  I   UNL     1       5.328   4.099  16.088  0.00  0.00    +0.000 I 
ATOM     18  C   UNL     1       4.534   6.852  17.053  0.00  0.00    +0.000 A 
ATOM     19  C   UNL     1       3.750   7.799  17.717  0.00  0.00    +0.000 A 
ENDBRANCH   3  13
BRANCH   8  20
ATOM     20  O   UNL     1      -1.252  12.379  20.399  0.00  0.00    +0.000 OA
ATOM     21  H   UNL     1      -1.478  13.065  21.067  0.00  0.00    +0.000 HD
ENDBRANCH   8  20
TORSDOF 2
ENDMDL
MODEL 7
REMARK VINA RESULT:      -7.2      3.590      7.145
REMARK  Name = 
REMARK  2 active torsions:
REMARK  status: ('A' for Active; 'I' for Inactive)
REMARK    1  A    between atoms: C_3  and  C_4
REMARK    2  A    between atoms: C_15  and  O_16
REMARK                            x       y       z     vdW  Elec       q    Type
REMARK                         _______ _______ _______ _____ _____    ______ ____
ROOT
ATOM      1  O   UNL     1       0.520   9.622  17.953  0.00  0.00    +0.000 OA
ATOM      2  C   UNL     1       0.568   9.639  19.177  0.00  0.00    +0.000 C 
ATOM      3  C   UNL     1       1.394   8.664  19.943  0.00  0.00    +0.000 C 
ATOM      4  C   UNL     1       1.425   8.694  21.282  0.00  0.00    +0.000 C 
ATOM      5  C   UNL     1       0.666   9.689  22.059  0.00  0.00    +0.000 C 
ATOM      6  O   UNL     1       0.710   9.691  23.285  0.00  0.00    +0.000 OA
ATOM      7  C   UNL     1      -0.141  10.682  21.332  0.00  0.00    +0.000 A 
ATOM      8  C   UNL     1      -0.857  11.668  22.025  0.00  0.00    +0.000 A 
ATOM      9  C   UNL     1      -1.624  12.604  21.335  0.00  0.00    +0.000 A 
ATOM     10  C   UNL     1      -1.691  12.557  19.943  0.00  0.00    +0.000 A 
ATOM     11  C   UNL     1      -0.979  11.581  19.245  0.00  0.00    +0.000 A 
ATOM     12  C   UNL     1      -0.196  10.648  19.940  0.00  0.00    +0.000 A 
ENDROOT
BRANCH   3  13
ATOM     13  C   UNL     1       2.202   7.658  19.236  0.00  0.00    +0.000 A 
ATOM     14  C   UNL     1       2.902   8.000  18.072  0.00  0.00    +0.000 A 
ATOM     15  C   UNL     1       3.680   7.044  17.411  0.00  0.00    +0.000 A 
ATOM     16  C   UNL     1       3.755   5.745  17.912  0.00  0.00    +0.000 A 
ATOM     17  I   UNL     1       4.927   4.328  16.942  0.00  0.00    +0.000 I 
ATOM     18  C   UNL     1       3.056   5.392  19.067  0.00  0.00    +0.000 A 
ATOM     19  C   UNL     1       2.280   6.349  19.727  0.00  0.00    +0.000 A 
ENDBRANCH   3  13
BRANCH   8  20
ATOM     20  O   UNL     1      -0.849  11.781  23.390  0.00  0.00    +0.000 OA
ATOM     21  H   UNL     1      -1.719  11.478  23.735  0.00  0.00    +0.000 HD
ENDBRANCH   8  20
TORSDOF 2
ENDMDL
MODEL 8
REMARK VINA RESULT:      -7.2      3.581      7.206
REMARK  Name = 
REMARK  2 active torsions:
REMARK  status: ('A' for Active; 'I' for Inactive)
REMARK    1  A    between atoms: C_3  and  C_4
REMARK    2  A    between atoms: C_15  and  O_16
REMARK                            x       y       z     vdW  Elec       q    Type
REMARK                         _______ _______ _______ _____ _____    ______ ____
ROOT
ATOM      1  O   UNL     1       0.540   9.589  17.954  0.00  0.00    +0.000 OA
ATOM      2  C   UNL     1       0.583   9.613  19.179  0.00  0.00    +0.000 C 
ATOM      3  C   UNL     1       1.404   8.641  19.954  0.00  0.00    +0.000 C 
ATOM      4  C   UNL     1       1.431   8.680  21.292  0.00  0.00    +0.000 C 
ATOM      5  C   UNL     1       0.670   9.680  22.061  0.00  0.00    +0.000 C 
ATOM      6  O   UNL     1       0.710   9.690  23.287  0.00  0.00    +0.000 OA
ATOM      7  C   UNL     1      -0.132  10.671  21.325  0.00  0.00    +0.000 A 
ATOM      8  C   UNL     1      -0.848  11.662  22.010  0.00  0.00    +0.000 A 
ATOM      9  C   UNL     1      -1.611  12.595  21.312  0.00  0.00    +0.000 A 
ATOM     10  C   UNL     1      -1.674  12.540  19.919  0.00  0.00    +0.000 A 
ATOM     11  C   UNL     1      -0.961  11.559  19.230  0.00  0.00    +0.000 A 
ATOM     12  C   UNL     1      -0.182  10.628  19.933  0.00  0.00    +0.000 A 
ENDROOT
BRANCH   3  13
ATOM     13  C   UNL     1       2.213   7.630  19.255  0.00  0.00    +0.000 A 
ATOM     14  C   UNL     1       2.276   6.316  19.734  0.00  0.00    +0.000 A 
ATOM     15  C   UNL     1       3.035   5.355  19.058  0.00  0.00    +0.000 A 
ATOM     16  C   UNL     1       3.734   5.710  17.905  0.00  0.00    +0.000 A 
ATOM     17  I   UNL     1       4.847   4.279  16.888  0.00  0.00    +0.000 I 
ATOM     18  C   UNL     1       3.684   7.019  17.423  0.00  0.00    +0.000 A 
ATOM     19  C   UNL     1       2.925   7.977  18.099  0.00  0.00    +0.000 A 
ENDBRANCH   3  13
BRANCH   8  20
ATOM     20  O   UNL     1      -0.845  11.782  23.374  0.00  0.00    +0.000 OA
ATOM     21  H   UNL     1      -1.355  11.033  23.756  0.00  0.00    +0.000 HD
ENDBRANCH   8  20
TORSDOF 2
ENDMDL
MODEL 9
REMARK VINA RESULT:      -7.2      1.890      3.265
REMARK  Name = 
REMARK  2 active torsions:
REMARK  status: ('A' for Active; 'I' for Inactive)
REMARK    1  A    between atoms: C_3  and  C_4
REMARK    2  A    between atoms: C_15  and  O_16
REMARK                            x       y       z     vdW  Elec       q    Type
REMARK                         _______ _______ _______ _____ _____    ______ ____
ROOT
ATOM      1  O   UNL     1       1.227   6.695  21.038  0.00  0.00    +0.000 OA
ATOM      2  C   UNL     1       1.971   6.359  20.124  0.00  0.00    +0.000 C 
ATOM      3  C   UNL     1       2.341   7.298  19.028  0.00  0.00    +0.000 C 
ATOM      4  C   UNL     1       3.149   6.907  18.033  0.00  0.00    +0.000 C 
ATOM      5  C   UNL     1       3.720   5.551  17.977  0.00  0.00    +0.000 C 
ATOM      6  O   UNL     1       4.455   5.219  17.052  0.00  0.00    +0.000 OA
ATOM      7  C   UNL     1       3.395   4.606  19.058  0.00  0.00    +0.000 A 
ATOM      8  C   UNL     1       3.938   3.314  19.066  0.00  0.00    +0.000 A 
ATOM      9  C   UNL     1       3.625   2.420  20.086  0.00  0.00    +0.000 A 
ATOM     10  C   UNL     1       2.756   2.805  21.106  0.00  0.00    +0.000 A 
ATOM     11  C   UNL     1       2.213   4.090  21.108  0.00  0.00    +0.000 A 
ATOM     12  C   UNL     1       2.540   4.995  20.087  0.00  0.00    +0.000 A 
ENDROOT
BRANCH   3  13
ATOM     13  C   UNL     1       1.832   8.678  19.030  0.00  0.00    +0.000 A 
ATOM     14  C   UNL     1       1.042   9.142  20.089  0.00  0.00    +0.000 A 
ATOM     15  C   UNL     1       0.572  10.460  20.094  0.00  0.00    +0.000 A 
ATOM     16  C   UNL     1       0.890  11.312  19.037  0.00  0.00    +0.000 A 
ATOM     17  I   UNL     1       0.210  13.276  19.052  0.00  0.00    +0.000 I 
ATOM     18  C   UNL     1       1.670  10.858  17.973  0.00  0.00    +0.000 A 
ATOM     19  C   UNL     1       2.139   9.542  17.971  0.00  0.00    +0.000 A 
ENDBRANCH   3  13
BRANCH   8  20
ATOM     20  O   UNL     1       4.795   2.855  18.101  0.00  0.00    +0.000 OA
ATOM     21  H   UNL     1       4.455   3.135  17.221  0.00  0.00    +0.000 HD
ENDBRANCH   8  20
TORSDOF 2
ENDMDL
