MODEL 1
REMARK VINA RESULT:      -7.6      0.000      0.000
REMARK  Name = 
REMARK  2 active torsions:
REMARK  status: ('A' for Active; 'I' for Inactive)
REMARK    1  A    between atoms: C_7  and  O_8
REMARK    2  A    between atoms: C_19  and  O_20
REMARK                            x       y       z     vdW  Elec       q    Type
REMARK                         _______ _______ _______ _____ _____    ______ ____
ROOT
ATOM      1  O   UNL     1       3.893   2.274  20.823  0.00  0.00    +0.000 OA
ATOM      2  C   UNL     1       2.999   2.773  20.132  0.00  0.00    +0.000 C 
ATOM      3  C   UNL     1       2.511   2.061  18.921  0.00  0.00    +0.000 C 
ATOM      4  C   UNL     1       1.272   2.378  18.484  0.00  0.00    +0.000 C 
ATOM      5  C   UNL     1       0.376   3.427  19.101  0.00  0.00    +0.000 C 
ATOM      6  C   UNL     1       0.885   4.061  20.393  0.00  0.00    +0.000 C 
ATOM      7  C   UNL     1       2.406   4.168  20.441  0.00  0.00    +0.000 C 
ATOM      8  C   UNL     1       2.901   5.162  19.443  0.00  0.00    +0.000 C 
ATOM      9  C   UNL     1       3.437   5.724  18.531  0.00  0.00    +0.000 C 
ATOM     10  C   UNL     1       4.537   5.975  17.581  0.00  0.00    +0.000 A 
ATOM     11  C   UNL     1       4.899   7.181  17.023  0.00  0.00    +0.000 A 
ATOM     12  C   UNL     1       6.253   7.544  17.080  0.00  0.00    +0.000 A 
ATOM     13  C   UNL     1       7.167   6.733  17.761  0.00  0.00    +0.000 A 
ATOM     14  C   UNL     1       6.818   5.416  18.007  0.00  0.00    +0.000 A 
ATOM     15  C   UNL     1       5.545   5.028  17.635  0.00  0.00    +0.000 A 
ATOM     16  C   UNL     1       5.119   3.698  17.447  0.00  0.00    +0.000 C 
ATOM     17  C   UNL     1       4.421   2.640  17.751  0.00  0.00    +0.000 C 
ATOM     18  C   UNL     1       3.607   1.406  18.105  0.00  0.00    +0.000 C 
ENDROOT
BRANCH   7  19
ATOM     19  O   UNL     1       2.831   4.493  21.762  0.00  0.00    +0.000 OA
ATOM     20  H   UNL     1       2.067   4.916  22.211  0.00  0.00    +0.000 HD
ENDBRANCH   7  19
BRANCH  18  21
ATOM     21  O   UNL     1       4.370   0.469  18.833  0.00  0.00    +0.000 OA
ATOM     22  H   UNL     1       3.982   0.428  19.731  0.00  0.00    +0.000 HD
ENDBRANCH  18  21
TORSDOF 2
ENDMDL
MODEL 2
REMARK VINA RESULT:      -7.4      1.802      2.941
REMARK  Name = 
REMARK  2 active torsions:
REMARK  status: ('A' for Active; 'I' for Inactive)
REMARK    1  A    between atoms: C_7  and  O_8
REMARK    2  A    between atoms: C_19  and  O_20
REMARK                            x       y       z     vdW  Elec       q    Type
REMARK                         _______ _______ _______ _____ _____    ______ ____
ROOT
ATOM      1  O   UNL     1       2.421   2.202  17.624  0.00  0.00    +0.000 OA
ATOM      2  C   UNL     1       2.623   2.712  18.731  0.00  0.00    +0.000 C 
ATOM      3  C   UNL     1       1.705   3.764  19.242  0.00  0.00    +0.000 C 
ATOM      4  C   UNL     1       1.671   3.947  20.581  0.00  0.00    +0.000 C 
ATOM      5  C   UNL     1       2.526   3.202  21.580  0.00  0.00    +0.000 C 
ATOM      6  C   UNL     1       3.381   2.070  21.013  0.00  0.00    +0.000 C 
ATOM      7  C   UNL     1       3.856   2.345  19.590  0.00  0.00    +0.000 C 
ATOM      8  C   UNL     1       4.843   3.465  19.565  0.00  0.00    +0.000 C 
ATOM      9  C   UNL     1       5.430   4.491  19.375  0.00  0.00    +0.000 C 
ATOM     10  C   UNL     1       5.850   5.658  18.577  0.00  0.00    +0.000 A 
ATOM     11  C   UNL     1       7.051   6.329  18.648  0.00  0.00    +0.000 A 
ATOM     12  C   UNL     1       7.734   6.571  17.447  0.00  0.00    +0.000 A 
ATOM     13  C   UNL     1       7.235   6.062  16.243  0.00  0.00    +0.000 A 
ATOM     14  C   UNL     1       5.901   5.693  16.191  0.00  0.00    +0.000 A 
ATOM     15  C   UNL     1       5.184   5.776  17.370  0.00  0.00    +0.000 A 
ATOM     16  C   UNL     1       3.779   5.816  17.469  0.00  0.00    +0.000 C 
ATOM     17  C   UNL     1       2.617   5.329  17.803  0.00  0.00    +0.000 C 
ATOM     18  C   UNL     1       1.261   4.762  18.192  0.00  0.00    +0.000 C 
ENDROOT
BRANCH   7  19
ATOM     19  O   UNL     1       4.394   1.156  19.018  0.00  0.00    +0.000 OA
ATOM     20  H   UNL     1       4.205   0.426  19.647  0.00  0.00    +0.000 HD
ENDBRANCH   7  19
BRANCH  18  21
ATOM     21  O   UNL     1       0.608   4.170  17.090  0.00  0.00    +0.000 OA
ATOM     22  H   UNL     1       0.046   4.865  16.691  0.00  0.00    +0.000 HD
ENDBRANCH  18  21
TORSDOF 2
ENDMDL
MODEL 3
REMARK VINA RESULT:      -7.2      2.375      5.555
REMARK  Name = 
REMARK  2 active torsions:
REMARK  status: ('A' for Active; 'I' for Inactive)
REMARK    1  A    between atoms: C_7  and  O_8
REMARK    2  A    between atoms: C_19  and  O_20
REMARK                            x       y       z     vdW  Elec       q    Type
REMARK                         _______ _______ _______ _____ _____    ______ ____
ROOT
ATOM      1  O   UNL     1       7.466   3.771  17.615  0.00  0.00    +0.000 OA
ATOM      2  C   UNL     1       6.709   4.590  17.085  0.00  0.00    +0.000 C 
ATOM      3  C   UNL     1       6.694   6.000  17.555  0.00  0.00    +0.000 C 
ATOM      4  C   UNL     1       6.236   6.929  16.687  0.00  0.00    +0.000 C 
ATOM      5  C   UNL     1       5.698   6.635  15.305  0.00  0.00    +0.000 C 
ATOM      6  C   UNL     1       5.822   5.187  14.837  0.00  0.00    +0.000 C 
ATOM      7  C   UNL     1       5.705   4.183  15.980  0.00  0.00    +0.000 C 
ATOM      8  C   UNL     1       4.319   4.167  16.535  0.00  0.00    +0.000 C 
ATOM      9  C   UNL     1       3.345   4.240  17.226  0.00  0.00    +0.000 C 
ATOM     10  C   UNL     1       2.595   4.118  18.491  0.00  0.00    +0.000 A 
ATOM     11  C   UNL     1       1.265   3.798  18.645  0.00  0.00    +0.000 A 
ATOM     12  C   UNL     1       0.940   2.788  19.563  0.00  0.00    +0.000 A 
ATOM     13  C   UNL     1       1.957   2.088  20.222  0.00  0.00    +0.000 A 
ATOM     14  C   UNL     1       3.217   2.658  20.273  0.00  0.00    +0.000 A 
ATOM     15  C   UNL     1       3.394   3.845  19.587  0.00  0.00    +0.000 A 
ATOM     16  C   UNL     1       4.440   4.764  19.802  0.00  0.00    +0.000 C 
ATOM     17  C   UNL     1       5.523   5.404  19.460  0.00  0.00    +0.000 C 
ATOM     18  C   UNL     1       6.785   6.151  19.060  0.00  0.00    +0.000 C 
ENDROOT
BRANCH   7  19
ATOM     19  O   UNL     1       6.110   2.890  15.537  0.00  0.00    +0.000 OA
ATOM     20  H   UNL     1       5.881   2.831  14.584  0.00  0.00    +0.000 HD
ENDBRANCH   7  19
BRANCH  18  21
ATOM     21  O   UNL     1       7.939   5.561  19.619  0.00  0.00    +0.000 OA
ATOM     22  H   UNL     1       7.660   4.702  19.995  0.00  0.00    +0.000 HD
ENDBRANCH  18  21
TORSDOF 2
ENDMDL
MODEL 4
REMARK VINA RESULT:      -7.0      2.622      5.375
REMARK  Name = 
REMARK  2 active torsions:
REMARK  status: ('A' for Active; 'I' for Inactive)
REMARK    1  A    between atoms: C_7  and  O_8
REMARK    2  A    between atoms: C_19  and  O_20
REMARK                            x       y       z     vdW  Elec       q    Type
REMARK                         _______ _______ _______ _____ _____    ______ ____
ROOT
ATOM      1  O   UNL     1       4.961   6.284  15.644  0.00  0.00    +0.000 OA
ATOM      2  C   UNL     1       5.685   5.857  16.549  0.00  0.00    +0.000 C 
ATOM      3  C   UNL     1       6.522   4.649  16.322  0.00  0.00    +0.000 C 
ATOM      4  C   UNL     1       7.604   4.497  17.118  0.00  0.00    +0.000 C 
ATOM      5  C   UNL     1       7.993   5.431  18.240  0.00  0.00    +0.000 C 
ATOM      6  C   UNL     1       7.157   6.702  18.370  0.00  0.00    +0.000 C 
ATOM      7  C   UNL     1       5.703   6.497  17.956  0.00  0.00    +0.000 C 
ATOM      8  C   UNL     1       4.993   5.611  18.926  0.00  0.00    +0.000 C 
ATOM      9  C   UNL     1       4.393   4.727  19.466  0.00  0.00    +0.000 C 
ATOM     10  C   UNL     1       3.383   3.655  19.544  0.00  0.00    +0.000 A 
ATOM     11  C   UNL     1       2.675   3.254  20.655  0.00  0.00    +0.000 A 
ATOM     12  C   UNL     1       1.282   3.131  20.530  0.00  0.00    +0.000 A 
ATOM     13  C   UNL     1       0.652   3.493  19.334  0.00  0.00    +0.000 A 
ATOM     14  C   UNL     1       1.422   3.570  18.186  0.00  0.00    +0.000 A 
ATOM     15  C   UNL     1       2.781   3.368  18.331  0.00  0.00    +0.000 A 
ATOM     16  C   UNL     1       3.673   3.035  17.291  0.00  0.00    +0.000 C 
ATOM     17  C   UNL     1       4.667   3.275  16.483  0.00  0.00    +0.000 C 
ATOM     18  C   UNL     1       5.826   3.553  15.540  0.00  0.00    +0.000 C 
ENDROOT
BRANCH   7  19
ATOM     19  O   UNL     1       5.052   7.758  17.823  0.00  0.00    +0.000 OA
ATOM     20  H   UNL     1       5.178   8.235  18.672  0.00  0.00    +0.000 HD
ENDBRANCH   7  19
BRANCH  18  21
ATOM     21  O   UNL     1       5.376   3.965  14.267  0.00  0.00    +0.000 OA
ATOM     22  H   UNL     1       6.098   3.765  13.637  0.00  0.00    +0.000 HD
ENDBRANCH  18  21
TORSDOF 2
ENDMDL
MODEL 5
REMARK VINA RESULT:      -7.0      2.377      5.689
REMARK  Name = 
REMARK  2 active torsions:
REMARK  status: ('A' for Active; 'I' for Inactive)
REMARK    1  A    between atoms: C_7  and  O_8
REMARK    2  A    between atoms: C_19  and  O_20
REMARK                            x       y       z     vdW  Elec       q    Type
REMARK                         _______ _______ _______ _____ _____    ______ ____
ROOT
ATOM      1  O   UNL     1       6.213   6.402  18.420  0.00  0.00    +0.000 OA
ATOM      2  C   UNL     1       5.820   5.808  17.411  0.00  0.00    +0.000 C 
ATOM      3  C   UNL     1       5.093   6.550  16.347  0.00  0.00    +0.000 C 
ATOM      4  C   UNL     1       5.102   6.008  15.109  0.00  0.00    +0.000 C 
ATOM      5  C   UNL     1       5.749   4.692  14.743  0.00  0.00    +0.000 C 
ATOM      6  C   UNL     1       6.559   4.018  15.847  0.00  0.00    +0.000 C 
ATOM      7  C   UNL     1       5.994   4.281  17.239  0.00  0.00    +0.000 C 
ATOM      8  C   UNL     1       4.679   3.597  17.418  0.00  0.00    +0.000 C 
ATOM      9  C   UNL     1       3.527   3.325  17.599  0.00  0.00    +0.000 C 
ATOM     10  C   UNL     1       2.199   3.494  18.217  0.00  0.00    +0.000 A 
ATOM     11  C   UNL     1       1.278   2.509  18.497  0.00  0.00    +0.000 A 
ATOM     12  C   UNL     1       0.724   2.484  19.786  0.00  0.00    +0.000 A 
ATOM     13  C   UNL     1       1.174   3.384  20.759  0.00  0.00    +0.000 A 
ATOM     14  C   UNL     1       1.838   4.524  20.339  0.00  0.00    +0.000 A 
ATOM     15  C   UNL     1       2.084   4.640  18.984  0.00  0.00    +0.000 A 
ATOM     16  C   UNL     1       2.392   5.838  18.310  0.00  0.00    +0.000 C 
ATOM     17  C   UNL     1       3.180   6.636  17.646  0.00  0.00    +0.000 C 
ATOM     18  C   UNL     1       4.099   7.567  16.871  0.00  0.00    +0.000 C 
ENDROOT
BRANCH   7  19
ATOM     19  O   UNL     1       6.936   3.878  18.231  0.00  0.00    +0.000 OA
ATOM     20  H   UNL     1       7.799   3.769  17.777  0.00  0.00    +0.000 HD
ENDBRANCH   7  19
BRANCH  18  21
ATOM     21  O   UNL     1       4.678   8.544  17.709  0.00  0.00    +0.000 OA
ATOM     22  H   UNL     1       5.380   8.981  17.185  0.00  0.00    +0.000 HD
ENDBRANCH  18  21
TORSDOF 2
ENDMDL
MODEL 6
REMARK VINA RESULT:      -6.8      2.213      3.761
REMARK  Name = 
REMARK  2 active torsions:
REMARK  status: ('A' for Active; 'I' for Inactive)
REMARK    1  A    between atoms: C_7  and  O_8
REMARK    2  A    between atoms: C_19  and  O_20
REMARK                            x       y       z     vdW  Elec       q    Type
REMARK                         _______ _______ _______ _____ _____    ______ ____
ROOT
ATOM      1  O   UNL     1       1.062   4.620  17.435  0.00  0.00    +0.000 OA
ATOM      2  C   UNL     1       1.818   4.387  18.384  0.00  0.00    +0.000 C 
ATOM      3  C   UNL     1       2.059   5.430  19.415  0.00  0.00    +0.000 C 
ATOM      4  C   UNL     1       2.483   5.006  20.626  0.00  0.00    +0.000 C 
ATOM      5  C   UNL     1       2.773   3.568  20.989  0.00  0.00    +0.000 C 
ATOM      6  C   UNL     1       2.421   2.529  19.927  0.00  0.00    +0.000 C 
ATOM      7  C   UNL     1       2.594   3.054  18.506  0.00  0.00    +0.000 C 
ATOM      8  C   UNL     1       4.037   3.277  18.193  0.00  0.00    +0.000 C 
ATOM      9  C   UNL     1       5.106   3.736  17.908  0.00  0.00    +0.000 C 
ATOM     10  C   UNL     1       6.017   4.649  17.192  0.00  0.00    +0.000 A 
ATOM     11  C   UNL     1       7.312   4.395  16.797  0.00  0.00    +0.000 A 
ATOM     12  C   UNL     1       7.656   4.683  15.467  0.00  0.00    +0.000 A 
ATOM     13  C   UNL     1       6.676   5.129  14.573  0.00  0.00    +0.000 A 
ATOM     14  C   UNL     1       5.509   5.661  15.092  0.00  0.00    +0.000 A 
ATOM     15  C   UNL     1       5.364   5.629  16.466  0.00  0.00    +0.000 A 
ATOM     16  C   UNL     1       4.471   6.424  17.212  0.00  0.00    +0.000 C 
ATOM     17  C   UNL     1       3.427   6.611  17.970  0.00  0.00    +0.000 C 
ATOM     18  C   UNL     1       2.211   6.830  18.854  0.00  0.00    +0.000 C 
ENDROOT
BRANCH   7  19
ATOM     19  O   UNL     1       1.987   2.159  17.577  0.00  0.00    +0.000 OA
ATOM     20  H   UNL     1       2.469   2.259  16.728  0.00  0.00    +0.000 HD
ENDBRANCH   7  19
BRANCH  18  21
ATOM     21  O   UNL     1       1.095   7.264  18.108  0.00  0.00    +0.000 OA
ATOM     22  H   UNL     1       1.209   6.911  17.202  0.00  0.00    +0.000 HD
ENDBRANCH  18  21
TORSDOF 2
ENDMDL
MODEL 7
REMARK VINA RESULT:      -6.8     10.201     12.434
REMARK  Name = 
REMARK  2 active torsions:
REMARK  status: ('A' for Active; 'I' for Inactive)
REMARK    1  A    between atoms: C_7  and  O_8
REMARK    2  A    between atoms: C_19  and  O_20
REMARK                            x       y       z     vdW  Elec       q    Type
REMARK                         _______ _______ _______ _____ _____    ______ ____
ROOT
ATOM      1  O   UNL     1       9.763  12.841  17.117  0.00  0.00    +0.000 OA
ATOM      2  C   UNL     1      10.213  13.847  17.675  0.00  0.00    +0.000 C 
ATOM      3  C   UNL     1      11.664  13.940  17.983  0.00  0.00    +0.000 C 
ATOM      4  C   UNL     1      12.177  15.180  18.144  0.00  0.00    +0.000 C 
ATOM      5  C   UNL     1      11.381  16.462  18.082  0.00  0.00    +0.000 C 
ATOM      6  C   UNL     1       9.917  16.319  17.670  0.00  0.00    +0.000 C 
ATOM      7  C   UNL     1       9.298  15.006  18.138  0.00  0.00    +0.000 C 
ATOM      8  C   UNL     1       9.161  14.981  19.625  0.00  0.00    +0.000 C 
ATOM      9  C   UNL     1       9.234  14.729  20.793  0.00  0.00    +0.000 C 
ATOM     10  C   UNL     1       9.341  13.834  21.960  0.00  0.00    +0.000 A 
ATOM     11  C   UNL     1       8.814  14.033  23.216  0.00  0.00    +0.000 A 
ATOM     12  C   UNL     1       8.079  12.983  23.788  0.00  0.00    +0.000 A 
ATOM     13  C   UNL     1       7.832  11.820  23.050  0.00  0.00    +0.000 A 
ATOM     14  C   UNL     1       8.639  11.553  21.958  0.00  0.00    +0.000 A 
ATOM     15  C   UNL     1       9.577  12.511  21.626  0.00  0.00    +0.000 A 
ATOM     16  C   UNL     1      10.715  12.297  20.822  0.00  0.00    +0.000 C 
ATOM     17  C   UNL     1      11.433  12.459  19.746  0.00  0.00    +0.000 C 
ATOM     18  C   UNL     1      12.271  12.648  18.492  0.00  0.00    +0.000 C 
ENDROOT
BRANCH   7  19
ATOM     19  O   UNL     1       8.044  14.800  17.491  0.00  0.00    +0.000 OA
ATOM     20  H   UNL     1       8.130  15.162  16.582  0.00  0.00    +0.000 HD
ENDBRANCH   7  19
BRANCH  18  21
ATOM     21  O   UNL     1      12.126  11.564  17.600  0.00  0.00    +0.000 OA
ATOM     22  H   UNL     1      11.168  11.476  17.421  0.00  0.00    +0.000 HD
ENDBRANCH  18  21
TORSDOF 2
ENDMDL
MODEL 8
REMARK VINA RESULT:      -6.7      9.019     11.668
REMARK  Name = 
REMARK  2 active torsions:
REMARK  status: ('A' for Active; 'I' for Inactive)
REMARK    1  A    between atoms: C_7  and  O_8
REMARK    2  A    between atoms: C_19  and  O_20
REMARK                            x       y       z     vdW  Elec       q    Type
REMARK                         _______ _______ _______ _____ _____    ______ ____
ROOT
ATOM      1  O   UNL     1       8.198  12.292  17.596  0.00  0.00    +0.000 OA
ATOM      2  C   UNL     1       9.366  12.593  17.861  0.00  0.00    +0.000 C 
ATOM      3  C   UNL     1      10.341  11.532  18.228  0.00  0.00    +0.000 C 
ATOM      4  C   UNL     1      11.650  11.816  18.050  0.00  0.00    +0.000 C 
ATOM      5  C   UNL     1      12.191  13.138  17.556  0.00  0.00    +0.000 C 
ATOM      6  C   UNL     1      11.148  14.158  17.106  0.00  0.00    +0.000 C 
ATOM      7  C   UNL     1       9.847  14.062  17.897  0.00  0.00    +0.000 C 
ATOM      8  C   UNL     1      10.051  14.495  19.311  0.00  0.00    +0.000 C 
ATOM      9  C   UNL     1      10.132  14.564  20.504  0.00  0.00    +0.000 C 
ATOM     10  C   UNL     1       9.724  14.259  21.888  0.00  0.00    +0.000 A 
ATOM     11  C   UNL     1       9.832  15.078  22.990  0.00  0.00    +0.000 A 
ATOM     12  C   UNL     1       8.694  15.242  23.794  0.00  0.00    +0.000 A 
ATOM     13  C   UNL     1       7.481  14.652  23.418  0.00  0.00    +0.000 A 
ATOM     14  C   UNL     1       7.515  13.606  22.512  0.00  0.00    +0.000 A 
ATOM     15  C   UNL     1       8.747  13.283  21.977  0.00  0.00    +0.000 A 
ATOM     16  C   UNL     1       9.072  12.061  21.353  0.00  0.00    +0.000 C 
ATOM     17  C   UNL     1       9.396  11.322  20.330  0.00  0.00    +0.000 C 
ATOM     18  C   UNL     1       9.774  10.459  19.137  0.00  0.00    +0.000 C 
ENDROOT
BRANCH   7  19
ATOM     19  O   UNL     1       8.829  14.826  17.255  0.00  0.00    +0.000 OA
ATOM     20  H   UNL     1       8.257  14.189  16.772  0.00  0.00    +0.000 HD
ENDBRANCH   7  19
BRANCH  18  21
ATOM     21  O   UNL     1       8.653   9.795  18.597  0.00  0.00    +0.000 OA
ATOM     22  H   UNL     1       7.906   9.967  19.205  0.00  0.00    +0.000 HD
ENDBRANCH  18  21
TORSDOF 2
ENDMDL
MODEL 9
REMARK VINA RESULT:      -6.5     12.104     13.972
REMARK  Name = 
REMARK  2 active torsions:
REMARK  status: ('A' for Active; 'I' for Inactive)
REMARK    1  A    between atoms: C_7  and  O_8
REMARK    2  A    between atoms: C_19  and  O_20
REMARK                            x       y       z     vdW  Elec       q    Type
REMARK                         _______ _______ _______ _____ _____    ______ ____
ROOT
ATOM      1  O   UNL     1      -5.460  12.104  24.745  0.00  0.00    +0.000 OA
ATOM      2  C   UNL     1      -4.986  13.038  24.088  0.00  0.00    +0.000 C 
ATOM      3  C   UNL     1      -5.708  14.335  24.015  0.00  0.00    +0.000 C 
ATOM      4  C   UNL     1      -4.973  15.427  23.708  0.00  0.00    +0.000 C 
ATOM      5  C   UNL     1      -3.496  15.417  23.391  0.00  0.00    +0.000 C 
ATOM      6  C   UNL     1      -2.785  14.078  23.571  0.00  0.00    +0.000 C 
ATOM      7  C   UNL     1      -3.685  12.885  23.266  0.00  0.00    +0.000 C 
ATOM      8  C   UNL     1      -4.009  12.821  21.810  0.00  0.00    +0.000 C 
ATOM      9  C   UNL     1      -4.546  12.803  20.740  0.00  0.00    +0.000 C 
ATOM     10  C   UNL     1      -5.635  12.477  19.800  0.00  0.00    +0.000 A 
ATOM     11  C   UNL     1      -5.522  12.188  18.459  0.00  0.00    +0.000 A 
ATOM     12  C   UNL     1      -6.171  11.038  17.983  0.00  0.00    +0.000 A 
ATOM     13  C   UNL     1      -6.831  10.187  18.878  0.00  0.00    +0.000 A 
ATOM     14  C   UNL     1      -7.180  10.687  20.120  0.00  0.00    +0.000 A 
ATOM     15  C   UNL     1      -6.768  11.973  20.415  0.00  0.00    +0.000 A 
ATOM     16  C   UNL     1      -7.311  12.793  21.424  0.00  0.00    +0.000 C 
ATOM     17  C   UNL     1      -7.264  13.442  22.553  0.00  0.00    +0.000 C 
ATOM     18  C   UNL     1      -7.211  14.199  23.870  0.00  0.00    +0.000 C 
ENDROOT
BRANCH   7  19
ATOM     19  O   UNL     1      -3.071  11.682  23.722  0.00  0.00    +0.000 OA
ATOM     20  H   UNL     1      -2.100  11.830  23.696  0.00  0.00    +0.000 HD
ENDBRANCH   7  19
BRANCH  18  21
ATOM     21  O   UNL     1      -7.816  13.470  24.916  0.00  0.00    +0.000 OA
ATOM     22  H   UNL     1      -8.307  12.735  24.497  0.00  0.00    +0.000 HD
ENDBRANCH  18  21
TORSDOF 2
ENDMDL
