MODEL 1
REMARK VINA RESULT:      -8.3      0.000      0.000
REMARK  Name = 
REMARK  5 active torsions:
REMARK  status: ('A' for Active; 'I' for Inactive)
REMARK    1  A    between atoms: C_1  and  C_2
REMARK    2  A    between atoms: C_5  and  C_6
REMARK    3  A    between atoms: C_12  and  C_13
REMARK    4  A    between atoms: C_16  and  S_17
REMARK    5  A    between atoms: S_17  and  C_18
REMARK                            x       y       z     vdW  Elec       q    Type
REMARK                         _______ _______ _______ _____ _____    ______ ____
ROOT
ATOM      1  C   UNL     1       5.055   4.674  17.116  0.00  0.00    +0.000 A 
ATOM      2  C   UNL     1       4.923   3.387  17.667  0.00  0.00    +0.000 A 
ATOM      3  C   UNL     1       4.077   3.130  18.755  0.00  0.00    +0.000 A 
ATOM      4  C   UNL     1       3.346   4.209  19.246  0.00  0.00    +0.000 A 
ATOM      5  O   UNL     1       2.464   4.157  20.277  0.00  0.00    +0.000 OA
ATOM      6  C   UNL     1       1.939   5.400  20.414  0.00  0.00    +0.000 A 
ATOM      7  C   UNL     1       2.475   6.276  19.487  0.00  0.00    +0.000 A 
ATOM      8  C   UNL     1       3.409   5.498  18.729  0.00  0.00    +0.000 A 
ATOM      9  C   UNL     1       4.297   5.732  17.658  0.00  0.00    +0.000 A 
ENDROOT
BRANCH   1  14
ATOM     10  C   UNL     1       7.479   4.768  12.442  0.00  0.00    +0.000 C 
ATOM     11  C   UNL     1       7.055   4.928  13.855  0.00  0.00    +0.000 A 
ATOM     12  N   UNL     1       7.733   5.568  14.783  0.00  0.00    +0.000 NA
ATOM     13  N   UNL     1       7.085   5.552  16.002  0.00  0.00    +0.000 NA
ATOM     14  C   UNL     1       5.951   4.876  15.968  0.00  0.00    +0.000 A 
ATOM     15  S   UNL     1       5.576   4.259  14.402  0.00  0.00    +0.000 S 
ENDBRANCH   1  14
BRANCH   7  16
ATOM     16  C   UNL     1       2.048   7.666  19.354  0.00  0.00    +0.000 A 
ATOM     17  C   UNL     1       1.453   8.350  20.424  0.00  0.00    +0.000 A 
ATOM     18  C   UNL     1       0.986   9.662  20.266  0.00  0.00    +0.000 A 
ATOM     19  C   UNL     1       1.129  10.326  19.043  0.00  0.00    +0.000 A 
ATOM     20  C   UNL     1       1.737   9.656  17.980  0.00  0.00    +0.000 A 
ATOM     21  C   UNL     1       2.184   8.338  18.132  0.00  0.00    +0.000 A 
BRANCH  19  22
ATOM     22  S   UNL     1       0.437  11.981  18.802  0.00  0.00    +0.000 S 
ATOM     23  C   UNL     1      -1.253  11.514  18.363  0.00  0.00    +0.000 C 
ATOM     24  O   UNL     1       0.386  12.668  20.213  0.00  0.00    +0.000 OA
ENDBRANCH  19  22
ENDBRANCH   7  16
TORSDOF 3
ENDMDL
MODEL 2
REMARK VINA RESULT:      -8.3      0.792      1.303
REMARK  Name = 
REMARK  5 active torsions:
REMARK  status: ('A' for Active; 'I' for Inactive)
REMARK    1  A    between atoms: C_1  and  C_2
REMARK    2  A    between atoms: C_5  and  C_6
REMARK    3  A    between atoms: C_12  and  C_13
REMARK    4  A    between atoms: C_16  and  S_17
REMARK    5  A    between atoms: S_17  and  C_18
REMARK                            x       y       z     vdW  Elec       q    Type
REMARK                         _______ _______ _______ _____ _____    ______ ____
ROOT
ATOM      1  C   UNL     1       5.071   4.705  17.138  0.00  0.00    +0.000 A 
ATOM      2  C   UNL     1       4.973   3.440  17.744  0.00  0.00    +0.000 A 
ATOM      3  C   UNL     1       4.145   3.210  18.852  0.00  0.00    +0.000 A 
ATOM      4  C   UNL     1       3.397   4.293  19.306  0.00  0.00    +0.000 A 
ATOM      5  O   UNL     1       2.528   4.265  20.350  0.00  0.00    +0.000 OA
ATOM      6  C   UNL     1       1.977   5.502  20.441  0.00  0.00    +0.000 A 
ATOM      7  C   UNL     1       2.483   6.350  19.471  0.00  0.00    +0.000 A 
ATOM      8  C   UNL     1       3.426   5.561  18.735  0.00  0.00    +0.000 A 
ATOM      9  C   UNL     1       4.296   5.768  17.645  0.00  0.00    +0.000 A 
ENDROOT
BRANCH   1  14
ATOM     10  C   UNL     1       7.440   4.652  12.435  0.00  0.00    +0.000 C 
ATOM     11  C   UNL     1       7.028   4.863  13.845  0.00  0.00    +0.000 A 
ATOM     12  N   UNL     1       7.699   5.560  14.735  0.00  0.00    +0.000 NA
ATOM     13  N   UNL     1       7.066   5.581  15.962  0.00  0.00    +0.000 NA
ATOM     14  C   UNL     1       5.948   4.878  15.971  0.00  0.00    +0.000 A 
ATOM     15  S   UNL     1       5.571   4.183  14.438  0.00  0.00    +0.000 S 
ENDBRANCH   1  14
BRANCH   7  16
ATOM     16  C   UNL     1       2.024   7.723  19.286  0.00  0.00    +0.000 A 
ATOM     17  C   UNL     1       2.181   8.384  18.059  0.00  0.00    +0.000 A 
ATOM     18  C   UNL     1       1.798   9.724  17.911  0.00  0.00    +0.000 A 
ATOM     19  C   UNL     1       1.225  10.422  18.979  0.00  0.00    +0.000 A 
ATOM     20  C   UNL     1       1.049   9.763  20.198  0.00  0.00    +0.000 A 
ATOM     21  C   UNL     1       1.452   8.431  20.351  0.00  0.00    +0.000 A 
BRANCH  19  22
ATOM     22  S   UNL     1       0.823  12.180  18.828  0.00  0.00    +0.000 S 
ATOM     23  C   UNL     1       0.775  12.607  20.583  0.00  0.00    +0.000 C 
ATOM     24  O   UNL     1       2.080  12.886  18.203  0.00  0.00    +0.000 OA
ENDBRANCH  19  22
ENDBRANCH   7  16
TORSDOF 3
ENDMDL
MODEL 3
REMARK VINA RESULT:      -7.7      4.378      8.390
REMARK  Name = 
REMARK  5 active torsions:
REMARK  status: ('A' for Active; 'I' for Inactive)
REMARK    1  A    between atoms: C_1  and  C_2
REMARK    2  A    between atoms: C_5  and  C_6
REMARK    3  A    between atoms: C_12  and  C_13
REMARK    4  A    between atoms: C_16  and  S_17
REMARK    5  A    between atoms: S_17  and  C_18
REMARK                            x       y       z     vdW  Elec       q    Type
REMARK                         _______ _______ _______ _____ _____    ______ ____
ROOT
ATOM      1  C   UNL     1      -1.633  10.703  18.965  0.00  0.00    +0.000 A 
ATOM      2  C   UNL     1      -1.689  11.737  19.917  0.00  0.00    +0.000 A 
ATOM      3  C   UNL     1      -0.914  11.711  21.085  0.00  0.00    +0.000 A 
ATOM      4  C   UNL     1      -0.059  10.623  21.242  0.00  0.00    +0.000 A 
ATOM      5  O   UNL     1       0.780  10.429  22.293  0.00  0.00    +0.000 OA
ATOM      6  C   UNL     1       1.463   9.283  22.048  0.00  0.00    +0.000 A 
ATOM      7  C   UNL     1       1.074   8.712  20.849  0.00  0.00    +0.000 A 
ATOM      8  C   UNL     1       0.065   9.584  20.326  0.00  0.00    +0.000 A 
ATOM      9  C   UNL     1      -0.755   9.621  19.179  0.00  0.00    +0.000 A 
ENDROOT
BRANCH   1  14
ATOM     10  C   UNL     1      -3.885  10.226  14.228  0.00  0.00    +0.000 C 
ATOM     11  C   UNL     1      -3.492  10.585  15.613  0.00  0.00    +0.000 A 
ATOM     12  N   UNL     1      -4.083  11.492  16.359  0.00  0.00    +0.000 NA
ATOM     13  N   UNL     1      -3.497  11.602  17.605  0.00  0.00    +0.000 NA
ATOM     14  C   UNL     1      -2.463  10.795  17.754  0.00  0.00    +0.000 A 
ATOM     15  S   UNL     1      -2.176   9.797  16.378  0.00  0.00    +0.000 S 
ENDBRANCH   1  14
BRANCH   7  16
ATOM     16  C   UNL     1       1.687   7.508  20.296  0.00  0.00    +0.000 A 
ATOM     17  C   UNL     1       1.572   6.269  20.944  0.00  0.00    +0.000 A 
ATOM     18  C   UNL     1       2.220   5.133  20.440  0.00  0.00    +0.000 A 
ATOM     19  C   UNL     1       2.972   5.206  19.263  0.00  0.00    +0.000 A 
ATOM     20  C   UNL     1       3.075   6.433  18.604  0.00  0.00    +0.000 A 
ATOM     21  C   UNL     1       2.445   7.573  19.120  0.00  0.00    +0.000 A 
BRANCH  19  22
ATOM     22  S   UNL     1       3.894   3.770  18.663  0.00  0.00    +0.000 S 
ATOM     23  C   UNL     1       4.165   4.304  16.958  0.00  0.00    +0.000 C 
ATOM     24  O   UNL     1       5.287   3.782  19.388  0.00  0.00    +0.000 OA
ENDBRANCH  19  22
ENDBRANCH   7  16
TORSDOF 3
ENDMDL
MODEL 4
REMARK VINA RESULT:      -7.6      3.177      7.654
REMARK  Name = 
REMARK  5 active torsions:
REMARK  status: ('A' for Active; 'I' for Inactive)
REMARK    1  A    between atoms: C_1  and  C_2
REMARK    2  A    between atoms: C_5  and  C_6
REMARK    3  A    between atoms: C_12  and  C_13
REMARK    4  A    between atoms: C_16  and  S_17
REMARK    5  A    between atoms: S_17  and  C_18
REMARK                            x       y       z     vdW  Elec       q    Type
REMARK                         _______ _______ _______ _____ _____    ______ ____
ROOT
ATOM      1  C   UNL     1       2.181   7.143  19.446  0.00  0.00    +0.000 A 
ATOM      2  C   UNL     1       1.778   6.434  20.591  0.00  0.00    +0.000 A 
ATOM      3  C   UNL     1       2.177   5.110  20.822  0.00  0.00    +0.000 A 
ATOM      4  C   UNL     1       3.022   4.539  19.874  0.00  0.00    +0.000 A 
ATOM      5  O   UNL     1       3.528   3.280  19.930  0.00  0.00    +0.000 OA
ATOM      6  C   UNL     1       4.331   3.126  18.847  0.00  0.00    +0.000 A 
ATOM      7  C   UNL     1       4.350   4.271  18.070  0.00  0.00    +0.000 A 
ATOM      8  C   UNL     1       3.479   5.194  18.736  0.00  0.00    +0.000 A 
ATOM      9  C   UNL     1       3.030   6.512  18.514  0.00  0.00    +0.000 A 
ENDROOT
BRANCH   1  14
ATOM     10  C   UNL     1       0.118  11.972  19.845  0.00  0.00    +0.000 C 
ATOM     11  C   UNL     1       0.809  10.724  19.439  0.00  0.00    +0.000 A 
ATOM     12  N   UNL     1       1.434  10.539  18.296  0.00  0.00    +0.000 NA
ATOM     13  N   UNL     1       1.985   9.276  18.204  0.00  0.00    +0.000 NA
ATOM     14  C   UNL     1       1.737   8.533  19.267  0.00  0.00    +0.000 A 
ATOM     15  S   UNL     1       0.849   9.369  20.487  0.00  0.00    +0.000 S 
ENDBRANCH   1  14
BRANCH   7  16
ATOM     16  C   UNL     1       5.179   4.419  16.877  0.00  0.00    +0.000 A 
ATOM     17  C   UNL     1       4.645   4.238  15.593  0.00  0.00    +0.000 A 
ATOM     18  C   UNL     1       5.465   4.317  14.458  0.00  0.00    +0.000 A 
ATOM     19  C   UNL     1       6.828   4.605  14.583  0.00  0.00    +0.000 A 
ATOM     20  C   UNL     1       7.360   4.805  15.858  0.00  0.00    +0.000 A 
ATOM     21  C   UNL     1       6.546   4.705  16.993  0.00  0.00    +0.000 A 
BRANCH  19  22
ATOM     22  S   UNL     1       7.910   4.607  13.133  0.00  0.00    +0.000 S 
ATOM     23  C   UNL     1       6.811   3.777  11.964  0.00  0.00    +0.000 C 
ATOM     24  O   UNL     1       8.054   6.100  12.668  0.00  0.00    +0.000 OA
ENDBRANCH  19  22
ENDBRANCH   7  16
TORSDOF 3
ENDMDL
MODEL 5
REMARK VINA RESULT:      -7.6      4.698      8.521
REMARK  Name = 
REMARK  5 active torsions:
REMARK  status: ('A' for Active; 'I' for Inactive)
REMARK    1  A    between atoms: C_1  and  C_2
REMARK    2  A    between atoms: C_5  and  C_6
REMARK    3  A    between atoms: C_12  and  C_13
REMARK    4  A    between atoms: C_16  and  S_17
REMARK    5  A    between atoms: S_17  and  C_18
REMARK                            x       y       z     vdW  Elec       q    Type
REMARK                         _______ _______ _______ _____ _____    ______ ____
ROOT
ATOM      1  C   UNL     1      -1.654  10.727  18.965  0.00  0.00    +0.000 A 
ATOM      2  C   UNL     1      -1.695  11.753  19.925  0.00  0.00    +0.000 A 
ATOM      3  C   UNL     1      -0.896  11.725  21.076  0.00  0.00    +0.000 A 
ATOM      4  C   UNL     1      -0.031  10.641  21.207  0.00  0.00    +0.000 A 
ATOM      5  O   UNL     1       0.831  10.445  22.238  0.00  0.00    +0.000 OA
ATOM      6  C   UNL     1       1.516   9.304  21.971  0.00  0.00    +0.000 A 
ATOM      7  C   UNL     1       1.105   8.739  20.777  0.00  0.00    +0.000 A 
ATOM      8  C   UNL     1       0.079   9.609  20.282  0.00  0.00    +0.000 A 
ATOM      9  C   UNL     1      -0.765   9.649  19.153  0.00  0.00    +0.000 A 
ENDROOT
BRANCH   1  14
ATOM     10  C   UNL     1      -3.985  10.291  14.263  0.00  0.00    +0.000 C 
ATOM     11  C   UNL     1      -3.575  10.630  15.648  0.00  0.00    +0.000 A 
ATOM     12  N   UNL     1      -4.177  11.504  16.425  0.00  0.00    +0.000 NA
ATOM     13  N   UNL     1      -3.569  11.603  17.661  0.00  0.00    +0.000 NA
ATOM     14  C   UNL     1      -2.510  10.822  17.773  0.00  0.00    +0.000 A 
ATOM     15  S   UNL     1      -2.223   9.862  16.369  0.00  0.00    +0.000 S 
ENDBRANCH   1  14
BRANCH   7  16
ATOM     16  C   UNL     1       1.712   7.542  20.202  0.00  0.00    +0.000 A 
ATOM     17  C   UNL     1       2.412   7.593  18.988  0.00  0.00    +0.000 A 
ATOM     18  C   UNL     1       2.934   6.426  18.412  0.00  0.00    +0.000 A 
ATOM     19  C   UNL     1       2.790   5.191  19.052  0.00  0.00    +0.000 A 
ATOM     20  C   UNL     1       2.110   5.138  20.271  0.00  0.00    +0.000 A 
ATOM     21  C   UNL     1       1.570   6.300  20.835  0.00  0.00    +0.000 A 
BRANCH  19  22
ATOM     22  S   UNL     1       3.370   3.668  18.266  0.00  0.00    +0.000 S 
ATOM     23  C   UNL     1       4.265   2.955  19.665  0.00  0.00    +0.000 C 
ATOM     24  O   UNL     1       2.105   2.773  18.008  0.00  0.00    +0.000 OA
ENDBRANCH  19  22
ENDBRANCH   7  16
TORSDOF 3
ENDMDL
MODEL 6
REMARK VINA RESULT:      -7.5      1.276      1.283
REMARK  Name = 
REMARK  5 active torsions:
REMARK  status: ('A' for Active; 'I' for Inactive)
REMARK    1  A    between atoms: C_1  and  C_2
REMARK    2  A    between atoms: C_5  and  C_6
REMARK    3  A    between atoms: C_12  and  C_13
REMARK    4  A    between atoms: C_16  and  S_17
REMARK    5  A    between atoms: S_17  and  C_18
REMARK                            x       y       z     vdW  Elec       q    Type
REMARK                         _______ _______ _______ _____ _____    ______ ____
ROOT
ATOM      1  C   UNL     1       4.557   4.228  17.015  0.00  0.00    +0.000 A 
ATOM      2  C   UNL     1       4.398   2.968  17.619  0.00  0.00    +0.000 A 
ATOM      3  C   UNL     1       3.656   2.797  18.795  0.00  0.00    +0.000 A 
ATOM      4  C   UNL     1       3.053   3.937  19.323  0.00  0.00    +0.000 A 
ATOM      5  O   UNL     1       2.283   3.972  20.441  0.00  0.00    +0.000 OA
ATOM      6  C   UNL     1       1.858   5.252  20.590  0.00  0.00    +0.000 A 
ATOM      7  C   UNL     1       2.351   6.065  19.585  0.00  0.00    +0.000 A 
ATOM      8  C   UNL     1       3.147   5.205  18.760  0.00  0.00    +0.000 A 
ATOM      9  C   UNL     1       3.932   5.350  17.597  0.00  0.00    +0.000 A 
ENDROOT
BRANCH   1  14
ATOM     10  C   UNL     1       8.006   5.344  13.196  0.00  0.00    +0.000 C 
ATOM     11  C   UNL     1       6.897   4.835  14.039  0.00  0.00    +0.000 A 
ATOM     12  N   UNL     1       5.953   4.013  13.636  0.00  0.00    +0.000 NA
ATOM     13  N   UNL     1       5.060   3.713  14.646  0.00  0.00    +0.000 NA
ATOM     14  C   UNL     1       5.339   4.338  15.775  0.00  0.00    +0.000 A 
ATOM     15  S   UNL     1       6.766   5.302  15.682  0.00  0.00    +0.000 S 
ENDBRANCH   1  14
BRANCH   7  16
ATOM     16  C   UNL     1       2.005   7.477  19.451  0.00  0.00    +0.000 A 
ATOM     17  C   UNL     1       1.434   8.190  20.515  0.00  0.00    +0.000 A 
ATOM     18  C   UNL     1       1.044   9.527  20.356  0.00  0.00    +0.000 A 
ATOM     19  C   UNL     1       1.243  10.186  19.138  0.00  0.00    +0.000 A 
ATOM     20  C   UNL     1       1.829   9.486  18.081  0.00  0.00    +0.000 A 
ATOM     21  C   UNL     1       2.197   8.144  18.234  0.00  0.00    +0.000 A 
BRANCH  19  22
ATOM     22  S   UNL     1       0.649  11.877  18.892  0.00  0.00    +0.000 S 
ATOM     23  C   UNL     1       0.507  12.376  20.624  0.00  0.00    +0.000 C 
ATOM     24  O   UNL     1       1.834  12.693  18.261  0.00  0.00    +0.000 OA
ENDBRANCH  19  22
ENDBRANCH   7  16
TORSDOF 3
ENDMDL
MODEL 7
REMARK VINA RESULT:      -7.4      1.262      1.667
REMARK  Name = 
REMARK  5 active torsions:
REMARK  status: ('A' for Active; 'I' for Inactive)
REMARK    1  A    between atoms: C_1  and  C_2
REMARK    2  A    between atoms: C_5  and  C_6
REMARK    3  A    between atoms: C_12  and  C_13
REMARK    4  A    between atoms: C_16  and  S_17
REMARK    5  A    between atoms: S_17  and  C_18
REMARK                            x       y       z     vdW  Elec       q    Type
REMARK                         _______ _______ _______ _____ _____    ______ ____
ROOT
ATOM      1  C   UNL     1       4.550   4.291  17.204  0.00  0.00    +0.000 A 
ATOM      2  C   UNL     1       4.452   3.042  17.843  0.00  0.00    +0.000 A 
ATOM      3  C   UNL     1       3.738   2.874  19.037  0.00  0.00    +0.000 A 
ATOM      4  C   UNL     1       3.100   4.002  19.546  0.00  0.00    +0.000 A 
ATOM      5  O   UNL     1       2.348   4.036  20.677  0.00  0.00    +0.000 OA
ATOM      6  C   UNL     1       1.875   5.302  20.801  0.00  0.00    +0.000 A 
ATOM      7  C   UNL     1       2.317   6.107  19.766  0.00  0.00    +0.000 A 
ATOM      8  C   UNL     1       3.133   5.257  18.949  0.00  0.00    +0.000 A 
ATOM      9  C   UNL     1       3.891   5.402  17.769  0.00  0.00    +0.000 A 
ENDROOT
BRANCH   1  14
ATOM     10  C   UNL     1       7.982   5.306  13.341  0.00  0.00    +0.000 C 
ATOM     11  C   UNL     1       6.854   4.851  14.191  0.00  0.00    +0.000 A 
ATOM     12  N   UNL     1       5.830   4.138  13.776  0.00  0.00    +0.000 NA
ATOM     13  N   UNL     1       4.941   3.864  14.797  0.00  0.00    +0.000 NA
ATOM     14  C   UNL     1       5.305   4.400  15.947  0.00  0.00    +0.000 A 
ATOM     15  S   UNL     1       6.810   5.238  15.860  0.00  0.00    +0.000 S 
ENDBRANCH   1  14
BRANCH   7  16
ATOM     16  C   UNL     1       1.913   7.500  19.603  0.00  0.00    +0.000 A 
ATOM     17  C   UNL     1       2.079   8.167  18.380  0.00  0.00    +0.000 A 
ATOM     18  C   UNL     1       1.749   9.524  18.253  0.00  0.00    +0.000 A 
ATOM     19  C   UNL     1       1.222  10.233  19.338  0.00  0.00    +0.000 A 
ATOM     20  C   UNL     1       1.038   9.568  20.552  0.00  0.00    +0.000 A 
ATOM     21  C   UNL     1       1.387   8.219  20.684  0.00  0.00    +0.000 A 
BRANCH  19  22
ATOM     22  S   UNL     1       0.891  12.008  19.211  0.00  0.00    +0.000 S 
ATOM     23  C   UNL     1       2.312  12.484  18.200  0.00  0.00    +0.000 C 
ATOM     24  O   UNL     1      -0.395  12.173  18.326  0.00  0.00    +0.000 OA
ENDBRANCH  19  22
ENDBRANCH   7  16
TORSDOF 3
ENDMDL
MODEL 8
REMARK VINA RESULT:      -7.3      3.180      7.615
REMARK  Name = 
REMARK  5 active torsions:
REMARK  status: ('A' for Active; 'I' for Inactive)
REMARK    1  A    between atoms: C_1  and  C_2
REMARK    2  A    between atoms: C_5  and  C_6
REMARK    3  A    between atoms: C_12  and  C_13
REMARK    4  A    between atoms: C_16  and  S_17
REMARK    5  A    between atoms: S_17  and  C_18
REMARK                            x       y       z     vdW  Elec       q    Type
REMARK                         _______ _______ _______ _____ _____    ______ ____
ROOT
ATOM      1  C   UNL     1       1.439   9.332  19.605  0.00  0.00    +0.000 A 
ATOM      2  C   UNL     1       0.808   9.035  20.826  0.00  0.00    +0.000 A 
ATOM      3  C   UNL     1       0.822   7.745  21.374  0.00  0.00    +0.000 A 
ATOM      4  C   UNL     1       1.521   6.774  20.663  0.00  0.00    +0.000 A 
ATOM      5  O   UNL     1       1.663   5.476  21.037  0.00  0.00    +0.000 OA
ATOM      6  C   UNL     1       2.441   4.875  20.102  0.00  0.00    +0.000 A 
ATOM      7  C   UNL     1       2.806   5.765  19.106  0.00  0.00    +0.000 A 
ATOM      8  C   UNL     1       2.190   7.007  19.466  0.00  0.00    +0.000 A 
ATOM      9  C   UNL     1       2.126   8.307  18.923  0.00  0.00    +0.000 A 
ENDROOT
BRANCH   1  14
ATOM     10  C   UNL     1       0.419  14.379  18.500  0.00  0.00    +0.000 C 
ATOM     11  C   UNL     1       0.947  12.995  18.584  0.00  0.00    +0.000 A 
ATOM     12  N   UNL     1       1.929  12.512  17.854  0.00  0.00    +0.000 NA
ATOM     13  N   UNL     1       2.201  11.192  18.159  0.00  0.00    +0.000 NA
ATOM     14  C   UNL     1       1.398  10.709  19.090  0.00  0.00    +0.000 A 
ATOM     15  S   UNL     1       0.283  11.875  19.697  0.00  0.00    +0.000 S 
ENDBRANCH   1  14
BRANCH   7  16
ATOM     16  C   UNL     1       3.697   5.415  18.003  0.00  0.00    +0.000 A 
ATOM     17  C   UNL     1       3.740   4.112  17.488  0.00  0.00    +0.000 A 
ATOM     18  C   UNL     1       4.646   3.771  16.474  0.00  0.00    +0.000 A 
ATOM     19  C   UNL     1       5.508   4.733  15.937  0.00  0.00    +0.000 A 
ATOM     20  C   UNL     1       5.457   6.037  16.435  0.00  0.00    +0.000 A 
ATOM     21  C   UNL     1       4.566   6.371  17.462  0.00  0.00    +0.000 A 
BRANCH  19  22
ATOM     22  S   UNL     1       6.750   4.277  14.703  0.00  0.00    +0.000 S 
ATOM     23  C   UNL     1       5.646   3.892  13.326  0.00  0.00    +0.000 C 
ATOM     24  O   UNL     1       7.531   5.588  14.331  0.00  0.00    +0.000 OA
ENDBRANCH  19  22
ENDBRANCH   7  16
TORSDOF 3
ENDMDL
MODEL 9
REMARK VINA RESULT:      -7.3      4.775      8.516
REMARK  Name = 
REMARK  5 active torsions:
REMARK  status: ('A' for Active; 'I' for Inactive)
REMARK    1  A    between atoms: C_1  and  C_2
REMARK    2  A    between atoms: C_5  and  C_6
REMARK    3  A    between atoms: C_12  and  C_13
REMARK    4  A    between atoms: C_16  and  S_17
REMARK    5  A    between atoms: S_17  and  C_18
REMARK                            x       y       z     vdW  Elec       q    Type
REMARK                         _______ _______ _______ _____ _____    ______ ____
ROOT
ATOM      1  C   UNL     1      -1.919  10.920  18.717  0.00  0.00    +0.000 A 
ATOM      2  C   UNL     1      -2.058  11.982  19.627  0.00  0.00    +0.000 A 
ATOM      3  C   UNL     1      -1.308  12.048  20.810  0.00  0.00    +0.000 A 
ATOM      4  C   UNL     1      -0.392  11.022  21.026  0.00  0.00    +0.000 A 
ATOM      5  O   UNL     1       0.434  10.919  22.099  0.00  0.00    +0.000 OA
ATOM      6  C   UNL     1       1.191   9.809  21.913  0.00  0.00    +0.000 A 
ATOM      7  C   UNL     1       0.864   9.171  20.729  0.00  0.00    +0.000 A 
ATOM      8  C   UNL     1      -0.186   9.959  20.154  0.00  0.00    +0.000 A 
ATOM      9  C   UNL     1      -0.981   9.902  18.990  0.00  0.00    +0.000 A 
ENDROOT
BRANCH   1  14
ATOM     10  C   UNL     1      -4.042  10.115  13.966  0.00  0.00    +0.000 C 
ATOM     11  C   UNL     1      -3.697  10.556  15.340  0.00  0.00    +0.000 A 
ATOM     12  N   UNL     1      -4.348  11.466  16.031  0.00  0.00    +0.000 NA
ATOM     13  N   UNL     1      -3.795  11.661  17.282  0.00  0.00    +0.000 NA
ATOM     14  C   UNL     1      -2.726  10.914  17.488  0.00  0.00    +0.000 A 
ATOM     15  S   UNL     1      -2.361   9.870  16.165  0.00  0.00    +0.000 S 
ENDBRANCH   1  14
BRANCH   7  16
ATOM     16  C   UNL     1       1.560   7.987  20.235  0.00  0.00    +0.000 A 
ATOM     17  C   UNL     1       2.227   7.997  19.001  0.00  0.00    +0.000 A 
ATOM     18  C   UNL     1       2.835   6.835  18.505  0.00  0.00    +0.000 A 
ATOM     19  C   UNL     1       2.813   5.649  19.246  0.00  0.00    +0.000 A 
ATOM     20  C   UNL     1       2.167   5.639  20.484  0.00  0.00    +0.000 A 
ATOM     21  C   UNL     1       1.541   6.793  20.968  0.00  0.00    +0.000 A 
BRANCH  19  22
ATOM     22  S   UNL     1       3.506   4.121  18.567  0.00  0.00    +0.000 S 
ATOM     23  C   UNL     1       2.129   3.641  17.500  0.00  0.00    +0.000 C 
ATOM     24  O   UNL     1       4.704   4.533  17.638  0.00  0.00    +0.000 OA
ENDBRANCH  19  22
ENDBRANCH   7  16
TORSDOF 3
ENDMDL
