MODEL 1
REMARK VINA RESULT:      -9.4      0.000      0.000
REMARK  Name = 
REMARK  5 active torsions:
REMARK  status: ('A' for Active; 'I' for Inactive)
REMARK    1  A    between atoms: N_1  and  C_2
REMARK    2  A    between atoms: C_5  and  C_6
REMARK    3  A    between atoms: C_8  and  N_9
REMARK    4  A    between atoms: C_26  and  O_27
REMARK    5  A    between atoms: O_27  and  C_28
REMARK                            x       y       z     vdW  Elec       q    Type
REMARK                         _______ _______ _______ _____ _____    ______ ____
ROOT
ATOM      1  C   UNL     1       2.992   6.736  18.680  0.00  0.00    +0.000 A 
ATOM      2  C   UNL     1       3.729   6.555  17.531  0.00  0.00    +0.000 A 
ATOM      3  C   UNL     1       4.393   5.367  17.366  0.00  0.00    +0.000 A 
ATOM      4  N   UNL     1       4.318   4.418  18.307  0.00  0.00    +0.000 NA
ATOM      5  C   UNL     1       3.571   4.635  19.411  0.00  0.00    +0.000 A 
ATOM      6  N   UNL     1       3.435   3.587  20.350  0.00  0.00    +0.000 N 
ATOM      7  C   UNL     1       3.544   2.247  19.745  0.00  0.00    +0.000 C 
ATOM      8  C   UNL     1       2.083   1.815  19.528  0.00  0.00    +0.000 C 
ATOM      9  C   UNL     1       1.370   2.378  20.729  0.00  0.00    +0.000 C 
ATOM     10  C   UNL     1       0.796   3.763  20.740  0.00  0.00    +0.000 C 
ATOM     11  C   UNL     1       2.208   3.556  21.200  0.00  0.00    +0.000 C 
ATOM     12  N   UNL     1       2.918   5.787  19.628  0.00  0.00    +0.000 NA
ENDROOT
BRANCH   3  13
ATOM     13  N   UNL     1       5.052   5.107  16.196  0.00  0.00    +0.000 N 
ATOM     14  C   UNL     1       5.419   6.133  15.208  0.00  0.00    +0.000 C 
ATOM     15  C   UNL     1       6.499   5.374  14.395  0.00  0.00    +0.000 C 
ATOM     16  C   UNL     1       6.008   3.935  14.466  0.00  0.00    +0.000 C 
ATOM     17  C   UNL     1       5.962   3.969  15.994  0.00  0.00    +0.000 C 
ATOM     18  C   UNL     1       7.407   4.414  16.278  0.00  0.00    +0.000 C 
ATOM     19  O   UNL     1       7.720   5.336  15.186  0.00  0.00    +0.000 OA
ENDBRANCH   3  13
BRANCH   1  23
ATOM     20  C   UNL     1       0.772  10.326  19.236  0.00  0.00    +0.000 A 
ATOM     21  N   UNL     1       1.133   9.957  17.993  0.00  0.00    +0.000 NA
ATOM     22  C   UNL     1       1.807   8.784  17.847  0.00  0.00    +0.000 A 
ATOM     23  C   UNL     1       2.189   7.954  18.890  0.00  0.00    +0.000 A 
ATOM     24  C   UNL     1       1.798   8.376  20.167  0.00  0.00    +0.000 A 
ATOM     25  C   UNL     1       1.065   9.551  20.358  0.00  0.00    +0.000 A 
BRANCH  20  26
ATOM     26  N   UNL     1       0.075  11.535  19.295  0.00  0.00    +0.000 N 
ATOM     27  H   UNL     1      -0.190  11.633  20.277  0.00  0.00    +0.000 HD
ATOM     28  H   UNL     1       0.716  12.291  19.058  0.00  0.00    +0.000 HD
ENDBRANCH  20  26
BRANCH  25  29
ATOM     29  O   UNL     1       0.774   9.789  21.669  0.00  0.00    +0.000 OA
BRANCH  29  30
ATOM     30  C   UNL     1      -0.505   9.416  22.144  0.00  0.00    +0.000 C 
ATOM     31  F   UNL     1      -0.786   8.133  21.795  0.00  0.00    +0.000 F 
ATOM     32  F   UNL     1      -0.431   9.422  23.501  0.00  0.00    +0.000 F 
ENDBRANCH  29  30
ENDBRANCH  25  29
ENDBRANCH   1  23
TORSDOF 5
ENDMDL
MODEL 2
REMARK VINA RESULT:      -8.7      0.778      1.268
REMARK  Name = 
REMARK  5 active torsions:
REMARK  status: ('A' for Active; 'I' for Inactive)
REMARK    1  A    between atoms: N_1  and  C_2
REMARK    2  A    between atoms: C_5  and  C_6
REMARK    3  A    between atoms: C_8  and  N_9
REMARK    4  A    between atoms: C_26  and  O_27
REMARK    5  A    between atoms: O_27  and  C_28
REMARK                            x       y       z     vdW  Elec       q    Type
REMARK                         _______ _______ _______ _____ _____    ______ ____
ROOT
ATOM      1  C   UNL     1       3.101   7.000  18.747  0.00  0.00    +0.000 A 
ATOM      2  C   UNL     1       4.091   6.848  17.802  0.00  0.00    +0.000 A 
ATOM      3  C   UNL     1       4.838   5.698  17.822  0.00  0.00    +0.000 A 
ATOM      4  N   UNL     1       4.600   4.758  18.745  0.00  0.00    +0.000 NA
ATOM      5  C   UNL     1       3.610   4.945  19.643  0.00  0.00    +0.000 A 
ATOM      6  N   UNL     1       3.318   3.902  20.552  0.00  0.00    +0.000 N 
ATOM      7  C   UNL     1       3.635   2.563  20.022  0.00  0.00    +0.000 C 
ATOM      8  C   UNL     1       2.288   2.045  19.488  0.00  0.00    +0.000 C 
ATOM      9  C   UNL     1       1.289   2.580  20.480  0.00  0.00    +0.000 C 
ATOM     10  C   UNL     1       0.654   3.930  20.324  0.00  0.00    +0.000 C 
ATOM     11  C   UNL     1       1.932   3.811  21.100  0.00  0.00    +0.000 C 
ATOM     12  N   UNL     1       2.862   6.059  19.676  0.00  0.00    +0.000 NA
ENDROOT
BRANCH   3  13
ATOM     13  N   UNL     1       5.761   5.462  16.841  0.00  0.00    +0.000 N 
ATOM     14  C   UNL     1       6.847   4.476  16.947  0.00  0.00    +0.000 C 
ATOM     15  C   UNL     1       7.234   4.316  15.454  0.00  0.00    +0.000 C 
ATOM     16  C   UNL     1       6.961   5.705  14.897  0.00  0.00    +0.000 C 
ATOM     17  C   UNL     1       5.520   5.685  15.407  0.00  0.00    +0.000 C 
ATOM     18  C   UNL     1       5.042   4.374  14.759  0.00  0.00    +0.000 C 
ATOM     19  O   UNL     1       6.217   3.504  14.805  0.00  0.00    +0.000 OA
ENDBRANCH   3  13
BRANCH   1  23
ATOM     20  C   UNL     1       0.623  10.461  18.692  0.00  0.00    +0.000 A 
ATOM     21  N   UNL     1       1.294  10.109  17.579  0.00  0.00    +0.000 NA
ATOM     22  C   UNL     1       2.045   8.975  17.619  0.00  0.00    +0.000 A 
ATOM     23  C   UNL     1       2.207   8.171  18.737  0.00  0.00    +0.000 A 
ATOM     24  C   UNL     1       1.496   8.573  19.874  0.00  0.00    +0.000 A 
ATOM     25  C   UNL     1       0.677   9.706  19.864  0.00  0.00    +0.000 A 
BRANCH  20  26
ATOM     26  N   UNL     1      -0.131  11.629  18.562  0.00  0.00    +0.000 N 
ATOM     27  H   UNL     1      -0.306  11.933  19.521  0.00  0.00    +0.000 HD
ATOM     28  H   UNL     1       0.441  12.336  18.101  0.00  0.00    +0.000 HD
ENDBRANCH  20  26
BRANCH  25  29
ATOM     29  O   UNL     1       0.065   9.932  21.062  0.00  0.00    +0.000 OA
BRANCH  29  30
ATOM     30  C   UNL     1       0.225   8.964  22.081  0.00  0.00    +0.000 C 
ATOM     31  F   UNL     1       0.256   9.559  23.302  0.00  0.00    +0.000 F 
ATOM     32  F   UNL     1      -0.900   8.202  22.071  0.00  0.00    +0.000 F 
ENDBRANCH  29  30
ENDBRANCH  25  29
ENDBRANCH   1  23
TORSDOF 5
ENDMDL
MODEL 3
REMARK VINA RESULT:      -8.1      2.077      4.682
REMARK  Name = 
REMARK  5 active torsions:
REMARK  status: ('A' for Active; 'I' for Inactive)
REMARK    1  A    between atoms: N_1  and  C_2
REMARK    2  A    between atoms: C_5  and  C_6
REMARK    3  A    between atoms: C_8  and  N_9
REMARK    4  A    between atoms: C_26  and  O_27
REMARK    5  A    between atoms: O_27  and  C_28
REMARK                            x       y       z     vdW  Elec       q    Type
REMARK                         _______ _______ _______ _____ _____    ______ ____
ROOT
ATOM      1  C   UNL     1       2.765   7.280  18.003  0.00  0.00    +0.000 A 
ATOM      2  C   UNL     1       2.142   6.103  18.357  0.00  0.00    +0.000 A 
ATOM      3  C   UNL     1       2.761   4.921  18.042  0.00  0.00    +0.000 A 
ATOM      4  N   UNL     1       3.938   4.926  17.407  0.00  0.00    +0.000 NA
ATOM      5  C   UNL     1       4.518   6.104  17.093  0.00  0.00    +0.000 A 
ATOM      6  N   UNL     1       5.802   6.088  16.501  0.00  0.00    +0.000 N 
ATOM      7  C   UNL     1       6.605   4.913  16.886  0.00  0.00    +0.000 C 
ATOM      8  C   UNL     1       7.490   5.426  18.036  0.00  0.00    +0.000 C 
ATOM      9  C   UNL     1       7.813   6.839  17.624  0.00  0.00    +0.000 C 
ATOM     10  C   UNL     1       6.935   7.997  17.990  0.00  0.00    +0.000 C 
ATOM     11  C   UNL     1       6.686   7.274  16.700  0.00  0.00    +0.000 C 
ATOM     12  N   UNL     1       3.946   7.288  17.362  0.00  0.00    +0.000 NA
ENDROOT
BRANCH   3  13
ATOM     13  N   UNL     1       2.227   3.735  18.465  0.00  0.00    +0.000 N 
ATOM     14  C   UNL     1       3.021   2.538  18.784  0.00  0.00    +0.000 C 
ATOM     15  C   UNL     1       1.994   1.728  19.618  0.00  0.00    +0.000 C 
ATOM     16  C   UNL     1       0.672   2.123  18.976  0.00  0.00    +0.000 C 
ATOM     17  C   UNL     1       0.951   3.611  19.186  0.00  0.00    +0.000 C 
ATOM     18  C   UNL     1       1.220   3.604  20.701  0.00  0.00    +0.000 C 
ATOM     19  O   UNL     1       1.903   2.333  20.938  0.00  0.00    +0.000 OA
ENDBRANCH   3  13
BRANCH   1  23
ATOM     20  C   UNL     1       1.255  11.104  19.106  0.00  0.00    +0.000 A 
ATOM     21  N   UNL     1       2.043  10.991  18.021  0.00  0.00    +0.000 NA
ATOM     22  C   UNL     1       2.475   9.749  17.673  0.00  0.00    +0.000 A 
ATOM     23  C   UNL     1       2.200   8.588  18.379  0.00  0.00    +0.000 A 
ATOM     24  C   UNL     1       1.380   8.748  19.503  0.00  0.00    +0.000 A 
ATOM     25  C   UNL     1       0.877  10.000  19.870  0.00  0.00    +0.000 A 
BRANCH  20  26
ATOM     26  N   UNL     1       0.847  12.410  19.385  0.00  0.00    +0.000 N 
ATOM     27  H   UNL     1       1.356  12.990  18.716  0.00  0.00    +0.000 HD
ATOM     28  H   UNL     1      -0.150  12.490  19.186  0.00  0.00    +0.000 HD
ENDBRANCH  20  26
BRANCH  25  29
ATOM     29  O   UNL     1       0.097   9.953  20.987  0.00  0.00    +0.000 OA
BRANCH  29  30
ATOM     30  C   UNL     1       0.287   8.876  21.885  0.00  0.00    +0.000 C 
ATOM     31  F   UNL     1       0.374   9.331  23.163  0.00  0.00    +0.000 F 
ATOM     32  F   UNL     1      -0.845   8.126  21.836  0.00  0.00    +0.000 F 
ENDBRANCH  29  30
ENDBRANCH  25  29
ENDBRANCH   1  23
TORSDOF 5
ENDMDL
MODEL 4
REMARK VINA RESULT:      -8.1      3.072      6.871
REMARK  Name = 
REMARK  5 active torsions:
REMARK  status: ('A' for Active; 'I' for Inactive)
REMARK    1  A    between atoms: N_1  and  C_2
REMARK    2  A    between atoms: C_5  and  C_6
REMARK    3  A    between atoms: C_8  and  N_9
REMARK    4  A    between atoms: C_26  and  O_27
REMARK    5  A    between atoms: O_27  and  C_28
REMARK                            x       y       z     vdW  Elec       q    Type
REMARK                         _______ _______ _______ _____ _____    ______ ____
ROOT
ATOM      1  C   UNL     1       3.593   5.882  17.930  0.00  0.00    +0.000 A 
ATOM      2  C   UNL     1       3.153   7.086  18.431  0.00  0.00    +0.000 A 
ATOM      3  C   UNL     1       2.138   7.074  19.353  0.00  0.00    +0.000 A 
ATOM      4  N   UNL     1       1.598   5.913  19.744  0.00  0.00    +0.000 NA
ATOM      5  C   UNL     1       2.072   4.756  19.235  0.00  0.00    +0.000 A 
ATOM      6  N   UNL     1       1.548   3.538  19.726  0.00  0.00    +0.000 N 
ATOM      7  C   UNL     1       1.073   3.630  21.119  0.00  0.00    +0.000 C 
ATOM      8  C   UNL     1       2.250   3.092  21.952  0.00  0.00    +0.000 C 
ATOM      9  C   UNL     1       2.806   1.985  21.095  0.00  0.00    +0.000 C 
ATOM     10  C   UNL     1       3.857   2.232  20.055  0.00  0.00    +0.000 C 
ATOM     11  C   UNL     1       2.412   2.322  19.665  0.00  0.00    +0.000 C 
ATOM     12  N   UNL     1       3.051   4.715  18.318  0.00  0.00    +0.000 NA
ENDROOT
BRANCH   3  13
ATOM     13  N   UNL     1       1.741   8.238  19.951  0.00  0.00    +0.000 N 
ATOM     14  C   UNL     1       1.236   9.411  19.222  0.00  0.00    +0.000 C 
ATOM     15  C   UNL     1       0.531  10.180  20.369  0.00  0.00    +0.000 C 
ATOM     16  C   UNL     1       1.394   9.828  21.573  0.00  0.00    +0.000 C 
ATOM     17  C   UNL     1       1.223   8.329  21.325  0.00  0.00    +0.000 C 
ATOM     18  C   UNL     1      -0.313   8.252  21.298  0.00  0.00    +0.000 C 
ATOM     19  O   UNL     1      -0.724   9.505  20.665  0.00  0.00    +0.000 OA
ENDBRANCH   3  13
BRANCH   1  23
ATOM     20  C   UNL     1       6.901   5.552  15.271  0.00  0.00    +0.000 A 
ATOM     21  N   UNL     1       5.817   4.778  15.077  0.00  0.00    +0.000 NA
ATOM     22  C   UNL     1       4.762   4.938  15.922  0.00  0.00    +0.000 A 
ATOM     23  C   UNL     1       4.732   5.811  16.997  0.00  0.00    +0.000 A 
ATOM     24  C   UNL     1       5.880   6.595  17.166  0.00  0.00    +0.000 A 
ATOM     25  C   UNL     1       6.969   6.496  16.295  0.00  0.00    +0.000 A 
BRANCH  20  26
ATOM     26  N   UNL     1       7.933   5.333  14.355  0.00  0.00    +0.000 N 
ATOM     27  H   UNL     1       8.247   4.380  14.542  0.00  0.00    +0.000 HD
ATOM     28  H   UNL     1       7.544   5.365  13.413  0.00  0.00    +0.000 HD
ENDBRANCH  20  26
BRANCH  25  29
ATOM     29  O   UNL     1       7.989   7.342  16.620  0.00  0.00    +0.000 OA
BRANCH  29  30
ATOM     30  C   UNL     1       7.904   8.043  17.845  0.00  0.00    +0.000 C 
ATOM     31  F   UNL     1       8.632   7.414  18.806  0.00  0.00    +0.000 F 
ATOM     32  F   UNL     1       8.513   9.243  17.648  0.00  0.00    +0.000 F 
ENDBRANCH  29  30
ENDBRANCH  25  29
ENDBRANCH   1  23
TORSDOF 5
ENDMDL
MODEL 5
REMARK VINA RESULT:      -8.0      2.104      2.381
REMARK  Name = 
REMARK  5 active torsions:
REMARK  status: ('A' for Active; 'I' for Inactive)
REMARK    1  A    between atoms: N_1  and  C_2
REMARK    2  A    between atoms: C_5  and  C_6
REMARK    3  A    between atoms: C_8  and  N_9
REMARK    4  A    between atoms: C_26  and  O_27
REMARK    5  A    between atoms: O_27  and  C_28
REMARK                            x       y       z     vdW  Elec       q    Type
REMARK                         _______ _______ _______ _____ _____    ______ ____
ROOT
ATOM      1  C   UNL     1       2.966   6.660  19.054  0.00  0.00    +0.000 A 
ATOM      2  C   UNL     1       3.634   6.602  17.851  0.00  0.00    +0.000 A 
ATOM      3  C   UNL     1       4.297   5.445  17.532  0.00  0.00    +0.000 A 
ATOM      4  N   UNL     1       4.288   4.409  18.379  0.00  0.00    +0.000 NA
ATOM      5  C   UNL     1       3.607   4.507  19.540  0.00  0.00    +0.000 A 
ATOM      6  N   UNL     1       3.538   3.371  20.380  0.00  0.00    +0.000 N 
ATOM      7  C   UNL     1       3.622   2.098  19.642  0.00  0.00    +0.000 C 
ATOM      8  C   UNL     1       2.154   1.667  19.471  0.00  0.00    +0.000 C 
ATOM      9  C   UNL     1       1.510   2.101  20.762  0.00  0.00    +0.000 C 
ATOM     10  C   UNL     1       0.925   3.470  20.941  0.00  0.00    +0.000 C 
ATOM     11  C   UNL     1       2.365   3.241  21.294  0.00  0.00    +0.000 C 
ATOM     12  N   UNL     1       2.958   5.623  19.908  0.00  0.00    +0.000 NA
ENDROOT
BRANCH   3  13
ATOM     13  N   UNL     1       4.887   5.309  16.305  0.00  0.00    +0.000 N 
ATOM     14  C   UNL     1       5.343   6.436  15.478  0.00  0.00    +0.000 C 
ATOM     15  C   UNL     1       6.302   5.705  14.503  0.00  0.00    +0.000 C 
ATOM     16  C   UNL     1       5.646   4.339  14.366  0.00  0.00    +0.000 C 
ATOM     17  C   UNL     1       5.650   4.125  15.880  0.00  0.00    +0.000 C 
ATOM     18  C   UNL     1       7.145   4.353  16.162  0.00  0.00    +0.000 C 
ATOM     19  O   UNL     1       7.532   5.401  15.218  0.00  0.00    +0.000 OA
ENDBRANCH   3  13
BRANCH   1  23
ATOM     20  C   UNL     1       0.546   9.993  20.128  0.00  0.00    +0.000 A 
ATOM     21  N   UNL     1       0.574   8.911  20.928  0.00  0.00    +0.000 NA
ATOM     22  C   UNL     1       1.389   7.880  20.575  0.00  0.00    +0.000 A 
ATOM     23  C   UNL     1       2.166   7.840  19.428  0.00  0.00    +0.000 A 
ATOM     24  C   UNL     1       2.105   8.983  18.622  0.00  0.00    +0.000 A 
ATOM     25  C   UNL     1       1.317  10.084  18.969  0.00  0.00    +0.000 A 
BRANCH  20  26
ATOM     26  N   UNL     1      -0.306  11.009  20.568  0.00  0.00    +0.000 N 
ATOM     27  H   UNL     1       0.073  11.862  20.155  0.00  0.00    +0.000 HD
ATOM     28  H   UNL     1      -1.234  10.848  20.176  0.00  0.00    +0.000 HD
ENDBRANCH  20  26
BRANCH  25  29
ATOM     29  O   UNL     1       1.392  11.100  18.063  0.00  0.00    +0.000 OA
BRANCH  29  30
ATOM     30  C   UNL     1       2.008  12.307  18.469  0.00  0.00    +0.000 C 
ATOM     31  F   UNL     1       3.174  12.497  17.797  0.00  0.00    +0.000 F 
ATOM     32  F   UNL     1       1.185  13.314  18.073  0.00  0.00    +0.000 F 
ENDBRANCH  29  30
ENDBRANCH  25  29
ENDBRANCH   1  23
TORSDOF 5
ENDMDL
MODEL 6
REMARK VINA RESULT:      -8.0      1.949      2.256
REMARK  Name = 
REMARK  5 active torsions:
REMARK  status: ('A' for Active; 'I' for Inactive)
REMARK    1  A    between atoms: N_1  and  C_2
REMARK    2  A    between atoms: C_5  and  C_6
REMARK    3  A    between atoms: C_8  and  N_9
REMARK    4  A    between atoms: C_26  and  O_27
REMARK    5  A    between atoms: O_27  and  C_28
REMARK                            x       y       z     vdW  Elec       q    Type
REMARK                         _______ _______ _______ _____ _____    ______ ____
ROOT
ATOM      1  C   UNL     1       2.836   6.752  19.083  0.00  0.00    +0.000 A 
ATOM      2  C   UNL     1       3.519   6.708  17.888  0.00  0.00    +0.000 A 
ATOM      3  C   UNL     1       4.202   5.562  17.571  0.00  0.00    +0.000 A 
ATOM      4  N   UNL     1       4.197   4.522  18.413  0.00  0.00    +0.000 NA
ATOM      5  C   UNL     1       3.502   4.605  19.567  0.00  0.00    +0.000 A 
ATOM      6  N   UNL     1       3.438   3.465  20.401  0.00  0.00    +0.000 N 
ATOM      7  C   UNL     1       3.549   2.196  19.659  0.00  0.00    +0.000 C 
ATOM      8  C   UNL     1       2.089   1.746  19.468  0.00  0.00    +0.000 C 
ATOM      9  C   UNL     1       1.424   2.165  20.754  0.00  0.00    +0.000 C 
ATOM     10  C   UNL     1       0.818   3.525  20.932  0.00  0.00    +0.000 C 
ATOM     11  C   UNL     1       2.256   3.314  21.301  0.00  0.00    +0.000 C 
ATOM     12  N   UNL     1       2.832   5.710  19.932  0.00  0.00    +0.000 NA
ENDROOT
BRANCH   3  13
ATOM     13  N   UNL     1       4.807   5.439  16.351  0.00  0.00    +0.000 N 
ATOM     14  C   UNL     1       5.278   6.576  15.544  0.00  0.00    +0.000 C 
ATOM     15  C   UNL     1       6.248   5.854  14.573  0.00  0.00    +0.000 C 
ATOM     16  C   UNL     1       5.589   4.492  14.410  0.00  0.00    +0.000 C 
ATOM     17  C   UNL     1       5.572   4.259  15.921  0.00  0.00    +0.000 C 
ATOM     18  C   UNL     1       7.064   4.478  16.226  0.00  0.00    +0.000 C 
ATOM     19  O   UNL     1       7.467   5.537  15.300  0.00  0.00    +0.000 OA
ENDBRANCH   3  13
BRANCH   1  23
ATOM     20  C   UNL     1       0.384  10.041  20.218  0.00  0.00    +0.000 A 
ATOM     21  N   UNL     1       0.994   9.311  21.170  0.00  0.00    +0.000 NA
ATOM     22  C   UNL     1       1.802   8.291  20.771  0.00  0.00    +0.000 A 
ATOM     23  C   UNL     1       2.016   7.919  19.453  0.00  0.00    +0.000 A 
ATOM     24  C   UNL     1       1.361   8.701  18.494  0.00  0.00    +0.000 A 
ATOM     25  C   UNL     1       0.557   9.785  18.858  0.00  0.00    +0.000 A 
BRANCH  20  26
ATOM     26  N   UNL     1      -0.417  11.073  20.712  0.00  0.00    +0.000 N 
ATOM     27  H   UNL     1      -0.768  10.724  21.606  0.00  0.00    +0.000 HD
ATOM     28  H   UNL     1       0.173  11.884  20.894  0.00  0.00    +0.000 HD
ENDBRANCH  20  26
BRANCH  25  29
ATOM     29  O   UNL     1       0.010  10.426  17.786  0.00  0.00    +0.000 OA
BRANCH  29  30
ATOM     30  C   UNL     1      -1.387  10.319  17.591  0.00  0.00    +0.000 C 
ATOM     31  F   UNL     1      -1.865  11.421  16.955  0.00  0.00    +0.000 F 
ATOM     32  F   UNL     1      -1.581   9.284  16.732  0.00  0.00    +0.000 F 
ENDBRANCH  29  30
ENDBRANCH  25  29
ENDBRANCH   1  23
TORSDOF 5
ENDMDL
MODEL 7
REMARK VINA RESULT:      -8.0      3.615      7.477
REMARK  Name = 
REMARK  5 active torsions:
REMARK  status: ('A' for Active; 'I' for Inactive)
REMARK    1  A    between atoms: N_1  and  C_2
REMARK    2  A    between atoms: C_5  and  C_6
REMARK    3  A    between atoms: C_8  and  N_9
REMARK    4  A    between atoms: C_26  and  O_27
REMARK    5  A    between atoms: O_27  and  C_28
REMARK                            x       y       z     vdW  Elec       q    Type
REMARK                         _______ _______ _______ _____ _____    ______ ____
ROOT
ATOM      1  C   UNL     1       3.759   5.733  17.567  0.00  0.00    +0.000 A 
ATOM      2  C   UNL     1       3.331   6.988  17.939  0.00  0.00    +0.000 A 
ATOM      3  C   UNL     1       2.301   7.083  18.840  0.00  0.00    +0.000 A 
ATOM      4  N   UNL     1       1.736   5.975  19.334  0.00  0.00    +0.000 NA
ATOM      5  C   UNL     1       2.198   4.766  18.951  0.00  0.00    +0.000 A 
ATOM      6  N   UNL     1       1.646   3.611  19.551  0.00  0.00    +0.000 N 
ATOM      7  C   UNL     1       1.150   3.848  20.919  0.00  0.00    +0.000 C 
ATOM      8  C   UNL     1       2.305   3.377  21.822  0.00  0.00    +0.000 C 
ATOM      9  C   UNL     1       2.856   2.182  21.089  0.00  0.00    +0.000 C 
ATOM     10  C   UNL     1       3.927   2.309  20.048  0.00  0.00    +0.000 C 
ATOM     11  C   UNL     1       2.490   2.382  19.626  0.00  0.00    +0.000 C 
ATOM     12  N   UNL     1       3.191   4.619  18.060  0.00  0.00    +0.000 NA
ENDROOT
BRANCH   3  13
ATOM     13  N   UNL     1       1.914   8.307  19.313  0.00  0.00    +0.000 N 
ATOM     14  C   UNL     1       1.331   9.368  18.478  0.00  0.00    +0.000 C 
ATOM     15  C   UNL     1       0.685  10.264  19.566  0.00  0.00    +0.000 C 
ATOM     16  C   UNL     1       1.634  10.084  20.741  0.00  0.00    +0.000 C 
ATOM     17  C   UNL     1       1.487   8.563  20.696  0.00  0.00    +0.000 C 
ATOM     18  C   UNL     1      -0.045   8.456  20.786  0.00  0.00    +0.000 C 
ATOM     19  O   UNL     1      -0.530   9.611  20.030  0.00  0.00    +0.000 OA
ENDBRANCH   3  13
BRANCH   1  23
ATOM     20  C   UNL     1       7.065   5.335  14.916  0.00  0.00    +0.000 A 
ATOM     21  N   UNL     1       7.074   6.310  15.844  0.00  0.00    +0.000 NA
ATOM     22  C   UNL     1       6.020   6.384  16.701  0.00  0.00    +0.000 A 
ATOM     23  C   UNL     1       4.911   5.553  16.666  0.00  0.00    +0.000 A 
ATOM     24  C   UNL     1       4.938   4.555  15.685  0.00  0.00    +0.000 A 
ATOM     25  C   UNL     1       6.022   4.415  14.813  0.00  0.00    +0.000 A 
BRANCH  20  26
ATOM     26  N   UNL     1       8.187   5.323  14.085  0.00  0.00    +0.000 N 
ATOM     27  H   UNL     1       7.991   6.028  13.373  0.00  0.00    +0.000 HD
ATOM     28  H   UNL     1       8.996   5.629  14.625  0.00  0.00    +0.000 HD
ENDBRANCH  20  26
BRANCH  25  29
ATOM     29  O   UNL     1       5.866   3.385  13.932  0.00  0.00    +0.000 OA
BRANCH  29  30
ATOM     30  C   UNL     1       5.775   3.697  12.556  0.00  0.00    +0.000 C 
ATOM     31  F   UNL     1       6.454   2.782  11.814  0.00  0.00    +0.000 F 
ATOM     32  F   UNL     1       4.469   3.554  12.211  0.00  0.00    +0.000 F 
ENDBRANCH  29  30
ENDBRANCH  25  29
ENDBRANCH   1  23
TORSDOF 5
ENDMDL
MODEL 8
REMARK VINA RESULT:      -7.9      1.265      1.660
REMARK  Name = 
REMARK  5 active torsions:
REMARK  status: ('A' for Active; 'I' for Inactive)
REMARK    1  A    between atoms: N_1  and  C_2
REMARK    2  A    between atoms: C_5  and  C_6
REMARK    3  A    between atoms: C_8  and  N_9
REMARK    4  A    between atoms: C_26  and  O_27
REMARK    5  A    between atoms: O_27  and  C_28
REMARK                            x       y       z     vdW  Elec       q    Type
REMARK                         _______ _______ _______ _____ _____    ______ ____
ROOT
ATOM      1  C   UNL     1       2.728   6.721  19.576  0.00  0.00    +0.000 A 
ATOM      2  C   UNL     1       3.875   6.849  18.825  0.00  0.00    +0.000 A 
ATOM      3  C   UNL     1       4.684   5.750  18.682  0.00  0.00    +0.000 A 
ATOM      4  N   UNL     1       4.354   4.592  19.265  0.00  0.00    +0.000 NA
ATOM      5  C   UNL     1       3.212   4.510  19.980  0.00  0.00    +0.000 A 
ATOM      6  N   UNL     1       2.839   3.255  20.513  0.00  0.00    +0.000 N 
ATOM      7  C   UNL     1       3.333   2.115  19.719  0.00  0.00    +0.000 C 
ATOM      8  C   UNL     1       2.138   1.735  18.827  0.00  0.00    +0.000 C 
ATOM      9  C   UNL     1       0.948   1.963  19.721  0.00  0.00    +0.000 C 
ATOM     10  C   UNL     1       0.260   3.292  19.810  0.00  0.00    +0.000 C 
ATOM     11  C   UNL     1       1.388   2.992  20.751  0.00  0.00    +0.000 C 
ATOM     12  N   UNL     1       2.396   5.559  20.165  0.00  0.00    +0.000 NA
ENDROOT
BRANCH   3  13
ATOM     13  N   UNL     1       5.777   5.807  17.862  0.00  0.00    +0.000 N 
ATOM     14  C   UNL     1       6.660   4.663  17.581  0.00  0.00    +0.000 C 
ATOM     15  C   UNL     1       7.374   5.162  16.299  0.00  0.00    +0.000 C 
ATOM     16  C   UNL     1       7.437   6.666  16.526  0.00  0.00    +0.000 C 
ATOM     17  C   UNL     1       5.926   6.750  16.744  0.00  0.00    +0.000 C 
ATOM     18  C   UNL     1       5.447   6.082  15.444  0.00  0.00    +0.000 C 
ATOM     19  O   UNL     1       6.444   5.044  15.186  0.00  0.00    +0.000 OA
ENDBRANCH   3  13
BRANCH   1  23
ATOM     20  C   UNL     1       0.067  10.021  19.956  0.00  0.00    +0.000 A 
ATOM     21  N   UNL     1       0.842   9.919  18.860  0.00  0.00    +0.000 NA
ATOM     22  C   UNL     1       1.652   8.830  18.752  0.00  0.00    +0.000 A 
ATOM     23  C   UNL     1       1.772   7.834  19.708  0.00  0.00    +0.000 A 
ATOM     24  C   UNL     1       0.952   7.980  20.834  0.00  0.00    +0.000 A 
ATOM     25  C   UNL     1       0.072   9.058  20.965  0.00  0.00    +0.000 A 
BRANCH  20  26
ATOM     26  N   UNL     1      -0.740  11.161  19.982  0.00  0.00    +0.000 N 
ATOM     27  H   UNL     1      -1.417  10.982  20.726  0.00  0.00    +0.000 HD
ATOM     28  H   UNL     1      -0.168  11.959  20.255  0.00  0.00    +0.000 HD
ENDBRANCH  20  26
BRANCH  25  29
ATOM     29  O   UNL     1      -0.643   9.024  22.125  0.00  0.00    +0.000 OA
BRANCH  29  30
ATOM     30  C   UNL     1      -0.347   9.989  23.116  0.00  0.00    +0.000 C 
ATOM     31  F   UNL     1      -1.486  10.589  23.552  0.00  0.00    +0.000 F 
ATOM     32  F   UNL     1       0.143   9.308  24.185  0.00  0.00    +0.000 F 
ENDBRANCH  29  30
ENDBRANCH  25  29
ENDBRANCH   1  23
TORSDOF 5
ENDMDL
MODEL 9
REMARK VINA RESULT:      -7.8      2.724      5.139
REMARK  Name = 
REMARK  5 active torsions:
REMARK  status: ('A' for Active; 'I' for Inactive)
REMARK    1  A    between atoms: N_1  and  C_2
REMARK    2  A    between atoms: C_5  and  C_6
REMARK    3  A    between atoms: C_8  and  N_9
REMARK    4  A    between atoms: C_26  and  O_27
REMARK    5  A    between atoms: O_27  and  C_28
REMARK                            x       y       z     vdW  Elec       q    Type
REMARK                         _______ _______ _______ _____ _____    ______ ____
ROOT
ATOM      1  C   UNL     1       2.753   7.534  18.321  0.00  0.00    +0.000 A 
ATOM      2  C   UNL     1       2.260   6.533  19.127  0.00  0.00    +0.000 A 
ATOM      3  C   UNL     1       2.954   5.352  19.195  0.00  0.00    +0.000 A 
ATOM      4  N   UNL     1       4.079   5.192  18.488  0.00  0.00    +0.000 NA
ATOM      5  C   UNL     1       4.532   6.206  17.722  0.00  0.00    +0.000 A 
ATOM      6  N   UNL     1       5.767   6.047  17.053  0.00  0.00    +0.000 N 
ATOM      7  C   UNL     1       6.693   5.136  17.751  0.00  0.00    +0.000 C 
ATOM      8  C   UNL     1       7.610   6.078  18.552  0.00  0.00    +0.000 C 
ATOM      9  C   UNL     1       7.781   7.262  17.636  0.00  0.00    +0.000 C 
ATOM     10  C   UNL     1       6.835   8.424  17.650  0.00  0.00    +0.000 C 
ATOM     11  C   UNL     1       6.559   7.272  16.732  0.00  0.00    +0.000 C 
ATOM     12  N   UNL     1       3.881   7.375  17.607  0.00  0.00    +0.000 NA
ENDROOT
BRANCH   3  13
ATOM     13  N   UNL     1       2.554   4.371  20.061  0.00  0.00    +0.000 N 
ATOM     14  C   UNL     1       1.184   4.233  20.578  0.00  0.00    +0.000 C 
ATOM     15  C   UNL     1       1.215   2.766  21.079  0.00  0.00    +0.000 C 
ATOM     16  C   UNL     1       2.661   2.606  21.527  0.00  0.00    +0.000 C 
ATOM     17  C   UNL     1       3.189   3.048  20.162  0.00  0.00    +0.000 C 
ATOM     18  C   UNL     1       2.436   2.050  19.266  0.00  0.00    +0.000 C 
ATOM     19  O   UNL     1       1.138   1.889  19.921  0.00  0.00    +0.000 OA
ENDBRANCH   3  13
BRANCH   1  23
ATOM     20  C   UNL     1       0.965  11.396  18.241  0.00  0.00    +0.000 A 
ATOM     21  N   UNL     1       2.269  11.265  17.936  0.00  0.00    +0.000 NA
ATOM     22  C   UNL     1       2.799  10.011  17.932  0.00  0.00    +0.000 A 
ATOM     23  C   UNL     1       2.106   8.857  18.260  0.00  0.00    +0.000 A 
ATOM     24  C   UNL     1       0.753   9.037  18.574  0.00  0.00    +0.000 A 
ATOM     25  C   UNL     1       0.157  10.301  18.546  0.00  0.00    +0.000 A 
BRANCH  20  26
ATOM     26  N   UNL     1       0.499  12.713  18.211  0.00  0.00    +0.000 N 
ATOM     27  H   UNL     1      -0.419  12.653  17.768  0.00  0.00    +0.000 HD
ATOM     28  H   UNL     1       0.373  13.036  19.169  0.00  0.00    +0.000 HD
ENDBRANCH  20  26
BRANCH  25  29
ATOM     29  O   UNL     1      -1.166  10.273  18.877  0.00  0.00    +0.000 OA
BRANCH  29  30
ATOM     30  C   UNL     1      -2.113  10.292  17.826  0.00  0.00    +0.000 C 
ATOM     31  F   UNL     1      -1.524   9.958  16.648  0.00  0.00    +0.000 F 
ATOM     32  F   UNL     1      -3.003   9.299  18.089  0.00  0.00    +0.000 F 
ENDBRANCH  29  30
ENDBRANCH  25  29
ENDBRANCH   1  23
TORSDOF 5
ENDMDL
