MODEL 1
REMARK VINA RESULT:      -7.5      0.000      0.000
REMARK  Name = 
REMARK  5 active torsions:
REMARK  status: ('A' for Active; 'I' for Inactive)
REMARK    1  A    between atoms: C_1  and  N_2
REMARK    2  A    between atoms: C_5  and  C_6
REMARK    3  A    between atoms: C_8  and  C_9
REMARK    4  A    between atoms: C_9  and  C_10
REMARK    5  A    between atoms: C_10  and  N_11
REMARK                            x       y       z     vdW  Elec       q    Type
REMARK                         _______ _______ _______ _____ _____    ______ ____
ROOT
ATOM      1  C   UNL     1       8.399   8.953  18.297  0.00  0.00    +0.000 A 
ATOM      2  N   UNL     1       8.458   7.769  18.865  0.00  0.00    +0.000 NA
ATOM      3  C   UNL     1       7.702   7.000  18.023  0.00  0.00    +0.000 A 
ATOM      4  N   UNL     1       7.184   7.653  16.973  0.00  0.00    +0.000 NA
ATOM      5  O   UNL     1       7.651   8.960  17.153  0.00  0.00    +0.000 OA
ENDROOT
BRANCH   1  10
ATOM      6  C   UNL     1      10.122  14.800  17.834  0.00  0.00    +0.000 C 
ATOM      7  N   UNL     1       9.499  13.580  17.347  0.00  0.00    +0.000 N 
ATOM      8  C   UNL     1       9.552  12.505  18.247  0.00  0.00    +0.000 A 
ATOM      9  C   UNL     1       8.971  11.303  17.863  0.00  0.00    +0.000 A 
ATOM     10  C   UNL     1       8.990  10.207  18.732  0.00  0.00    +0.000 A 
ATOM     11  C   UNL     1       9.590  10.356  19.979  0.00  0.00    +0.000 A 
ATOM     12  C   UNL     1      10.135  11.587  20.292  0.00  0.00    +0.000 A 
ATOM     13  N   UNL     1      10.121  12.650  19.460  0.00  0.00    +0.000 NA
ATOM     14  H   UNL     1       9.878  13.287  16.450  0.00  0.00    +0.000 HD
ENDBRANCH   1  10
BRANCH   3  15
ATOM     15  C   UNL     1       7.477   5.555  18.255  0.00  0.00    +0.000 C 
BRANCH  15  16
ATOM     16  C   UNL     1       6.331   5.300  19.238  0.00  0.00    +0.000 C 
BRANCH  16  17
ATOM     17  N   UNL     1       5.193   4.643  18.615  0.00  0.00    +0.000 N 
ATOM     18  C   UNL     1       4.739   4.968  17.289  0.00  0.00    +0.000 C 
ATOM     19  C   UNL     1       3.488   4.124  17.142  0.00  0.00    +0.000 C 
ATOM     20  C   UNL     1       3.797   2.879  17.965  0.00  0.00    +0.000 C 
ATOM     21  C   UNL     1       4.739   3.394  19.024  0.00  0.00    +0.000 C 
ATOM     22  O   UNL     1       5.098   2.779  20.013  0.00  0.00    +0.000 OA
ENDBRANCH  16  17
ENDBRANCH  15  16
ENDBRANCH   3  15
TORSDOF 4
ENDMDL
MODEL 2
REMARK VINA RESULT:      -7.4      5.962      6.796
REMARK  Name = 
REMARK  5 active torsions:
REMARK  status: ('A' for Active; 'I' for Inactive)
REMARK    1  A    between atoms: C_1  and  N_2
REMARK    2  A    between atoms: C_5  and  C_6
REMARK    3  A    between atoms: C_8  and  C_9
REMARK    4  A    between atoms: C_9  and  C_10
REMARK    5  A    between atoms: C_10  and  N_11
REMARK                            x       y       z     vdW  Elec       q    Type
REMARK                         _______ _______ _______ _____ _____    ______ ____
ROOT
ATOM      1  C   UNL     1       3.098   6.764  18.613  0.00  0.00    +0.000 A 
ATOM      2  N   UNL     1       3.505   5.816  19.427  0.00  0.00    +0.000 NA
ATOM      3  C   UNL     1       4.249   5.019  18.601  0.00  0.00    +0.000 A 
ATOM      4  N   UNL     1       4.316   5.430  17.327  0.00  0.00    +0.000 NA
ATOM      5  O   UNL     1       3.547   6.599  17.333  0.00  0.00    +0.000 OA
ENDROOT
BRANCH   1  10
ATOM      6  C   UNL     1      -0.410  10.445  22.007  0.00  0.00    +0.000 C 
ATOM      7  N   UNL     1       0.452   9.293  21.795  0.00  0.00    +0.000 N 
ATOM      8  C   UNL     1       0.914   9.152  20.478  0.00  0.00    +0.000 A 
ATOM      9  C   UNL     1       1.750   8.082  20.191  0.00  0.00    +0.000 A 
ATOM     10  C   UNL     1       2.245   7.907  18.894  0.00  0.00    +0.000 A 
ATOM     11  C   UNL     1       1.889   8.831  17.915  0.00  0.00    +0.000 A 
ATOM     12  C   UNL     1       1.062   9.876  18.282  0.00  0.00    +0.000 A 
ATOM     13  N   UNL     1       0.580  10.052  19.531  0.00  0.00    +0.000 NA
ATOM     14  H   UNL     1       0.012   8.426  22.092  0.00  0.00    +0.000 HD
ENDBRANCH   1  10
BRANCH   3  15
ATOM     15  C   UNL     1       4.931   3.796  19.083  0.00  0.00    +0.000 C 
BRANCH  15  16
ATOM     16  C   UNL     1       4.065   2.546  18.910  0.00  0.00    +0.000 C 
BRANCH  16  17
ATOM     17  N   UNL     1       2.847   2.592  19.703  0.00  0.00    +0.000 N 
ATOM     18  C   UNL     1       2.857   2.773  21.131  0.00  0.00    +0.000 C 
ATOM     19  C   UNL     1       1.393   2.633  21.501  0.00  0.00    +0.000 C 
ATOM     20  C   UNL     1       0.661   3.196  20.288  0.00  0.00    +0.000 C 
ATOM     21  C   UNL     1       1.610   2.908  19.152  0.00  0.00    +0.000 C 
ATOM     22  O   UNL     1       1.351   3.020  17.966  0.00  0.00    +0.000 OA
ENDBRANCH  16  17
ENDBRANCH  15  16
ENDBRANCH   3  15
TORSDOF 4
ENDMDL
MODEL 3
REMARK VINA RESULT:      -7.4      1.054      1.333
REMARK  Name = 
REMARK  5 active torsions:
REMARK  status: ('A' for Active; 'I' for Inactive)
REMARK    1  A    between atoms: C_1  and  N_2
REMARK    2  A    between atoms: C_5  and  C_6
REMARK    3  A    between atoms: C_8  and  C_9
REMARK    4  A    between atoms: C_9  and  C_10
REMARK    5  A    between atoms: C_10  and  N_11
REMARK                            x       y       z     vdW  Elec       q    Type
REMARK                         _______ _______ _______ _____ _____    ______ ____
ROOT
ATOM      1  C   UNL     1       8.447   8.974  18.313  0.00  0.00    +0.000 A 
ATOM      2  N   UNL     1       8.459   7.810  18.924  0.00  0.00    +0.000 NA
ATOM      3  C   UNL     1       7.744   7.020  18.065  0.00  0.00    +0.000 A 
ATOM      4  N   UNL     1       7.295   7.642  16.966  0.00  0.00    +0.000 NA
ATOM      5  O   UNL     1       7.766   8.949  17.128  0.00  0.00    +0.000 OA
ENDROOT
BRANCH   1  10
ATOM      6  C   UNL     1      10.128  14.829  17.804  0.00  0.00    +0.000 C 
ATOM      7  N   UNL     1       9.515  13.601  17.326  0.00  0.00    +0.000 N 
ATOM      8  C   UNL     1       9.573  12.534  18.236  0.00  0.00    +0.000 A 
ATOM      9  C   UNL     1       9.003  11.325  17.860  0.00  0.00    +0.000 A 
ATOM     10  C   UNL     1       9.027  10.236  18.739  0.00  0.00    +0.000 A 
ATOM     11  C   UNL     1       9.621  10.401  19.988  0.00  0.00    +0.000 A 
ATOM     12  C   UNL     1      10.156  11.639  20.291  0.00  0.00    +0.000 A 
ATOM     13  N   UNL     1      10.137  12.694  19.450  0.00  0.00    +0.000 NA
ATOM     14  H   UNL     1       9.900  13.303  16.433  0.00  0.00    +0.000 HD
ENDBRANCH   1  10
BRANCH   3  15
ATOM     15  C   UNL     1       7.490   5.586  18.333  0.00  0.00    +0.000 C 
BRANCH  15  16
ATOM     16  C   UNL     1       6.288   5.377  19.259  0.00  0.00    +0.000 C 
BRANCH  16  17
ATOM     17  N   UNL     1       5.161   4.752  18.585  0.00  0.00    +0.000 N 
ATOM     18  C   UNL     1       4.712   3.421  18.897  0.00  0.00    +0.000 C 
ATOM     19  C   UNL     1       3.619   3.183  17.874  0.00  0.00    +0.000 C 
ATOM     20  C   UNL     1       3.016   4.568  17.665  0.00  0.00    +0.000 C 
ATOM     21  C   UNL     1       4.176   5.491  17.940  0.00  0.00    +0.000 C 
ATOM     22  O   UNL     1       4.199   6.688  17.712  0.00  0.00    +0.000 OA
ENDBRANCH  16  17
ENDBRANCH  15  16
ENDBRANCH   3  15
TORSDOF 4
ENDMDL
MODEL 4
REMARK VINA RESULT:      -7.3      6.081      6.897
REMARK  Name = 
REMARK  5 active torsions:
REMARK  status: ('A' for Active; 'I' for Inactive)
REMARK    1  A    between atoms: C_1  and  N_2
REMARK    2  A    between atoms: C_5  and  C_6
REMARK    3  A    between atoms: C_8  and  C_9
REMARK    4  A    between atoms: C_9  and  C_10
REMARK    5  A    between atoms: C_10  and  N_11
REMARK                            x       y       z     vdW  Elec       q    Type
REMARK                         _______ _______ _______ _____ _____    ______ ____
ROOT
ATOM      1  C   UNL     1       2.799   6.367  18.264  0.00  0.00    +0.000 A 
ATOM      2  N   UNL     1       2.195   5.284  17.827  0.00  0.00    +0.000 NA
ATOM      3  C   UNL     1       3.245   4.448  17.562  0.00  0.00    +0.000 A 
ATOM      4  N   UNL     1       4.456   4.963  17.813  0.00  0.00    +0.000 NA
ATOM      5  O   UNL     1       4.161   6.247  18.285  0.00  0.00    +0.000 OA
ENDROOT
BRANCH   1  10
ATOM      6  C   UNL     1       0.173  10.314  22.122  0.00  0.00    +0.000 C 
ATOM      7  N   UNL     1       0.759   9.033  21.764  0.00  0.00    +0.000 N 
ATOM      8  C   UNL     1       1.187   8.946  20.430  0.00  0.00    +0.000 A 
ATOM      9  C   UNL     1       1.767   7.758  20.008  0.00  0.00    +0.000 A 
ATOM     10  C   UNL     1       2.220   7.629  18.689  0.00  0.00    +0.000 A 
ATOM     11  C   UNL     1       2.084   8.715  17.829  0.00  0.00    +0.000 A 
ATOM     12  C   UNL     1       1.506   9.868  18.329  0.00  0.00    +0.000 A 
ATOM     13  N   UNL     1       1.067  10.001  19.599  0.00  0.00    +0.000 NA
ATOM     14  H   UNL     1       0.136   8.256  21.968  0.00  0.00    +0.000 HD
ENDBRANCH   1  10
BRANCH   3  15
ATOM     15  C   UNL     1       3.053   3.075  17.040  0.00  0.00    +0.000 C 
BRANCH  15  16
ATOM     16  C   UNL     1       3.315   2.010  18.108  0.00  0.00    +0.000 C 
BRANCH  16  17
ATOM     17  N   UNL     1       2.617   2.281  19.355  0.00  0.00    +0.000 N 
ATOM     18  C   UNL     1       3.268   2.869  20.496  0.00  0.00    +0.000 C 
ATOM     19  C   UNL     1       2.185   2.838  21.557  0.00  0.00    +0.000 C 
ATOM     20  C   UNL     1       0.898   3.022  20.761  0.00  0.00    +0.000 C 
ATOM     21  C   UNL     1       1.235   2.419  19.421  0.00  0.00    +0.000 C 
ATOM     22  O   UNL     1       0.438   2.181  18.530  0.00  0.00    +0.000 OA
ENDBRANCH  16  17
ENDBRANCH  15  16
ENDBRANCH   3  15
TORSDOF 4
ENDMDL
MODEL 5
REMARK VINA RESULT:      -7.3      4.368      6.989
REMARK  Name = 
REMARK  5 active torsions:
REMARK  status: ('A' for Active; 'I' for Inactive)
REMARK    1  A    between atoms: C_1  and  N_2
REMARK    2  A    between atoms: C_5  and  C_6
REMARK    3  A    between atoms: C_8  and  C_9
REMARK    4  A    between atoms: C_9  and  C_10
REMARK    5  A    between atoms: C_10  and  N_11
REMARK                            x       y       z     vdW  Elec       q    Type
REMARK                         _______ _______ _______ _____ _____    ______ ____
ROOT
ATOM      1  C   UNL     1       2.926   6.250  18.854  0.00  0.00    +0.000 A 
ATOM      2  N   UNL     1       3.236   5.692  17.705  0.00  0.00    +0.000 NA
ATOM      3  C   UNL     1       3.902   4.563  18.097  0.00  0.00    +0.000 A 
ATOM      4  N   UNL     1       4.016   4.405  19.423  0.00  0.00    +0.000 NA
ATOM      5  O   UNL     1       3.361   5.532  19.932  0.00  0.00    +0.000 OA
ENDROOT
BRANCH   1  10
ATOM      6  C   UNL     1      -0.142  10.398  22.133  0.00  0.00    +0.000 C 
ATOM      7  N   UNL     1       0.566   9.141  21.952  0.00  0.00    +0.000 N 
ATOM      8  C   UNL     1       1.033   8.925  20.646  0.00  0.00    +0.000 A 
ATOM      9  C   UNL     1       1.729   7.751  20.389  0.00  0.00    +0.000 A 
ATOM     10  C   UNL     1       2.224   7.497  19.105  0.00  0.00    +0.000 A 
ATOM     11  C   UNL     1       2.011   8.447  18.109  0.00  0.00    +0.000 A 
ATOM     12  C   UNL     1       1.320   9.596  18.448  0.00  0.00    +0.000 A 
ATOM     13  N   UNL     1       0.840   9.849  19.684  0.00  0.00    +0.000 NA
ATOM     14  H   UNL     1       0.011   8.343  22.247  0.00  0.00    +0.000 HD
ENDBRANCH   1  10
BRANCH   3  15
ATOM     15  C   UNL     1       4.452   3.590  17.126  0.00  0.00    +0.000 C 
BRANCH  15  16
ATOM     16  C   UNL     1       5.653   4.153  16.362  0.00  0.00    +0.000 C 
BRANCH  16  17
ATOM     17  N   UNL     1       6.393   5.144  17.128  0.00  0.00    +0.000 N 
ATOM     18  C   UNL     1       7.462   4.789  18.025  0.00  0.00    +0.000 C 
ATOM     19  C   UNL     1       7.825   6.118  18.660  0.00  0.00    +0.000 C 
ATOM     20  C   UNL     1       7.557   7.130  17.552  0.00  0.00    +0.000 C 
ATOM     21  C   UNL     1       6.454   6.481  16.755  0.00  0.00    +0.000 C 
ATOM     22  O   UNL     1       5.800   7.021  15.880  0.00  0.00    +0.000 OA
ENDBRANCH  16  17
ENDBRANCH  15  16
ENDBRANCH   3  15
TORSDOF 4
ENDMDL
MODEL 6
REMARK VINA RESULT:      -7.3      4.162      6.922
REMARK  Name = 
REMARK  5 active torsions:
REMARK  status: ('A' for Active; 'I' for Inactive)
REMARK    1  A    between atoms: C_1  and  N_2
REMARK    2  A    between atoms: C_5  and  C_6
REMARK    3  A    between atoms: C_8  and  C_9
REMARK    4  A    between atoms: C_9  and  C_10
REMARK    5  A    between atoms: C_10  and  N_11
REMARK                            x       y       z     vdW  Elec       q    Type
REMARK                         _______ _______ _______ _____ _____    ______ ____
ROOT
ATOM      1  C   UNL     1       3.239   6.285  18.013  0.00  0.00    +0.000 A 
ATOM      2  N   UNL     1       3.961   6.268  16.915  0.00  0.00    +0.000 NA
ATOM      3  C   UNL     1       4.437   4.985  16.896  0.00  0.00    +0.000 A 
ATOM      4  N   UNL     1       4.045   4.221  17.925  0.00  0.00    +0.000 NA
ATOM      5  O   UNL     1       3.241   5.088  18.673  0.00  0.00    +0.000 OA
ENDROOT
BRANCH   1  10
ATOM      6  C   UNL     1       0.487   9.464  22.450  0.00  0.00    +0.000 C 
ATOM      7  N   UNL     1       1.258   8.347  21.931  0.00  0.00    +0.000 N 
ATOM      8  C   UNL     1       1.487   8.396  20.547  0.00  0.00    +0.000 A 
ATOM      9  C   UNL     1       2.224   7.370  19.971  0.00  0.00    +0.000 A 
ATOM     10  C   UNL     1       2.488   7.383  18.597  0.00  0.00    +0.000 A 
ATOM     11  C   UNL     1       2.006   8.445  17.836  0.00  0.00    +0.000 A 
ATOM     12  C   UNL     1       1.291   9.434  18.486  0.00  0.00    +0.000 A 
ATOM     13  N   UNL     1       1.032   9.430  19.810  0.00  0.00    +0.000 NA
ATOM     14  H   UNL     1       0.843   7.450  22.171  0.00  0.00    +0.000 HD
ENDBRANCH   1  10
BRANCH   3  15
ATOM     15  C   UNL     1       5.317   4.482  15.816  0.00  0.00    +0.000 C 
BRANCH  15  16
ATOM     16  C   UNL     1       6.678   5.184  15.807  0.00  0.00    +0.000 C 
BRANCH  16  17
ATOM     17  N   UNL     1       7.119   5.574  17.137  0.00  0.00    +0.000 N 
ATOM     18  C   UNL     1       7.731   4.648  18.053  0.00  0.00    +0.000 C 
ATOM     19  C   UNL     1       7.897   5.477  19.312  0.00  0.00    +0.000 C 
ATOM     20  C   UNL     1       8.142   6.886  18.784  0.00  0.00    +0.000 C 
ATOM     21  C   UNL     1       7.400   6.893  17.472  0.00  0.00    +0.000 C 
ATOM     22  O   UNL     1       7.170   7.879  16.793  0.00  0.00    +0.000 OA
ENDBRANCH  16  17
ENDBRANCH  15  16
ENDBRANCH   3  15
TORSDOF 4
ENDMDL
MODEL 7
REMARK VINA RESULT:      -7.3      5.850      7.191
REMARK  Name = 
REMARK  5 active torsions:
REMARK  status: ('A' for Active; 'I' for Inactive)
REMARK    1  A    between atoms: C_1  and  N_2
REMARK    2  A    between atoms: C_5  and  C_6
REMARK    3  A    between atoms: C_8  and  C_9
REMARK    4  A    between atoms: C_9  and  C_10
REMARK    5  A    between atoms: C_10  and  N_11
REMARK                            x       y       z     vdW  Elec       q    Type
REMARK                         _______ _______ _______ _____ _____    ______ ____
ROOT
ATOM      1  C   UNL     1       3.548   5.790  18.009  0.00  0.00    +0.000 A 
ATOM      2  N   UNL     1       4.499   5.699  17.106  0.00  0.00    +0.000 NA
ATOM      3  C   UNL     1       4.807   4.366  17.136  0.00  0.00    +0.000 A 
ATOM      4  N   UNL     1       4.095   3.641  18.009  0.00  0.00    +0.000 NA
ATOM      5  O   UNL     1       3.250   4.591  18.594  0.00  0.00    +0.000 OA
ENDROOT
BRANCH   1  10
ATOM      6  C   UNL     1       0.556   9.366  21.962  0.00  0.00    +0.000 C 
ATOM      7  N   UNL     1       1.294   8.173  21.582  0.00  0.00    +0.000 N 
ATOM      8  C   UNL     1       1.684   8.140  20.234  0.00  0.00    +0.000 A 
ATOM      9  C   UNL     1       2.401   7.037  19.789  0.00  0.00    +0.000 A 
ATOM     10  C   UNL     1       2.821   6.966  18.456  0.00  0.00    +0.000 A 
ATOM     11  C   UNL     1       2.513   8.022  17.603  0.00  0.00    +0.000 A 
ATOM     12  C   UNL     1       1.805   9.089  18.125  0.00  0.00    +0.000 A 
ATOM     13  N   UNL     1       1.397   9.167  19.408  0.00  0.00    +0.000 NA
ATOM     14  H   UNL     1       0.787   7.321  21.806  0.00  0.00    +0.000 HD
ENDBRANCH   1  10
BRANCH   3  15
ATOM     15  C   UNL     1       5.846   3.773  16.264  0.00  0.00    +0.000 C 
BRANCH  15  16
ATOM     16  C   UNL     1       6.561   4.830  15.418  0.00  0.00    +0.000 C 
BRANCH  16  17
ATOM     17  N   UNL     1       6.752   4.411  14.038  0.00  0.00    +0.000 N 
ATOM     18  C   UNL     1       5.755   3.674  13.307  0.00  0.00    +0.000 C 
ATOM     19  C   UNL     1       6.451   3.377  11.993  0.00  0.00    +0.000 C 
ATOM     20  C   UNL     1       7.353   4.587  11.782  0.00  0.00    +0.000 C 
ATOM     21  C   UNL     1       7.660   5.034  13.189  0.00  0.00    +0.000 C 
ATOM     22  O   UNL     1       8.499   5.860  13.504  0.00  0.00    +0.000 OA
ENDBRANCH  16  17
ENDBRANCH  15  16
ENDBRANCH   3  15
TORSDOF 4
ENDMDL
MODEL 8
REMARK VINA RESULT:      -7.3      5.938      6.733
REMARK  Name = 
REMARK  5 active torsions:
REMARK  status: ('A' for Active; 'I' for Inactive)
REMARK    1  A    between atoms: C_1  and  N_2
REMARK    2  A    between atoms: C_5  and  C_6
REMARK    3  A    between atoms: C_8  and  C_9
REMARK    4  A    between atoms: C_9  and  C_10
REMARK    5  A    between atoms: C_10  and  N_11
REMARK                            x       y       z     vdW  Elec       q    Type
REMARK                         _______ _______ _______ _____ _____    ______ ____
ROOT
ATOM      1  C   UNL     1       3.171   6.221  18.562  0.00  0.00    +0.000 A 
ATOM      2  N   UNL     1       2.806   5.174  17.855  0.00  0.00    +0.000 NA
ATOM      3  C   UNL     1       3.897   4.354  17.960  0.00  0.00    +0.000 A 
ATOM      4  N   UNL     1       4.907   4.847  18.691  0.00  0.00    +0.000 NA
ATOM      5  O   UNL     1       4.422   6.095  19.097  0.00  0.00    +0.000 OA
ENDROOT
BRANCH   1  10
ATOM      6  C   UNL     1      -0.029  10.274  21.833  0.00  0.00    +0.000 C 
ATOM      7  N   UNL     1       0.705   9.032  21.650  0.00  0.00    +0.000 N 
ATOM      8  C   UNL     1       1.199   8.840  20.350  0.00  0.00    +0.000 A 
ATOM      9  C   UNL     1       1.920   7.682  20.092  0.00  0.00    +0.000 A 
ATOM     10  C   UNL     1       2.442   7.452  18.814  0.00  0.00    +0.000 A 
ATOM     11  C   UNL     1       2.231   8.410  17.826  0.00  0.00    +0.000 A 
ATOM     12  C   UNL     1       1.513   9.542  18.165  0.00  0.00    +0.000 A 
ATOM     13  N   UNL     1       1.006   9.772  19.395  0.00  0.00    +0.000 NA
ATOM     14  H   UNL     1       0.158   8.221  21.925  0.00  0.00    +0.000 HD
ENDBRANCH   1  10
BRANCH   3  15
ATOM     15  C   UNL     1       3.952   3.023  17.315  0.00  0.00    +0.000 C 
BRANCH  15  16
ATOM     16  C   UNL     1       3.430   1.915  18.233  0.00  0.00    +0.000 C 
BRANCH  16  17
ATOM     17  N   UNL     1       2.685   2.431  19.370  0.00  0.00    +0.000 N 
ATOM     18  C   UNL     1       1.249   2.530  19.375  0.00  0.00    +0.000 C 
ATOM     19  C   UNL     1       0.962   3.220  20.695  0.00  0.00    +0.000 C 
ATOM     20  C   UNL     1       2.072   2.718  21.611  0.00  0.00    +0.000 C 
ATOM     21  C   UNL     1       3.209   2.451  20.658  0.00  0.00    +0.000 C 
ATOM     22  O   UNL     1       4.360   2.210  20.977  0.00  0.00    +0.000 OA
ENDBRANCH  16  17
ENDBRANCH  15  16
ENDBRANCH   3  15
TORSDOF 4
ENDMDL
MODEL 9
REMARK VINA RESULT:      -7.3      5.981      6.465
REMARK  Name = 
REMARK  5 active torsions:
REMARK  status: ('A' for Active; 'I' for Inactive)
REMARK    1  A    between atoms: C_1  and  N_2
REMARK    2  A    between atoms: C_5  and  C_6
REMARK    3  A    between atoms: C_8  and  C_9
REMARK    4  A    between atoms: C_9  and  C_10
REMARK    5  A    between atoms: C_10  and  N_11
REMARK                            x       y       z     vdW  Elec       q    Type
REMARK                         _______ _______ _______ _____ _____    ______ ____
ROOT
ATOM      1  C   UNL     1       2.679   6.442  18.411  0.00  0.00    +0.000 A 
ATOM      2  N   UNL     1       2.085   5.340  18.011  0.00  0.00    +0.000 NA
ATOM      3  C   UNL     1       3.124   4.615  17.494  0.00  0.00    +0.000 A 
ATOM      4  N   UNL     1       4.320   5.218  17.557  0.00  0.00    +0.000 NA
ATOM      5  O   UNL     1       4.025   6.440  18.172  0.00  0.00    +0.000 OA
ENDROOT
BRANCH   1  10
ATOM      6  C   UNL     1       0.648  12.201  18.701  0.00  0.00    +0.000 C 
ATOM      7  N   UNL     1       1.216  11.049  18.018  0.00  0.00    +0.000 N 
ATOM      8  C   UNL     1       1.390   9.921  18.835  0.00  0.00    +0.000 A 
ATOM      9  C   UNL     1       1.919   8.774  18.258  0.00  0.00    +0.000 A 
ATOM     10  C   UNL     1       2.099   7.621  19.031  0.00  0.00    +0.000 A 
ATOM     11  C   UNL     1       1.728   7.653  20.372  0.00  0.00    +0.000 A 
ATOM     12  C   UNL     1       1.197   8.829  20.868  0.00  0.00    +0.000 A 
ATOM     13  N   UNL     1       1.019   9.945  20.131  0.00  0.00    +0.000 NA
ATOM     14  H   UNL     1       2.096  11.271  17.560  0.00  0.00    +0.000 HD
ENDBRANCH   1  10
BRANCH   3  15
ATOM     15  C   UNL     1       2.938   3.266  16.914  0.00  0.00    +0.000 C 
BRANCH  15  16
ATOM     16  C   UNL     1       3.210   2.157  17.934  0.00  0.00    +0.000 C 
BRANCH  16  17
ATOM     17  N   UNL     1       2.708   2.477  19.260  0.00  0.00    +0.000 N 
ATOM     18  C   UNL     1       1.326   2.311  19.627  0.00  0.00    +0.000 C 
ATOM     19  C   UNL     1       1.279   2.877  21.033  0.00  0.00    +0.000 C 
ATOM     20  C   UNL     1       2.654   2.545  21.600  0.00  0.00    +0.000 C 
ATOM     21  C   UNL     1       3.535   2.533  20.376  0.00  0.00    +0.000 C 
ATOM     22  O   UNL     1       4.753   2.493  20.380  0.00  0.00    +0.000 OA
ENDBRANCH  16  17
ENDBRANCH  15  16
ENDBRANCH   3  15
TORSDOF 4
ENDMDL
