MODEL 1
REMARK VINA RESULT:      -6.7      0.000      0.000
REMARK  Name = 
REMARK  4 active torsions:
REMARK  status: ('A' for Active; 'I' for Inactive)
REMARK    1  A    between atoms: C_1  and  O_2
REMARK    2  A    between atoms: O_2  and  C_3
REMARK    3  A    between atoms: C_9  and  O_10
REMARK    4  A    between atoms: O_10  and  C_11
REMARK                            x       y       z     vdW  Elec       q    Type
REMARK                         _______ _______ _______ _____ _____    ______ ____
ROOT
ATOM      1  C   UNL     1       4.127   3.656  18.530  0.00  0.00    +0.000 A 
ATOM      2  C   UNL     1       3.332   4.520  19.297  0.00  0.00    +0.000 A 
ATOM      3  O   UNL     1       2.687   4.148  20.441  0.00  0.00    +0.000 OA
ATOM      4  C   UNL     1       2.028   5.232  20.907  0.00  0.00    +0.000 A 
ATOM      5  C   UNL     1       2.235   6.304  20.077  0.00  0.00    +0.000 A 
ATOM      6  C   UNL     1       3.087   5.864  19.014  0.00  0.00    +0.000 A 
ATOM      7  C   UNL     1       3.678   6.419  17.850  0.00  0.00    +0.000 A 
ATOM      8  C   UNL     1       4.499   5.577  17.047  0.00  0.00    +0.000 A 
ATOM      9  C   UNL     1       5.153   6.093  15.806  0.00  0.00    +0.000 A 
ATOM     10  O   UNL     1       5.062   7.237  15.382  0.00  0.00    +0.000 OA
ATOM     11  C   UNL     1       5.976   5.143  15.043  0.00  0.00    +0.000 A 
ATOM     12  C   UNL     1       6.074   3.890  15.479  0.00  0.00    +0.000 A 
ATOM     13  O   UNL     1       5.468   3.387  16.593  0.00  0.00    +0.000 OA
ATOM     14  C   UNL     1       4.709   4.225  17.385  0.00  0.00    +0.000 A 
ENDROOT
BRANCH   1  16
ATOM     15  C   UNL     1       3.210   1.461  18.392  0.00  0.00    +0.000 C 
ATOM     16  O   UNL     1       4.185   2.348  18.922  0.00  0.00    +0.000 OA
ENDBRANCH   1  16
BRANCH   7  17
ATOM     17  O   UNL     1       3.538   7.722  17.409  0.00  0.00    +0.000 OA
ATOM     18  C   UNL     1       2.344   8.435  17.667  0.00  0.00    +0.000 C 
ENDBRANCH   7  17
TORSDOF 2
ENDMDL
MODEL 2
REMARK VINA RESULT:      -6.3      1.683      1.876
REMARK  Name = 
REMARK  4 active torsions:
REMARK  status: ('A' for Active; 'I' for Inactive)
REMARK    1  A    between atoms: C_1  and  O_2
REMARK    2  A    between atoms: O_2  and  C_3
REMARK    3  A    between atoms: C_9  and  O_10
REMARK    4  A    between atoms: O_10  and  C_11
REMARK                            x       y       z     vdW  Elec       q    Type
REMARK                         _______ _______ _______ _____ _____    ______ ____
ROOT
ATOM      1  C   UNL     1       4.486   3.281  19.796  0.00  0.00    +0.000 A 
ATOM      2  C   UNL     1       3.155   3.526  20.164  0.00  0.00    +0.000 A 
ATOM      3  O   UNL     1       2.422   2.701  20.967  0.00  0.00    +0.000 OA
ATOM      4  C   UNL     1       1.196   3.254  21.106  0.00  0.00    +0.000 A 
ATOM      5  C   UNL     1       1.124   4.427  20.400  0.00  0.00    +0.000 A 
ATOM      6  C   UNL     1       2.394   4.629  19.774  0.00  0.00    +0.000 A 
ATOM      7  C   UNL     1       3.002   5.591  18.926  0.00  0.00    +0.000 A 
ATOM      8  C   UNL     1       4.355   5.383  18.535  0.00  0.00    +0.000 A 
ATOM      9  C   UNL     1       5.059   6.354  17.643  0.00  0.00    +0.000 A 
ATOM     10  O   UNL     1       4.570   7.381  17.189  0.00  0.00    +0.000 OA
ATOM     11  C   UNL     1       6.453   6.047  17.292  0.00  0.00    +0.000 A 
ATOM     12  C   UNL     1       6.997   4.928  17.762  0.00  0.00    +0.000 A 
ATOM     13  O   UNL     1       6.370   4.013  18.557  0.00  0.00    +0.000 OA
ATOM     14  C   UNL     1       5.072   4.248  18.961  0.00  0.00    +0.000 A 
ENDROOT
BRANCH   1  16
ATOM     15  C   UNL     1       4.717   0.930  19.476  0.00  0.00    +0.000 C 
ATOM     16  O   UNL     1       5.041   2.103  20.210  0.00  0.00    +0.000 OA
ENDBRANCH   1  16
BRANCH   7  17
ATOM     17  O   UNL     1       2.401   6.735  18.433  0.00  0.00    +0.000 OA
ATOM     18  C   UNL     1       2.050   7.788  19.311  0.00  0.00    +0.000 C 
ENDBRANCH   7  17
TORSDOF 2
ENDMDL
MODEL 3
REMARK VINA RESULT:      -6.2      1.250      3.742
REMARK  Name = 
REMARK  4 active torsions:
REMARK  status: ('A' for Active; 'I' for Inactive)
REMARK    1  A    between atoms: C_1  and  O_2
REMARK    2  A    between atoms: O_2  and  C_3
REMARK    3  A    between atoms: C_9  and  O_10
REMARK    4  A    between atoms: O_10  and  C_11
REMARK                            x       y       z     vdW  Elec       q    Type
REMARK                         _______ _______ _______ _____ _____    ______ ____
ROOT
ATOM      1  C   UNL     1       2.902   6.242  18.785  0.00  0.00    +0.000 A 
ATOM      2  C   UNL     1       2.277   5.138  19.385  0.00  0.00    +0.000 A 
ATOM      3  O   UNL     1       1.365   5.237  20.396  0.00  0.00    +0.000 OA
ATOM      4  C   UNL     1       0.978   3.982  20.716  0.00  0.00    +0.000 A 
ATOM      5  C   UNL     1       1.631   3.070  19.928  0.00  0.00    +0.000 A 
ATOM      6  C   UNL     1       2.488   3.801  19.047  0.00  0.00    +0.000 A 
ATOM      7  C   UNL     1       3.417   3.514  18.013  0.00  0.00    +0.000 A 
ATOM      8  C   UNL     1       4.068   4.606  17.373  0.00  0.00    +0.000 A 
ATOM      9  C   UNL     1       5.059   4.379  16.278  0.00  0.00    +0.000 A 
ATOM     10  O   UNL     1       5.387   3.286  15.836  0.00  0.00    +0.000 OA
ATOM     11  C   UNL     1       5.682   5.572  15.684  0.00  0.00    +0.000 A 
ATOM     12  C   UNL     1       5.351   6.768  16.162  0.00  0.00    +0.000 A 
ATOM     13  O   UNL     1       4.469   7.002  17.177  0.00  0.00    +0.000 OA
ATOM     14  C   UNL     1       3.814   5.937  17.760  0.00  0.00    +0.000 A 
ENDROOT
BRANCH   1  16
ATOM     15  C   UNL     1       1.886   8.378  18.502  0.00  0.00    +0.000 C 
ATOM     16  O   UNL     1       2.629   7.474  19.307  0.00  0.00    +0.000 OA
ENDBRANCH   1  16
BRANCH   7  17
ATOM     17  O   UNL     1       3.759   2.255  17.554  0.00  0.00    +0.000 OA
ATOM     18  C   UNL     1       3.914   1.185  18.466  0.00  0.00    +0.000 C 
ENDBRANCH   7  17
TORSDOF 2
ENDMDL
MODEL 4
REMARK VINA RESULT:      -6.2      2.007      2.158
REMARK  Name = 
REMARK  4 active torsions:
REMARK  status: ('A' for Active; 'I' for Inactive)
REMARK    1  A    between atoms: C_1  and  O_2
REMARK    2  A    between atoms: O_2  and  C_3
REMARK    3  A    between atoms: C_9  and  O_10
REMARK    4  A    between atoms: O_10  and  C_11
REMARK                            x       y       z     vdW  Elec       q    Type
REMARK                         _______ _______ _______ _____ _____    ______ ____
ROOT
ATOM      1  C   UNL     1       4.704   3.612  18.899  0.00  0.00    +0.000 A 
ATOM      2  C   UNL     1       3.368   3.881  18.566  0.00  0.00    +0.000 A 
ATOM      3  O   UNL     1       2.335   3.023  18.809  0.00  0.00    +0.000 OA
ATOM      4  C   UNL     1       1.204   3.612  18.361  0.00  0.00    +0.000 A 
ATOM      5  C   UNL     1       1.492   4.842  17.827  0.00  0.00    +0.000 A 
ATOM      6  C   UNL     1       2.903   5.042  17.949  0.00  0.00    +0.000 A 
ATOM      7  C   UNL     1       3.850   6.045  17.616  0.00  0.00    +0.000 A 
ATOM      8  C   UNL     1       5.216   5.815  17.944  0.00  0.00    +0.000 A 
ATOM      9  C   UNL     1       6.268   6.827  17.622  0.00  0.00    +0.000 A 
ATOM     10  O   UNL     1       6.069   7.906  17.081  0.00  0.00    +0.000 OA
ATOM     11  C   UNL     1       7.650   6.492  17.996  0.00  0.00    +0.000 A 
ATOM     12  C   UNL     1       7.889   5.317  18.571  0.00  0.00    +0.000 A 
ATOM     13  O   UNL     1       6.951   4.366  18.853  0.00  0.00    +0.000 OA
ATOM     14  C   UNL     1       5.626   4.619  18.567  0.00  0.00    +0.000 A 
ENDROOT
BRANCH   1  16
ATOM     15  C   UNL     1       4.502   2.107  20.736  0.00  0.00    +0.000 C 
ATOM     16  O   UNL     1       4.981   2.382  19.427  0.00  0.00    +0.000 OA
ENDBRANCH   1  16
BRANCH   7  17
ATOM     17  O   UNL     1       3.574   7.250  16.995  0.00  0.00    +0.000 OA
ATOM     18  C   UNL     1       2.748   8.205  17.633  0.00  0.00    +0.000 C 
ENDBRANCH   7  17
TORSDOF 2
ENDMDL
MODEL 5
REMARK VINA RESULT:      -6.1      1.339      1.698
REMARK  Name = 
REMARK  4 active torsions:
REMARK  status: ('A' for Active; 'I' for Inactive)
REMARK    1  A    between atoms: C_1  and  O_2
REMARK    2  A    between atoms: O_2  and  C_3
REMARK    3  A    between atoms: C_9  and  O_10
REMARK    4  A    between atoms: O_10  and  C_11
REMARK                            x       y       z     vdW  Elec       q    Type
REMARK                         _______ _______ _______ _____ _____    ______ ____
ROOT
ATOM      1  C   UNL     1       3.402   2.874  18.271  0.00  0.00    +0.000 A 
ATOM      2  C   UNL     1       2.422   3.241  19.206  0.00  0.00    +0.000 A 
ATOM      3  O   UNL     1       1.745   2.350  19.988  0.00  0.00    +0.000 OA
ATOM      4  C   UNL     1       0.892   3.057  20.762  0.00  0.00    +0.000 A 
ATOM      5  C   UNL     1       1.004   4.396  20.489  0.00  0.00    +0.000 A 
ATOM      6  C   UNL     1       2.001   4.544  19.473  0.00  0.00    +0.000 A 
ATOM      7  C   UNL     1       2.599   5.601  18.740  0.00  0.00    +0.000 A 
ATOM      8  C   UNL     1       3.603   5.273  17.786  0.00  0.00    +0.000 A 
ATOM      9  C   UNL     1       4.276   6.335  16.977  0.00  0.00    +0.000 A 
ATOM     10  O   UNL     1       4.049   7.535  17.057  0.00  0.00    +0.000 OA
ATOM     11  C   UNL     1       5.295   5.893  16.014  0.00  0.00    +0.000 A 
ATOM     12  C   UNL     1       5.544   4.592  15.901  0.00  0.00    +0.000 A 
ATOM     13  O   UNL     1       4.928   3.600  16.609  0.00  0.00    +0.000 OA
ATOM     14  C   UNL     1       3.987   3.936  17.559  0.00  0.00    +0.000 A 
ENDROOT
BRANCH   1  16
ATOM     15  C   UNL     1       4.484   0.885  19.012  0.00  0.00    +0.000 C 
ATOM     16  O   UNL     1       3.623   1.539  18.090  0.00  0.00    +0.000 OA
ENDBRANCH   1  16
BRANCH   7  17
ATOM     17  O   UNL     1       2.300   6.946  18.863  0.00  0.00    +0.000 OA
ATOM     18  C   UNL     1       2.080   7.510  20.141  0.00  0.00    +0.000 C 
ENDBRANCH   7  17
TORSDOF 2
ENDMDL
MODEL 6
REMARK VINA RESULT:      -6.0      1.232      5.520
REMARK  Name = 
REMARK  4 active torsions:
REMARK  status: ('A' for Active; 'I' for Inactive)
REMARK    1  A    between atoms: C_1  and  O_2
REMARK    2  A    between atoms: O_2  and  C_3
REMARK    3  A    between atoms: C_9  and  O_10
REMARK    4  A    between atoms: O_10  and  C_11
REMARK                            x       y       z     vdW  Elec       q    Type
REMARK                         _______ _______ _______ _____ _____    ______ ____
ROOT
ATOM      1  C   UNL     1       3.622   6.267  18.053  0.00  0.00    +0.000 A 
ATOM      2  C   UNL     1       4.305   5.562  17.050  0.00  0.00    +0.000 A 
ATOM      3  O   UNL     1       5.136   6.147  16.139  0.00  0.00    +0.000 OA
ATOM      4  C   UNL     1       5.615   5.168  15.340  0.00  0.00    +0.000 A 
ATOM      5  C   UNL     1       5.101   3.954  15.718  0.00  0.00    +0.000 A 
ATOM      6  C   UNL     1       4.240   4.184  16.837  0.00  0.00    +0.000 A 
ATOM      7  C   UNL     1       3.410   3.416  17.695  0.00  0.00    +0.000 A 
ATOM      8  C   UNL     1       2.705   4.092  18.730  0.00  0.00    +0.000 A 
ATOM      9  C   UNL     1       1.813   3.347  19.670  0.00  0.00    +0.000 A 
ATOM     10  O   UNL     1       1.616   2.140  19.651  0.00  0.00    +0.000 OA
ATOM     11  C   UNL     1       1.123   4.137  20.701  0.00  0.00    +0.000 A 
ATOM     12  C   UNL     1       1.312   5.453  20.728  0.00  0.00    +0.000 A 
ATOM     13  O   UNL     1       2.101   6.161  19.868  0.00  0.00    +0.000 OA
ATOM     14  C   UNL     1       2.810   5.488  18.895  0.00  0.00    +0.000 A 
ENDROOT
BRANCH   1  16
ATOM     15  C   UNL     1       2.616   8.390  17.655  0.00  0.00    +0.000 C 
ATOM     16  O   UNL     1       3.746   7.627  18.055  0.00  0.00    +0.000 OA
ENDBRANCH   1  16
BRANCH   7  17
ATOM     17  O   UNL     1       3.216   2.049  17.626  0.00  0.00    +0.000 OA
ATOM     18  C   UNL     1       4.171   1.167  18.183  0.00  0.00    +0.000 C 
ENDBRANCH   7  17
TORSDOF 2
ENDMDL
MODEL 7
REMARK VINA RESULT:      -5.9      1.592      4.287
REMARK  Name = 
REMARK  4 active torsions:
REMARK  status: ('A' for Active; 'I' for Inactive)
REMARK    1  A    between atoms: C_1  and  O_2
REMARK    2  A    between atoms: O_2  and  C_3
REMARK    3  A    between atoms: C_9  and  O_10
REMARK    4  A    between atoms: O_10  and  C_11
REMARK                            x       y       z     vdW  Elec       q    Type
REMARK                         _______ _______ _______ _____ _____    ______ ____
ROOT
ATOM      1  C   UNL     1       1.860   4.145  20.059  0.00  0.00    +0.000 A 
ATOM      2  C   UNL     1       2.580   3.433  19.089  0.00  0.00    +0.000 A 
ATOM      3  O   UNL     1       2.675   2.071  19.057  0.00  0.00    +0.000 OA
ATOM      4  C   UNL     1       3.437   1.742  17.991  0.00  0.00    +0.000 A 
ATOM      5  C   UNL     1       3.841   2.874  17.331  0.00  0.00    +0.000 A 
ATOM      6  C   UNL     1       3.293   3.996  18.029  0.00  0.00    +0.000 A 
ATOM      7  C   UNL     1       3.307   5.409  17.913  0.00  0.00    +0.000 A 
ATOM      8  C   UNL     1       2.583   6.170  18.874  0.00  0.00    +0.000 A 
ATOM      9  C   UNL     1       2.554   7.663  18.814  0.00  0.00    +0.000 A 
ATOM     10  O   UNL     1       3.115   8.348  17.969  0.00  0.00    +0.000 OA
ATOM     11  C   UNL     1       1.783   8.358  19.856  0.00  0.00    +0.000 A 
ATOM     12  C   UNL     1       1.180   7.631  20.793  0.00  0.00    +0.000 A 
ATOM     13  O   UNL     1       1.210   6.270  20.885  0.00  0.00    +0.000 OA
ATOM     14  C   UNL     1       1.882   5.544  19.924  0.00  0.00    +0.000 A 
ENDROOT
BRANCH   1  16
ATOM     15  C   UNL     1       2.154   2.907  22.074  0.00  0.00    +0.000 C 
ATOM     16  O   UNL     1       1.291   3.423  21.070  0.00  0.00    +0.000 OA
ENDBRANCH   1  16
BRANCH   7  17
ATOM     17  O   UNL     1       3.965   6.138  16.939  0.00  0.00    +0.000 OA
ATOM     18  C   UNL     1       5.375   6.081  16.840  0.00  0.00    +0.000 C 
ENDBRANCH   7  17
TORSDOF 2
ENDMDL
MODEL 8
REMARK VINA RESULT:      -5.8      2.408      3.391
REMARK  Name = 
REMARK  4 active torsions:
REMARK  status: ('A' for Active; 'I' for Inactive)
REMARK    1  A    between atoms: C_1  and  O_2
REMARK    2  A    between atoms: O_2  and  C_3
REMARK    3  A    between atoms: C_9  and  O_10
REMARK    4  A    between atoms: O_10  and  C_11
REMARK                            x       y       z     vdW  Elec       q    Type
REMARK                         _______ _______ _______ _____ _____    ______ ____
ROOT
ATOM      1  C   UNL     1       4.872   3.707  19.412  0.00  0.00    +0.000 A 
ATOM      2  C   UNL     1       3.953   3.344  18.416  0.00  0.00    +0.000 A 
ATOM      3  O   UNL     1       2.904   2.494  18.620  0.00  0.00    +0.000 OA
ATOM      4  C   UNL     1       2.239   2.382  17.449  0.00  0.00    +0.000 A 
ATOM      5  C   UNL     1       2.844   3.148  16.486  0.00  0.00    +0.000 A 
ATOM      6  C   UNL     1       3.970   3.789  17.093  0.00  0.00    +0.000 A 
ATOM      7  C   UNL     1       5.003   4.680  16.703  0.00  0.00    +0.000 A 
ATOM      8  C   UNL     1       5.952   5.079  17.686  0.00  0.00    +0.000 A 
ATOM      9  C   UNL     1       7.068   6.014  17.347  0.00  0.00    +0.000 A 
ATOM     10  O   UNL     1       7.262   6.513  16.246  0.00  0.00    +0.000 OA
ATOM     11  C   UNL     1       8.000   6.360  18.430  0.00  0.00    +0.000 A 
ATOM     12  C   UNL     1       7.815   5.815  19.628  0.00  0.00    +0.000 A 
ATOM     13  O   UNL     1       6.821   4.940  19.959  0.00  0.00    +0.000 OA
ATOM     14  C   UNL     1       5.884   4.594  19.008  0.00  0.00    +0.000 A 
ENDROOT
BRANCH   1  16
ATOM     15  C   UNL     1       5.014   1.712  20.707  0.00  0.00    +0.000 C 
ATOM     16  O   UNL     1       4.742   3.104  20.631  0.00  0.00    +0.000 OA
ENDBRANCH   1  16
BRANCH   7  17
ATOM     17  O   UNL     1       5.183   5.212  15.440  0.00  0.00    +0.000 OA
ATOM     18  C   UNL     1       5.558   4.376  14.363  0.00  0.00    +0.000 C 
ENDBRANCH   7  17
TORSDOF 2
ENDMDL
MODEL 9
REMARK VINA RESULT:      -5.8      1.774      3.924
REMARK  Name = 
REMARK  4 active torsions:
REMARK  status: ('A' for Active; 'I' for Inactive)
REMARK    1  A    between atoms: C_1  and  O_2
REMARK    2  A    between atoms: O_2  and  C_3
REMARK    3  A    between atoms: C_9  and  O_10
REMARK    4  A    between atoms: O_10  and  C_11
REMARK                            x       y       z     vdW  Elec       q    Type
REMARK                         _______ _______ _______ _____ _____    ______ ____
ROOT
ATOM      1  C   UNL     1       2.834   6.232  18.359  0.00  0.00    +0.000 A 
ATOM      2  C   UNL     1       2.330   5.217  19.186  0.00  0.00    +0.000 A 
ATOM      3  O   UNL     1       1.030   5.146  19.598  0.00  0.00    +0.000 OA
ATOM      4  C   UNL     1       0.910   4.044  20.371  0.00  0.00    +0.000 A 
ATOM      5  C   UNL     1       2.117   3.399  20.468  0.00  0.00    +0.000 A 
ATOM      6  C   UNL     1       3.064   4.147  19.700  0.00  0.00    +0.000 A 
ATOM      7  C   UNL     1       4.443   4.068  19.375  0.00  0.00    +0.000 A 
ATOM      8  C   UNL     1       4.993   5.075  18.532  0.00  0.00    +0.000 A 
ATOM      9  C   UNL     1       6.438   5.056  18.149  0.00  0.00    +0.000 A 
ATOM     10  O   UNL     1       7.250   4.209  18.496  0.00  0.00    +0.000 OA
ATOM     11  C   UNL     1       6.911   6.144  17.280  0.00  0.00    +0.000 A 
ATOM     12  C   UNL     1       6.047   7.082  16.905  0.00  0.00    +0.000 A 
ATOM     13  O   UNL     1       4.730   7.137  17.260  0.00  0.00    +0.000 OA
ATOM     14  C   UNL     1       4.200   6.133  18.044  0.00  0.00    +0.000 A 
ENDROOT
BRANCH   1  16
ATOM     15  C   UNL     1       1.998   8.414  18.825  0.00  0.00    +0.000 C 
ATOM     16  O   UNL     1       1.981   7.243  18.020  0.00  0.00    +0.000 OA
ENDBRANCH   1  16
BRANCH   7  17
ATOM     17  O   UNL     1       5.323   3.090  19.800  0.00  0.00    +0.000 OA
ATOM     18  C   UNL     1       4.844   1.807  20.153  0.00  0.00    +0.000 C 
ENDBRANCH   7  17
TORSDOF 2
ENDMDL
