MODEL 1
REMARK VINA RESULT:      -7.6      0.000      0.000
REMARK  Name = 
REMARK  18 active torsions:
REMARK  status: ('A' for Active; 'I' for Inactive)
REMARK    1  A    between atoms: C_1  and  C_2
REMARK    2  A    between atoms: C_5  and  C_6
REMARK    3  A    between atoms: C_6  and  C_8
REMARK    4  A    between atoms: C_9  and  C_10
REMARK    5  A    between atoms: N_12  and  C_13
REMARK    6  A    between atoms: N_12  and  C_17
REMARK    7  A    between atoms: C_13  and  C_14
REMARK    8  A    between atoms: C_14  and  C_15
REMARK    9  A    between atoms: C_14  and  C_16
REMARK   10  A    between atoms: C_17  and  C_18
REMARK   11  A    between atoms: C_17  and  C_25
REMARK   12  A    between atoms: N_20  and  C_21
REMARK   13  A    between atoms: C_21  and  C_22
REMARK   14  A    between atoms: C_21  and  C_23
REMARK   15  A    between atoms: C_21  and  C_24
REMARK   16  A    between atoms: C_25  and  C_26
REMARK   17  A    between atoms: C_25  and  C_27
REMARK   18  A    between atoms: C_25  and  C_28
REMARK                            x       y       z     vdW  Elec       q    Type
REMARK                         _______ _______ _______ _____ _____    ______ ____
ROOT
ATOM      1  C   UNL     1       1.413   9.568  18.539  0.00  0.00    +0.000 C 
ATOM      2  O   UNL     1       1.386   9.684  17.313  0.00  0.00    +0.000 OA
ATOM      3  N   UNL     1       0.866  10.491  19.415  0.00  0.00    +0.000 N 
ENDROOT
BRANCH   1   5
ATOM      4  C   UNL     1       2.226   7.334  18.245  0.00  0.00    +0.000 C 
ATOM      5  C   UNL     1       2.155   8.407  19.042  0.00  0.00    +0.000 C 
BRANCH   4   6
ATOM      6  C   UNL     1       3.226   6.295  18.579  0.00  0.00    +0.000 C 
ATOM      7  O   UNL     1       3.340   5.883  19.731  0.00  0.00    +0.000 OA
BRANCH   6  12
ATOM      8  C   UNL     1       6.255   3.993  14.214  0.00  0.00    +0.000 C 
ATOM      9  C   UNL     1       5.534   4.593  15.385  0.00  0.00    +0.000 A 
ATOM     10  C   UNL     1       4.911   3.784  16.338  0.00  0.00    +0.000 A 
ATOM     11  C   UNL     1       4.197   4.361  17.388  0.00  0.00    +0.000 A 
ATOM     12  C   UNL     1       4.091   5.754  17.499  0.00  0.00    +0.000 A 
ATOM     13  C   UNL     1       4.737   6.564  16.558  0.00  0.00    +0.000 A 
ATOM     14  C   UNL     1       5.456   5.985  15.511  0.00  0.00    +0.000 A 
ENDBRANCH   6  12
ENDBRANCH   4   6
ENDBRANCH   1   5
BRANCH   3  15
ATOM     15  C   UNL     1       0.870  10.322  20.897  0.00  0.00    +0.000 C 
BRANCH  15  16
ATOM     16  C   UNL     1      -0.371   9.678  21.574  0.00  0.00    +0.000 C 
ATOM     17  C   UNL     1      -0.297   8.158  21.704  0.00  0.00    +0.000 C 
ATOM     18  C   UNL     1      -0.606  10.298  22.960  0.00  0.00    +0.000 C 
ENDBRANCH  15  16
ENDBRANCH   3  15
BRANCH   3  19
ATOM     19  C   UNL     1       0.183  11.720  18.861  0.00  0.00    +0.000 C 
BRANCH  19  20
ATOM     20  C   UNL     1      -1.323  11.432  18.617  0.00  0.00    +0.000 C 
ATOM     21  O   UNL     1      -2.152  11.631  19.503  0.00  0.00    +0.000 OA
ATOM     22  N   UNL     1      -1.627  10.895  17.386  0.00  0.00    +0.000 N 
ATOM     23  H   UNL     1      -0.873  10.872  16.708  0.00  0.00    +0.000 HD
BRANCH  22  24
ATOM     24  C   UNL     1      -2.954  10.528  16.903  0.00  0.00    +0.000 C 
ATOM     25  C   UNL     1      -3.909  11.726  16.992  0.00  0.00    +0.000 C 
ATOM     26  C   UNL     1      -2.829  10.111  15.424  0.00  0.00    +0.000 C 
ATOM     27  C   UNL     1      -3.494   9.330  17.695  0.00  0.00    +0.000 C 
ENDBRANCH  22  24
ENDBRANCH  19  20
BRANCH  19  28
ATOM     28  C   UNL     1       0.457  13.152  19.517  0.00  0.00    +0.000 C 
ATOM     29  C   UNL     1       1.973  13.430  19.591  0.00  0.00    +0.000 C 
ATOM     30  C   UNL     1      -0.155  14.264  18.615  0.00  0.00    +0.000 C 
ATOM     31  C   UNL     1      -0.114  13.399  20.924  0.00  0.00    +0.000 C 
ENDBRANCH  19  28
ENDBRANCH   3  19
TORSDOF 9
ENDMDL
MODEL 2
REMARK VINA RESULT:      -7.3      0.587      1.414
REMARK  Name = 
REMARK  18 active torsions:
REMARK  status: ('A' for Active; 'I' for Inactive)
REMARK    1  A    between atoms: C_1  and  C_2
REMARK    2  A    between atoms: C_5  and  C_6
REMARK    3  A    between atoms: C_6  and  C_8
REMARK    4  A    between atoms: C_9  and  C_10
REMARK    5  A    between atoms: N_12  and  C_13
REMARK    6  A    between atoms: N_12  and  C_17
REMARK    7  A    between atoms: C_13  and  C_14
REMARK    8  A    between atoms: C_14  and  C_15
REMARK    9  A    between atoms: C_14  and  C_16
REMARK   10  A    between atoms: C_17  and  C_18
REMARK   11  A    between atoms: C_17  and  C_25
REMARK   12  A    between atoms: N_20  and  C_21
REMARK   13  A    between atoms: C_21  and  C_22
REMARK   14  A    between atoms: C_21  and  C_23
REMARK   15  A    between atoms: C_21  and  C_24
REMARK   16  A    between atoms: C_25  and  C_26
REMARK   17  A    between atoms: C_25  and  C_27
REMARK   18  A    between atoms: C_25  and  C_28
REMARK                            x       y       z     vdW  Elec       q    Type
REMARK                         _______ _______ _______ _____ _____    ______ ____
ROOT
ATOM      1  C   UNL     1       1.384   9.752  18.542  0.00  0.00    +0.000 C 
ATOM      2  O   UNL     1       1.870  10.253  17.527  0.00  0.00    +0.000 OA
ATOM      3  N   UNL     1       0.357  10.327  19.271  0.00  0.00    +0.000 N 
ENDROOT
BRANCH   1   5
ATOM      4  C   UNL     1       2.301   7.588  18.079  0.00  0.00    +0.000 C 
ATOM      5  C   UNL     1       2.030   8.518  19.003  0.00  0.00    +0.000 C 
BRANCH   4   6
ATOM      6  C   UNL     1       3.232   6.500  18.453  0.00  0.00    +0.000 C 
ATOM      7  O   UNL     1       3.364   6.165  19.627  0.00  0.00    +0.000 OA
BRANCH   6  12
ATOM      8  C   UNL     1       6.590   4.019  14.441  0.00  0.00    +0.000 C 
ATOM      9  C   UNL     1       5.661   4.653  15.433  0.00  0.00    +0.000 A 
ATOM     10  C   UNL     1       5.502   6.040  15.487  0.00  0.00    +0.000 A 
ATOM     11  C   UNL     1       4.678   6.615  16.454  0.00  0.00    +0.000 A 
ATOM     12  C   UNL     1       4.005   5.814  17.385  0.00  0.00    +0.000 A 
ATOM     13  C   UNL     1       4.144   4.423  17.315  0.00  0.00    +0.000 A 
ATOM     14  C   UNL     1       4.964   3.849  16.342  0.00  0.00    +0.000 A 
ENDBRANCH   6  12
ENDBRANCH   4   6
ENDBRANCH   1   5
BRANCH   3  15
ATOM     15  C   UNL     1      -0.251   9.694  20.477  0.00  0.00    +0.000 C 
BRANCH  15  16
ATOM     16  C   UNL     1       0.330  10.048  21.873  0.00  0.00    +0.000 C 
ATOM     17  C   UNL     1      -0.715  10.144  22.982  0.00  0.00    +0.000 C 
ATOM     18  C   UNL     1       1.410   9.032  22.276  0.00  0.00    +0.000 C 
ENDBRANCH  15  16
ENDBRANCH   3  15
BRANCH   3  19
ATOM     19  C   UNL     1      -0.227  11.644  18.813  0.00  0.00    +0.000 C 
BRANCH  19  20
ATOM     20  C   UNL     1      -1.722  11.465  18.436  0.00  0.00    +0.000 C 
ATOM     21  O   UNL     1      -2.611  11.915  19.156  0.00  0.00    +0.000 OA
ATOM     22  N   UNL     1      -1.957  10.729  17.295  0.00  0.00    +0.000 N 
ATOM     23  H   UNL     1      -1.143  10.499  16.735  0.00  0.00    +0.000 HD
BRANCH  22  24
ATOM     24  C   UNL     1      -3.260  10.407  16.722  0.00  0.00    +0.000 C 
ATOM     25  C   UNL     1      -3.970   9.342  17.568  0.00  0.00    +0.000 C 
ATOM     26  C   UNL     1      -4.117  11.688  16.727  0.00  0.00    +0.000 C 
ATOM     27  C   UNL     1      -3.099   9.943  15.269  0.00  0.00    +0.000 C 
ENDBRANCH  22  24
ENDBRANCH  19  20
BRANCH  19  28
ATOM     28  C   UNL     1       0.062  12.980  19.642  0.00  0.00    +0.000 C 
ATOM     29  C   UNL     1       1.531  13.013  20.114  0.00  0.00    +0.000 C 
ATOM     30  C   UNL     1      -0.138  14.218  18.721  0.00  0.00    +0.000 C 
ATOM     31  C   UNL     1      -0.813  13.239  20.880  0.00  0.00    +0.000 C 
ENDBRANCH  19  28
ENDBRANCH   3  19
TORSDOF 9
ENDMDL
MODEL 3
REMARK VINA RESULT:      -7.3      0.578      1.278
REMARK  Name = 
REMARK  18 active torsions:
REMARK  status: ('A' for Active; 'I' for Inactive)
REMARK    1  A    between atoms: C_1  and  C_2
REMARK    2  A    between atoms: C_5  and  C_6
REMARK    3  A    between atoms: C_6  and  C_8
REMARK    4  A    between atoms: C_9  and  C_10
REMARK    5  A    between atoms: N_12  and  C_13
REMARK    6  A    between atoms: N_12  and  C_17
REMARK    7  A    between atoms: C_13  and  C_14
REMARK    8  A    between atoms: C_14  and  C_15
REMARK    9  A    between atoms: C_14  and  C_16
REMARK   10  A    between atoms: C_17  and  C_18
REMARK   11  A    between atoms: C_17  and  C_25
REMARK   12  A    between atoms: N_20  and  C_21
REMARK   13  A    between atoms: C_21  and  C_22
REMARK   14  A    between atoms: C_21  and  C_23
REMARK   15  A    between atoms: C_21  and  C_24
REMARK   16  A    between atoms: C_25  and  C_26
REMARK   17  A    between atoms: C_25  and  C_27
REMARK   18  A    between atoms: C_25  and  C_28
REMARK                            x       y       z     vdW  Elec       q    Type
REMARK                         _______ _______ _______ _____ _____    ______ ____
ROOT
ATOM      1  C   UNL     1       1.486   9.679  18.527  0.00  0.00    +0.000 C 
ATOM      2  O   UNL     1       1.978  10.170  17.510  0.00  0.00    +0.000 OA
ATOM      3  N   UNL     1       0.453  10.260  19.243  0.00  0.00    +0.000 N 
ENDROOT
BRANCH   1   5
ATOM      4  C   UNL     1       2.289   7.460  18.122  0.00  0.00    +0.000 C 
ATOM      5  C   UNL     1       2.131   8.452  19.006  0.00  0.00    +0.000 C 
BRANCH   4   6
ATOM      6  C   UNL     1       3.215   6.362  18.480  0.00  0.00    +0.000 C 
ATOM      7  O   UNL     1       3.258   5.929  19.629  0.00  0.00    +0.000 OA
BRANCH   6  12
ATOM      8  C   UNL     1       6.291   3.937  14.215  0.00  0.00    +0.000 C 
ATOM      9  C   UNL     1       5.557   4.567  15.362  0.00  0.00    +0.000 A 
ATOM     10  C   UNL     1       4.878   3.784  16.299  0.00  0.00    +0.000 A 
ATOM     11  C   UNL     1       4.153   4.390  17.326  0.00  0.00    +0.000 A 
ATOM     12  C   UNL     1       4.093   5.786  17.428  0.00  0.00    +0.000 A 
ATOM     13  C   UNL     1       4.795   6.569  16.505  0.00  0.00    +0.000 A 
ATOM     14  C   UNL     1       5.524   5.961  15.482  0.00  0.00    +0.000 A 
ENDBRANCH   6  12
ENDBRANCH   4   6
ENDBRANCH   1   5
BRANCH   3  15
ATOM     15  C   UNL     1      -0.161   9.640  20.452  0.00  0.00    +0.000 C 
BRANCH  15  16
ATOM     16  C   UNL     1       0.366  10.060  21.851  0.00  0.00    +0.000 C 
ATOM     17  C   UNL     1      -0.722  10.221  22.911  0.00  0.00    +0.000 C 
ATOM     18  C   UNL     1       1.419   9.058  22.349  0.00  0.00    +0.000 C 
ENDBRANCH  15  16
ENDBRANCH   3  15
BRANCH   3  19
ATOM     19  C   UNL     1      -0.130  11.571  18.767  0.00  0.00    +0.000 C 
BRANCH  19  20
ATOM     20  C   UNL     1      -1.628  11.392  18.407  0.00  0.00    +0.000 C 
ATOM     21  O   UNL     1      -2.509  11.825  19.147  0.00  0.00    +0.000 OA
ATOM     22  N   UNL     1      -1.876  10.674  17.257  0.00  0.00    +0.000 N 
ATOM     23  H   UNL     1      -1.069  10.457  16.682  0.00  0.00    +0.000 HD
BRANCH  22  24
ATOM     24  C   UNL     1      -3.185  10.356  16.696  0.00  0.00    +0.000 C 
ATOM     25  C   UNL     1      -3.908   9.324  17.572  0.00  0.00    +0.000 C 
ATOM     26  C   UNL     1      -4.024  11.649  16.669  0.00  0.00    +0.000 C 
ATOM     27  C   UNL     1      -3.035   9.851  15.255  0.00  0.00    +0.000 C 
ENDBRANCH  22  24
ENDBRANCH  19  20
BRANCH  19  28
ATOM     28  C   UNL     1       0.173  12.921  19.569  0.00  0.00    +0.000 C 
ATOM     29  C   UNL     1       0.025  14.144  18.640  0.00  0.00    +0.000 C 
ATOM     30  C   UNL     1      -0.874  13.097  20.706  0.00  0.00    +0.000 C 
ATOM     31  C   UNL     1       1.548  13.037  20.249  0.00  0.00    +0.000 C 
ENDBRANCH  19  28
ENDBRANCH   3  19
TORSDOF 9
ENDMDL
MODEL 4
REMARK VINA RESULT:      -7.1      0.230      1.451
REMARK  Name = 
REMARK  18 active torsions:
REMARK  status: ('A' for Active; 'I' for Inactive)
REMARK    1  A    between atoms: C_1  and  C_2
REMARK    2  A    between atoms: C_5  and  C_6
REMARK    3  A    between atoms: C_6  and  C_8
REMARK    4  A    between atoms: C_9  and  C_10
REMARK    5  A    between atoms: N_12  and  C_13
REMARK    6  A    between atoms: N_12  and  C_17
REMARK    7  A    between atoms: C_13  and  C_14
REMARK    8  A    between atoms: C_14  and  C_15
REMARK    9  A    between atoms: C_14  and  C_16
REMARK   10  A    between atoms: C_17  and  C_18
REMARK   11  A    between atoms: C_17  and  C_25
REMARK   12  A    between atoms: N_20  and  C_21
REMARK   13  A    between atoms: C_21  and  C_22
REMARK   14  A    between atoms: C_21  and  C_23
REMARK   15  A    between atoms: C_21  and  C_24
REMARK   16  A    between atoms: C_25  and  C_26
REMARK   17  A    between atoms: C_25  and  C_27
REMARK   18  A    between atoms: C_25  and  C_28
REMARK                            x       y       z     vdW  Elec       q    Type
REMARK                         _______ _______ _______ _____ _____    ______ ____
ROOT
ATOM      1  C   UNL     1       1.410   9.660  18.607  0.00  0.00    +0.000 C 
ATOM      2  O   UNL     1       1.391   9.808  17.384  0.00  0.00    +0.000 OA
ATOM      3  N   UNL     1       0.873  10.569  19.503  0.00  0.00    +0.000 N 
ENDROOT
BRANCH   1   5
ATOM      4  C   UNL     1       2.199   7.427  18.255  0.00  0.00    +0.000 C 
ATOM      5  C   UNL     1       2.130   8.475  19.084  0.00  0.00    +0.000 C 
BRANCH   4   6
ATOM      6  C   UNL     1       3.182   6.365  18.570  0.00  0.00    +0.000 C 
ATOM      7  O   UNL     1       3.378   6.019  19.732  0.00  0.00    +0.000 OA
BRANCH   6  12
ATOM      8  C   UNL     1       6.446   4.018  14.404  0.00  0.00    +0.000 C 
ATOM      9  C   UNL     1       5.542   4.625  15.435  0.00  0.00    +0.000 A 
ATOM     10  C   UNL     1       5.454   6.010  15.591  0.00  0.00    +0.000 A 
ATOM     11  C   UNL     1       4.651   6.554  16.594  0.00  0.00    +0.000 A 
ATOM     12  C   UNL     1       3.929   5.721  17.459  0.00  0.00    +0.000 A 
ATOM     13  C   UNL     1       3.996   4.334  17.286  0.00  0.00    +0.000 A 
ATOM     14  C   UNL     1       4.796   3.792  16.277  0.00  0.00    +0.000 A 
ENDBRANCH   6  12
ENDBRANCH   4   6
ENDBRANCH   1   5
BRANCH   3  15
ATOM     15  C   UNL     1       0.867  10.364  20.980  0.00  0.00    +0.000 C 
BRANCH  15  16
ATOM     16  C   UNL     1      -0.373   9.693  21.631  0.00  0.00    +0.000 C 
ATOM     17  C   UNL     1      -0.288   8.171  21.724  0.00  0.00    +0.000 C 
ATOM     18  C   UNL     1      -0.624  10.276  23.031  0.00  0.00    +0.000 C 
ENDBRANCH  15  16
ENDBRANCH   3  15
BRANCH   3  19
ATOM     19  C   UNL     1       0.212  11.823  18.978  0.00  0.00    +0.000 C 
BRANCH  19  20
ATOM     20  C   UNL     1      -1.298  11.569  18.729  0.00  0.00    +0.000 C 
ATOM     21  O   UNL     1      -2.120  11.731  19.629  0.00  0.00    +0.000 OA
ATOM     22  N   UNL     1      -1.617  11.103  17.473  0.00  0.00    +0.000 N 
ATOM     23  H   UNL     1      -0.867  11.106  16.790  0.00  0.00    +0.000 HD
BRANCH  22  24
ATOM     24  C   UNL     1      -2.952  10.779  16.979  0.00  0.00    +0.000 C 
ATOM     25  C   UNL     1      -3.411   9.420  17.525  0.00  0.00    +0.000 C 
ATOM     26  C   UNL     1      -3.926  11.863  17.481  0.00  0.00    +0.000 C 
ATOM     27  C   UNL     1      -2.967  10.792  15.445  0.00  0.00    +0.000 C 
ENDBRANCH  22  24
ENDBRANCH  19  20
BRANCH  19  28
ATOM     28  C   UNL     1       0.513  13.235  19.664  0.00  0.00    +0.000 C 
ATOM     29  C   UNL     1      -0.020  14.387  18.786  0.00  0.00    +0.000 C 
ATOM     30  C   UNL     1      -0.241  13.326  21.023  0.00  0.00    +0.000 C 
ATOM     31  C   UNL     1       1.983  13.558  19.984  0.00  0.00    +0.000 C 
ENDBRANCH  19  28
ENDBRANCH   3  19
TORSDOF 9
ENDMDL
MODEL 5
REMARK VINA RESULT:      -7.1      1.798      2.795
REMARK  Name = 
REMARK  18 active torsions:
REMARK  status: ('A' for Active; 'I' for Inactive)
REMARK    1  A    between atoms: C_1  and  C_2
REMARK    2  A    between atoms: C_5  and  C_6
REMARK    3  A    between atoms: C_6  and  C_8
REMARK    4  A    between atoms: C_9  and  C_10
REMARK    5  A    between atoms: N_12  and  C_13
REMARK    6  A    between atoms: N_12  and  C_17
REMARK    7  A    between atoms: C_13  and  C_14
REMARK    8  A    between atoms: C_14  and  C_15
REMARK    9  A    between atoms: C_14  and  C_16
REMARK   10  A    between atoms: C_17  and  C_18
REMARK   11  A    between atoms: C_17  and  C_25
REMARK   12  A    between atoms: N_20  and  C_21
REMARK   13  A    between atoms: C_21  and  C_22
REMARK   14  A    between atoms: C_21  and  C_23
REMARK   15  A    between atoms: C_21  and  C_24
REMARK   16  A    between atoms: C_25  and  C_26
REMARK   17  A    between atoms: C_25  and  C_27
REMARK   18  A    between atoms: C_25  and  C_28
REMARK                            x       y       z     vdW  Elec       q    Type
REMARK                         _______ _______ _______ _____ _____    ______ ____
ROOT
ATOM      1  C   UNL     1       1.484   9.985  18.336  0.00  0.00    +0.000 C 
ATOM      2  O   UNL     1       1.965  10.609  17.388  0.00  0.00    +0.000 OA
ATOM      3  N   UNL     1       0.504  10.489  19.174  0.00  0.00    +0.000 N 
ENDROOT
BRANCH   1   5
ATOM      4  C   UNL     1       2.644   8.043  17.550  0.00  0.00    +0.000 C 
ATOM      5  C   UNL     1       2.084   8.672  18.590  0.00  0.00    +0.000 C 
BRANCH   4   6
ATOM      6  C   UNL     1       3.532   6.894  17.838  0.00  0.00    +0.000 C 
ATOM      7  O   UNL     1       4.706   6.902  17.476  0.00  0.00    +0.000 OA
BRANCH   6  12
ATOM      8  C   UNL     1       1.203   2.618  20.973  0.00  0.00    +0.000 C 
ATOM      9  C   UNL     1       1.861   3.678  20.140  0.00  0.00    +0.000 A 
ATOM     10  C   UNL     1       2.767   4.579  20.706  0.00  0.00    +0.000 A 
ATOM     11  C   UNL     1       3.325   5.594  19.929  0.00  0.00    +0.000 A 
ATOM     12  C   UNL     1       2.983   5.726  18.576  0.00  0.00    +0.000 A 
ATOM     13  C   UNL     1       2.096   4.808  18.003  0.00  0.00    +0.000 A 
ATOM     14  C   UNL     1       1.543   3.789  18.782  0.00  0.00    +0.000 A 
ENDBRANCH   6  12
ENDBRANCH   4   6
ENDBRANCH   1   5
BRANCH   3  15
ATOM     15  C   UNL     1      -0.099   9.712  20.295  0.00  0.00    +0.000 C 
BRANCH  15  16
ATOM     16  C   UNL     1       0.529   9.842  21.710  0.00  0.00    +0.000 C 
ATOM     17  C   UNL     1      -0.490   9.900  22.846  0.00  0.00    +0.000 C 
ATOM     18  C   UNL     1       1.513   8.690  21.967  0.00  0.00    +0.000 C 
ENDBRANCH  15  16
ENDBRANCH   3  15
BRANCH   3  19
ATOM     19  C   UNL     1      -0.032  11.881  18.932  0.00  0.00    +0.000 C 
BRANCH  19  20
ATOM     20  C   UNL     1      -1.547  11.823  18.603  0.00  0.00    +0.000 C 
ATOM     21  O   UNL     1      -2.374  12.329  19.359  0.00  0.00    +0.000 OA
ATOM     22  N   UNL     1      -1.875  11.125  17.463  0.00  0.00    +0.000 N 
ATOM     23  H   UNL     1      -1.100  10.841  16.872  0.00  0.00    +0.000 HD
BRANCH  22  24
ATOM     24  C   UNL     1      -3.217  10.913  16.930  0.00  0.00    +0.000 C 
ATOM     25  C   UNL     1      -3.197  10.950  15.396  0.00  0.00    +0.000 C 
ATOM     26  C   UNL     1      -3.698   9.519  17.379  0.00  0.00    +0.000 C 
ATOM     27  C   UNL     1      -4.184  11.961  17.496  0.00  0.00    +0.000 C 
ENDBRANCH  22  24
ENDBRANCH  19  20
BRANCH  19  28
ATOM     28  C   UNL     1       0.357  13.073  19.925  0.00  0.00    +0.000 C 
ATOM     29  C   UNL     1       1.835  12.956  20.355  0.00  0.00    +0.000 C 
ATOM     30  C   UNL     1       0.214  14.435  19.186  0.00  0.00    +0.000 C 
ATOM     31  C   UNL     1      -0.475  13.211  21.212  0.00  0.00    +0.000 C 
ENDBRANCH  19  28
ENDBRANCH   3  19
TORSDOF 9
ENDMDL
MODEL 6
REMARK VINA RESULT:      -7.0      3.387      9.199
REMARK  Name = 
REMARK  18 active torsions:
REMARK  status: ('A' for Active; 'I' for Inactive)
REMARK    1  A    between atoms: C_1  and  C_2
REMARK    2  A    between atoms: C_5  and  C_6
REMARK    3  A    between atoms: C_6  and  C_8
REMARK    4  A    between atoms: C_9  and  C_10
REMARK    5  A    between atoms: N_12  and  C_13
REMARK    6  A    between atoms: N_12  and  C_17
REMARK    7  A    between atoms: C_13  and  C_14
REMARK    8  A    between atoms: C_14  and  C_15
REMARK    9  A    between atoms: C_14  and  C_16
REMARK   10  A    between atoms: C_17  and  C_18
REMARK   11  A    between atoms: C_17  and  C_25
REMARK   12  A    between atoms: N_20  and  C_21
REMARK   13  A    between atoms: C_21  and  C_22
REMARK   14  A    between atoms: C_21  and  C_23
REMARK   15  A    between atoms: C_21  and  C_24
REMARK   16  A    between atoms: C_25  and  C_26
REMARK   17  A    between atoms: C_25  and  C_27
REMARK   18  A    between atoms: C_25  and  C_28
REMARK                            x       y       z     vdW  Elec       q    Type
REMARK                         _______ _______ _______ _____ _____    ______ ____
ROOT
ATOM      1  C   UNL     1       2.280   6.841  19.576  0.00  0.00    +0.000 C 
ATOM      2  O   UNL     1       2.264   7.543  18.564  0.00  0.00    +0.000 OA
ATOM      3  N   UNL     1       2.840   5.576  19.630  0.00  0.00    +0.000 N 
ENDROOT
BRANCH   1   5
ATOM      4  C   UNL     1       0.945   8.566  20.566  0.00  0.00    +0.000 C 
ATOM      5  C   UNL     1       1.575   7.397  20.736  0.00  0.00    +0.000 C 
BRANCH   4   6
ATOM      6  C   UNL     1      -0.031   8.977  21.600  0.00  0.00    +0.000 C 
ATOM      7  O   UNL     1      -0.690   8.138  22.208  0.00  0.00    +0.000 OA
BRANCH   6  12
ATOM      8  C   UNL     1      -0.837  14.661  22.359  0.00  0.00    +0.000 C 
ATOM      9  C   UNL     1      -0.576  13.191  22.217  0.00  0.00    +0.000 A 
ATOM     10  C   UNL     1       0.338  12.709  21.276  0.00  0.00    +0.000 A 
ATOM     11  C   UNL     1       0.525  11.336  21.119  0.00  0.00    +0.000 A 
ATOM     12  C   UNL     1      -0.201  10.424  21.896  0.00  0.00    +0.000 A 
ATOM     13  C   UNL     1      -1.098  10.907  22.857  0.00  0.00    +0.000 A 
ATOM     14  C   UNL     1      -1.279  12.282  23.016  0.00  0.00    +0.000 A 
ENDBRANCH   6  12
ENDBRANCH   4   6
ENDBRANCH   1   5
BRANCH   3  15
ATOM     15  C   UNL     1       2.888   4.749  20.870  0.00  0.00    +0.000 C 
BRANCH  15  16
ATOM     16  C   UNL     1       1.603   3.996  21.310  0.00  0.00    +0.000 C 
ATOM     17  C   UNL     1       0.519   3.924  20.237  0.00  0.00    +0.000 C 
ATOM     18  C   UNL     1       1.950   2.575  21.780  0.00  0.00    +0.000 C 
ENDBRANCH  15  16
ENDBRANCH   3  15
BRANCH   3  19
ATOM     19  C   UNL     1       3.484   5.000  18.390  0.00  0.00    +0.000 C 
BRANCH  19  20
ATOM     20  C   UNL     1       5.007   4.807  18.617  0.00  0.00    +0.000 C 
ATOM     21  O   UNL     1       5.429   3.862  19.281  0.00  0.00    +0.000 OA
ATOM     22  N   UNL     1       5.811   5.788  18.081  0.00  0.00    +0.000 N 
ATOM     23  H   UNL     1       5.354   6.459  17.472  0.00  0.00    +0.000 HD
BRANCH  22  24
ATOM     24  C   UNL     1       7.267   5.854  18.152  0.00  0.00    +0.000 C 
ATOM     25  C   UNL     1       7.738   5.763  19.610  0.00  0.00    +0.000 C 
ATOM     26  C   UNL     1       7.841   4.652  17.376  0.00  0.00    +0.000 C 
ATOM     27  C   UNL     1       7.772   7.141  17.487  0.00  0.00    +0.000 C 
ENDBRANCH  22  24
ENDBRANCH  19  20
BRANCH  19  28
ATOM     28  C   UNL     1       2.797   3.776  17.625  0.00  0.00    +0.000 C 
ATOM     29  C   UNL     1       1.329   4.109  17.284  0.00  0.00    +0.000 C 
ATOM     30  C   UNL     1       3.524   3.532  16.271  0.00  0.00    +0.000 C 
ATOM     31  C   UNL     1       2.793   2.415  18.344  0.00  0.00    +0.000 C 
ENDBRANCH  19  28
ENDBRANCH   3  19
TORSDOF 9
ENDMDL
MODEL 7
REMARK VINA RESULT:      -6.8      0.898      1.283
REMARK  Name = 
REMARK  18 active torsions:
REMARK  status: ('A' for Active; 'I' for Inactive)
REMARK    1  A    between atoms: C_1  and  C_2
REMARK    2  A    between atoms: C_5  and  C_6
REMARK    3  A    between atoms: C_6  and  C_8
REMARK    4  A    between atoms: C_9  and  C_10
REMARK    5  A    between atoms: N_12  and  C_13
REMARK    6  A    between atoms: N_12  and  C_17
REMARK    7  A    between atoms: C_13  and  C_14
REMARK    8  A    between atoms: C_14  and  C_15
REMARK    9  A    between atoms: C_14  and  C_16
REMARK   10  A    between atoms: C_17  and  C_18
REMARK   11  A    between atoms: C_17  and  C_25
REMARK   12  A    between atoms: N_20  and  C_21
REMARK   13  A    between atoms: C_21  and  C_22
REMARK   14  A    between atoms: C_21  and  C_23
REMARK   15  A    between atoms: C_21  and  C_24
REMARK   16  A    between atoms: C_25  and  C_26
REMARK   17  A    between atoms: C_25  and  C_27
REMARK   18  A    between atoms: C_25  and  C_28
REMARK                            x       y       z     vdW  Elec       q    Type
REMARK                         _______ _______ _______ _____ _____    ______ ____
ROOT
ATOM      1  C   UNL     1       1.338   9.491  18.848  0.00  0.00    +0.000 C 
ATOM      2  O   UNL     1       1.364   9.471  17.617  0.00  0.00    +0.000 OA
ATOM      3  N   UNL     1       0.789  10.521  19.592  0.00  0.00    +0.000 N 
ENDROOT
BRANCH   1   5
ATOM      4  C   UNL     1       1.803   7.147  19.012  0.00  0.00    +0.000 C 
ATOM      5  C   UNL     1       2.019   8.372  19.508  0.00  0.00    +0.000 C 
BRANCH   4   6
ATOM      6  C   UNL     1       2.717   6.063  19.438  0.00  0.00    +0.000 C 
ATOM      7  O   UNL     1       2.482   5.408  20.450  0.00  0.00    +0.000 OA
BRANCH   6  12
ATOM      8  C   UNL     1       7.363   4.531  16.341  0.00  0.00    +0.000 C 
ATOM      9  C   UNL     1       6.191   4.996  17.153  0.00  0.00    +0.000 A 
ATOM     10  C   UNL     1       6.128   4.759  18.529  0.00  0.00    +0.000 A 
ATOM     11  C   UNL     1       5.004   5.148  19.257  0.00  0.00    +0.000 A 
ATOM     12  C   UNL     1       3.924   5.775  18.621  0.00  0.00    +0.000 A 
ATOM     13  C   UNL     1       3.998   6.036  17.247  0.00  0.00    +0.000 A 
ATOM     14  C   UNL     1       5.127   5.651  16.522  0.00  0.00    +0.000 A 
ENDBRANCH   6  12
ENDBRANCH   4   6
ENDBRANCH   1   5
BRANCH   3  15
ATOM     15  C   UNL     1       0.728  10.519  21.082  0.00  0.00    +0.000 C 
BRANCH  15  16
ATOM     16  C   UNL     1      -0.529   9.922  21.772  0.00  0.00    +0.000 C 
ATOM     17  C   UNL     1      -0.394   8.451  22.159  0.00  0.00    +0.000 C 
ATOM     18  C   UNL     1      -0.897  10.744  23.017  0.00  0.00    +0.000 C 
ENDBRANCH  15  16
ENDBRANCH   3  15
BRANCH   3  19
ATOM     19  C   UNL     1       0.171  11.701  18.877  0.00  0.00    +0.000 C 
BRANCH  19  20
ATOM     20  C   UNL     1      -1.331  11.432  18.597  0.00  0.00    +0.000 C 
ATOM     21  O   UNL     1      -2.183  11.668  19.451  0.00  0.00    +0.000 OA
ATOM     22  N   UNL     1      -1.608  10.865  17.372  0.00  0.00    +0.000 N 
ATOM     23  H   UNL     1      -0.835  10.811  16.718  0.00  0.00    +0.000 HD
BRANCH  22  24
ATOM     24  C   UNL     1      -2.927  10.506  16.860  0.00  0.00    +0.000 C 
ATOM     25  C   UNL     1      -2.827  10.041  15.401  0.00  0.00    +0.000 C 
ATOM     26  C   UNL     1      -3.472   9.341  17.709  0.00  0.00    +0.000 C 
ATOM     27  C   UNL     1      -3.890  11.692  16.997  0.00  0.00    +0.000 C 
ENDBRANCH  22  24
ENDBRANCH  19  20
BRANCH  19  28
ATOM     28  C   UNL     1       0.465  13.189  19.385  0.00  0.00    +0.000 C 
ATOM     29  C   UNL     1       1.984  13.461  19.407  0.00  0.00    +0.000 C 
ATOM     30  C   UNL     1      -0.157  14.211  18.390  0.00  0.00    +0.000 C 
ATOM     31  C   UNL     1      -0.081  13.575  20.770  0.00  0.00    +0.000 C 
ENDBRANCH  19  28
ENDBRANCH   3  19
TORSDOF 9
ENDMDL
MODEL 8
REMARK VINA RESULT:      -6.8      1.804      2.957
REMARK  Name = 
REMARK  18 active torsions:
REMARK  status: ('A' for Active; 'I' for Inactive)
REMARK    1  A    between atoms: C_1  and  C_2
REMARK    2  A    between atoms: C_5  and  C_6
REMARK    3  A    between atoms: C_6  and  C_8
REMARK    4  A    between atoms: C_9  and  C_10
REMARK    5  A    between atoms: N_12  and  C_13
REMARK    6  A    between atoms: N_12  and  C_17
REMARK    7  A    between atoms: C_13  and  C_14
REMARK    8  A    between atoms: C_14  and  C_15
REMARK    9  A    between atoms: C_14  and  C_16
REMARK   10  A    between atoms: C_17  and  C_18
REMARK   11  A    between atoms: C_17  and  C_25
REMARK   12  A    between atoms: N_20  and  C_21
REMARK   13  A    between atoms: C_21  and  C_22
REMARK   14  A    between atoms: C_21  and  C_23
REMARK   15  A    between atoms: C_21  and  C_24
REMARK   16  A    between atoms: C_25  and  C_26
REMARK   17  A    between atoms: C_25  and  C_27
REMARK   18  A    between atoms: C_25  and  C_28
REMARK                            x       y       z     vdW  Elec       q    Type
REMARK                         _______ _______ _______ _____ _____    ______ ____
ROOT
ATOM      1  C   UNL     1       1.489  10.025  18.278  0.00  0.00    +0.000 C 
ATOM      2  O   UNL     1       2.001  10.650  17.349  0.00  0.00    +0.000 OA
ATOM      3  N   UNL     1       0.427  10.495  19.032  0.00  0.00    +0.000 N 
ENDROOT
BRANCH   1   5
ATOM      4  C   UNL     1       2.450   7.940  17.595  0.00  0.00    +0.000 C 
ATOM      5  C   UNL     1       2.138   8.753  18.611  0.00  0.00    +0.000 C 
BRANCH   4   6
ATOM      6  C   UNL     1       3.385   6.826  17.867  0.00  0.00    +0.000 C 
ATOM      7  O   UNL     1       4.547   6.873  17.472  0.00  0.00    +0.000 OA
BRANCH   6  12
ATOM      8  C   UNL     1       1.316   2.501  21.114  0.00  0.00    +0.000 C 
ATOM      9  C   UNL     1       1.906   3.574  20.248  0.00  0.00    +0.000 A 
ATOM     10  C   UNL     1       2.836   4.482  20.761  0.00  0.00    +0.000 A 
ATOM     11  C   UNL     1       3.330   5.509  19.957  0.00  0.00    +0.000 A 
ATOM     12  C   UNL     1       2.899   5.647  18.630  0.00  0.00    +0.000 A 
ATOM     13  C   UNL     1       1.987   4.722  18.109  0.00  0.00    +0.000 A 
ATOM     14  C   UNL     1       1.498   3.691  18.915  0.00  0.00    +0.000 A 
ENDBRANCH   6  12
ENDBRANCH   4   6
ENDBRANCH   1   5
BRANCH   3  15
ATOM     15  C   UNL     1      -0.212   9.715  20.131  0.00  0.00    +0.000 C 
BRANCH  15  16
ATOM     16  C   UNL     1       0.433   9.758  21.544  0.00  0.00    +0.000 C 
ATOM     17  C   UNL     1      -0.562   9.972  22.682  0.00  0.00    +0.000 C 
ATOM     18  C   UNL     1       1.238   8.475  21.804  0.00  0.00    +0.000 C 
ENDBRANCH  15  16
ENDBRANCH   3  15
BRANCH   3  19
ATOM     19  C   UNL     1      -0.163  11.850  18.714  0.00  0.00    +0.000 C 
BRANCH  19  20
ATOM     20  C   UNL     1      -1.660  11.707  18.334  0.00  0.00    +0.000 C 
ATOM     21  O   UNL     1      -2.533  12.270  18.993  0.00  0.00    +0.000 OA
ATOM     22  N   UNL     1      -1.920  10.872  17.270  0.00  0.00    +0.000 N 
ATOM     23  H   UNL     1      -1.114  10.547  16.748  0.00  0.00    +0.000 HD
BRANCH  22  24
ATOM     24  C   UNL     1      -3.232  10.557  16.712  0.00  0.00    +0.000 C 
ATOM     25  C   UNL     1      -3.890   9.415  17.499  0.00  0.00    +0.000 C 
ATOM     26  C   UNL     1      -4.120  11.811  16.835  0.00  0.00    +0.000 C 
ATOM     27  C   UNL     1      -3.104  10.203  15.225  0.00  0.00    +0.000 C 
ENDBRANCH  22  24
ENDBRANCH  19  20
BRANCH  19  28
ATOM     28  C   UNL     1       0.133  13.097  19.670  0.00  0.00    +0.000 C 
ATOM     29  C   UNL     1      -0.789  13.059  20.907  0.00  0.00    +0.000 C 
ATOM     30  C   UNL     1       1.594  13.012  20.200  0.00  0.00    +0.000 C 
ATOM     31  C   UNL     1      -0.003  14.500  19.052  0.00  0.00    +0.000 C 
ENDBRANCH  19  28
ENDBRANCH   3  19
TORSDOF 9
ENDMDL
MODEL 9
REMARK VINA RESULT:      -6.7      2.073      4.023
REMARK  Name = 
REMARK  18 active torsions:
REMARK  status: ('A' for Active; 'I' for Inactive)
REMARK    1  A    between atoms: C_1  and  C_2
REMARK    2  A    between atoms: C_5  and  C_6
REMARK    3  A    between atoms: C_6  and  C_8
REMARK    4  A    between atoms: C_9  and  C_10
REMARK    5  A    between atoms: N_12  and  C_13
REMARK    6  A    between atoms: N_12  and  C_17
REMARK    7  A    between atoms: C_13  and  C_14
REMARK    8  A    between atoms: C_14  and  C_15
REMARK    9  A    between atoms: C_14  and  C_16
REMARK   10  A    between atoms: C_17  and  C_18
REMARK   11  A    between atoms: C_17  and  C_25
REMARK   12  A    between atoms: N_20  and  C_21
REMARK   13  A    between atoms: C_21  and  C_22
REMARK   14  A    between atoms: C_21  and  C_23
REMARK   15  A    between atoms: C_21  and  C_24
REMARK   16  A    between atoms: C_25  and  C_26
REMARK   17  A    between atoms: C_25  and  C_27
REMARK   18  A    between atoms: C_25  and  C_28
REMARK                            x       y       z     vdW  Elec       q    Type
REMARK                         _______ _______ _______ _____ _____    ______ ____
ROOT
ATOM      1  C   UNL     1       0.976   9.386  21.665  0.00  0.00    +0.000 C 
ATOM      2  O   UNL     1       1.770   9.572  22.589  0.00  0.00    +0.000 OA
ATOM      3  N   UNL     1       0.085  10.343  21.209  0.00  0.00    +0.000 N 
ENDROOT
BRANCH   1   5
ATOM      4  C   UNL     1       1.986   7.680  20.322  0.00  0.00    +0.000 C 
ATOM      5  C   UNL     1       0.964   8.028  21.113  0.00  0.00    +0.000 C 
BRANCH   4   6
ATOM      6  C   UNL     1       2.167   6.241  20.027  0.00  0.00    +0.000 C 
ATOM      7  O   UNL     1       1.688   5.385  20.766  0.00  0.00    +0.000 OA
BRANCH   6  12
ATOM      8  C   UNL     1       5.514   4.857  15.509  0.00  0.00    +0.000 C 
ATOM      9  C   UNL     1       4.588   5.216  16.633  0.00  0.00    +0.000 A 
ATOM     10  C   UNL     1       4.390   6.548  17.006  0.00  0.00    +0.000 A 
ATOM     11  C   UNL     1       3.570   6.859  18.090  0.00  0.00    +0.000 A 
ATOM     12  C   UNL     1       2.938   5.843  18.820  0.00  0.00    +0.000 A 
ATOM     13  C   UNL     1       3.115   4.511  18.431  0.00  0.00    +0.000 A 
ATOM     14  C   UNL     1       3.932   4.203  17.341  0.00  0.00    +0.000 A 
ENDBRANCH   6  12
ENDBRANCH   4   6
ENDBRANCH   1   5
BRANCH   3  15
ATOM     15  C   UNL     1      -0.846  10.121  20.065  0.00  0.00    +0.000 C 
BRANCH  15  16
ATOM     16  C   UNL     1      -0.420  10.614  18.655  0.00  0.00    +0.000 C 
ATOM     17  C   UNL     1       0.584   9.707  17.949  0.00  0.00    +0.000 C 
ATOM     18  C   UNL     1      -1.654  10.804  17.759  0.00  0.00    +0.000 C 
ENDBRANCH  15  16
ENDBRANCH   3  15
BRANCH   3  19
ATOM     19  C   UNL     1       0.067  11.707  21.860  0.00  0.00    +0.000 C 
BRANCH  19  20
ATOM     20  C   UNL     1       0.991  12.683  21.084  0.00  0.00    +0.000 C 
ATOM     21  O   UNL     1       2.201  12.712  21.304  0.00  0.00    +0.000 OA
ATOM     22  N   UNL     1       0.350  13.526  20.205  0.00  0.00    +0.000 N 
ATOM     23  H   UNL     1      -0.633  13.338  20.038  0.00  0.00    +0.000 HD
BRANCH  22  24
ATOM     24  C   UNL     1       0.975  14.538  19.359  0.00  0.00    +0.000 C 
ATOM     25  C   UNL     1       1.878  15.455  20.196  0.00  0.00    +0.000 C 
ATOM     26  C   UNL     1       1.846  13.818  18.310  0.00  0.00    +0.000 C 
ATOM     27  C   UNL     1      -0.099  15.346  18.618  0.00  0.00    +0.000 C 
ENDBRANCH  22  24
ENDBRANCH  19  20
BRANCH  19  28
ATOM     28  C   UNL     1      -1.321  12.365  22.303  0.00  0.00    +0.000 C 
ATOM     29  C   UNL     1      -2.074  11.431  23.274  0.00  0.00    +0.000 C 
ATOM     30  C   UNL     1      -1.047  13.686  23.079  0.00  0.00    +0.000 C 
ATOM     31  C   UNL     1      -2.307  12.739  21.184  0.00  0.00    +0.000 C 
ENDBRANCH  19  28
ENDBRANCH   3  19
TORSDOF 9
ENDMDL
