MODEL 1
REMARK VINA RESULT:      -8.1      0.000      0.000
REMARK  Name = 
REMARK  11 active torsions:
REMARK  status: ('A' for Active; 'I' for Inactive)
REMARK    1  A    between atoms: C_1  and  O_2
REMARK    2  A    between atoms: O_2  and  C_3
REMARK    3  A    between atoms: C_3  and  C_5
REMARK    4  A    between atoms: C_8  and  N_9
REMARK    5  A    between atoms: C_10  and  C_12
REMARK    6  A    between atoms: C_12  and  C_13
REMARK    7  A    between atoms: C_13  and  C_14
REMARK    8  A    between atoms: C_15  and  C_16
REMARK    9  A    between atoms: C_20  and  C_21
REMARK   10  A    between atoms: N_24  and  C_25
REMARK   11  A    between atoms: N_28  and  C_29
REMARK                            x       y       z     vdW  Elec       q    Type
REMARK                         _______ _______ _______ _____ _____    ______ ____
ROOT
ATOM      1  C   UNL     1       2.278   7.816  20.521  0.00  0.00    +0.000 C 
ENDROOT
BRANCH   1   2
ATOM      2  C   UNL     1       1.274   8.930  20.331  0.00  0.00    +0.000 A 
ATOM      3  C   UNL     1       0.955   9.381  19.046  0.00  0.00    +0.000 A 
ATOM      4  C   UNL     1       1.619   8.871  17.796  0.00  0.00    +0.000 C 
ATOM      5  N   UNL     1      -0.006  10.306  18.828  0.00  0.00    +0.000 NA
ATOM      6  C   UNL     1      -0.671  10.844  19.880  0.00  0.00    +0.000 A 
ATOM      7  C   UNL     1      -0.394  10.494  21.197  0.00  0.00    +0.000 A 
ATOM      8  C   UNL     1       0.607   9.519  21.445  0.00  0.00    +0.000 A 
ATOM      9  C   UNL     1       1.016   9.062  22.828  0.00  0.00    +0.000 C 
ATOM     10  C   UNL     1      -1.182  11.178  22.252  0.00  0.00    +0.000 A 
ATOM     11  O   UNL     1      -1.038  10.894  23.436  0.00  0.00    +0.000 OA
ATOM     12  N   UNL     1      -2.091  12.147  21.852  0.00  0.00    +0.000 N 
ATOM     13  C   UNL     1      -2.846  12.847  22.879  0.00  0.00    +0.000 C 
ATOM     14  C   UNL     1      -2.382  12.464  20.539  0.00  0.00    +0.000 A 
ATOM     15  O   UNL     1      -3.243  13.302  20.259  0.00  0.00    +0.000 OA
ATOM     16  N   UNL     1      -1.665  11.799  19.574  0.00  0.00    +0.000 N 
ATOM     17  C   UNL     1      -1.922  12.078  18.166  0.00  0.00    +0.000 C 
ENDBRANCH   1   2
BRANCH   1  18
ATOM     18  C   UNL     1       1.729   6.398  20.308  0.00  0.00    +0.000 C 
BRANCH  18  20
ATOM     19  N   UNL     1       3.655   6.263  18.807  0.00  0.00    +0.000 N 
ATOM     20  C   UNL     1       2.357   5.844  19.044  0.00  0.00    +0.000 C 
ATOM     21  O   UNL     1       1.730   5.057  18.335  0.00  0.00    +0.000 OA
ATOM     22  H   UNL     1       4.145   6.751  19.544  0.00  0.00    +0.000 HD
BRANCH  19  26
ATOM     23  C   UNL     1       5.972   5.149  15.443  0.00  0.00    +0.000 A 
ATOM     24  C   UNL     1       5.827   4.265  16.509  0.00  0.00    +0.000 A 
ATOM     25  C   UNL     1       5.049   4.623  17.608  0.00  0.00    +0.000 A 
ATOM     26  C   UNL     1       4.408   5.870  17.674  0.00  0.00    +0.000 A 
ATOM     27  C   UNL     1       4.526   6.738  16.589  0.00  0.00    +0.000 A 
ATOM     28  C   UNL     1       5.317   6.389  15.485  0.00  0.00    +0.000 A 
BRANCH  23  29
ATOM     29  C   UNL     1       6.811   4.717  14.295  0.00  0.00    +0.000 C 
ATOM     30  O   UNL     1       7.857   5.252  13.971  0.00  0.00    +0.000 OA
BRANCH  29  32
ATOM     31  C   UNL     1       6.515   3.565  12.284  0.00  0.00    +0.000 C 
ATOM     32  O   UNL     1       6.239   3.652  13.682  0.00  0.00    +0.000 OA
ENDBRANCH  29  32
ENDBRANCH  23  29
ENDBRANCH  19  26
ENDBRANCH  18  20
ENDBRANCH   1  18
TORSDOF 6
ENDMDL
MODEL 2
REMARK VINA RESULT:      -7.9      3.022      4.287
REMARK  Name = 
REMARK  11 active torsions:
REMARK  status: ('A' for Active; 'I' for Inactive)
REMARK    1  A    between atoms: C_1  and  O_2
REMARK    2  A    between atoms: O_2  and  C_3
REMARK    3  A    between atoms: C_3  and  C_5
REMARK    4  A    between atoms: C_8  and  N_9
REMARK    5  A    between atoms: C_10  and  C_12
REMARK    6  A    between atoms: C_12  and  C_13
REMARK    7  A    between atoms: C_13  and  C_14
REMARK    8  A    between atoms: C_15  and  C_16
REMARK    9  A    between atoms: C_20  and  C_21
REMARK   10  A    between atoms: N_24  and  C_25
REMARK   11  A    between atoms: N_28  and  C_29
REMARK                            x       y       z     vdW  Elec       q    Type
REMARK                         _______ _______ _______ _____ _____    ______ ____
ROOT
ATOM      1  C   UNL     1       0.467  11.005  21.060  0.00  0.00    +0.000 C 
ENDROOT
BRANCH   1   2
ATOM      2  C   UNL     1      -0.751  11.274  20.207  0.00  0.00    +0.000 A 
ATOM      3  C   UNL     1      -0.806  10.811  18.888  0.00  0.00    +0.000 A 
ATOM      4  C   UNL     1       0.333  10.100  18.207  0.00  0.00    +0.000 C 
ATOM      5  N   UNL     1      -1.913  10.946  18.125  0.00  0.00    +0.000 NA
ATOM      6  C   UNL     1      -3.002  11.577  18.629  0.00  0.00    +0.000 A 
ATOM      7  C   UNL     1      -3.029  12.113  19.911  0.00  0.00    +0.000 A 
ATOM      8  C   UNL     1      -1.878  11.972  20.731  0.00  0.00    +0.000 A 
ATOM      9  C   UNL     1      -1.771  12.522  22.136  0.00  0.00    +0.000 C 
ATOM     10  C   UNL     1      -4.280  12.795  20.326  0.00  0.00    +0.000 A 
ATOM     11  O   UNL     1      -4.407  13.253  21.457  0.00  0.00    +0.000 OA
ATOM     12  N   UNL     1      -5.300  12.895  19.393  0.00  0.00    +0.000 N 
ATOM     13  C   UNL     1      -6.518  13.590  19.777  0.00  0.00    +0.000 C 
ATOM     14  C   UNL     1      -5.276  12.331  18.132  0.00  0.00    +0.000 A 
ATOM     15  O   UNL     1      -6.245  12.417  17.374  0.00  0.00    +0.000 OA
ATOM     16  N   UNL     1      -4.122  11.675  17.774  0.00  0.00    +0.000 N 
ATOM     17  C   UNL     1      -4.027  11.050  16.461  0.00  0.00    +0.000 C 
ENDBRANCH   1   2
BRANCH   1  18
ATOM     18  C   UNL     1       0.303   9.883  22.096  0.00  0.00    +0.000 C 
BRANCH  18  20
ATOM     19  N   UNL     1       1.667   8.263  20.873  0.00  0.00    +0.000 N 
ATOM     20  C   UNL     1       0.407   8.559  21.365  0.00  0.00    +0.000 C 
ATOM     21  O   UNL     1      -0.576   7.824  21.274  0.00  0.00    +0.000 OA
ATOM     22  H   UNL     1       2.446   8.838  21.168  0.00  0.00    +0.000 HD
BRANCH  19  26
ATOM     23  C   UNL     1       2.472   4.717  18.704  0.00  0.00    +0.000 A 
ATOM     24  C   UNL     1       2.702   5.958  18.115  0.00  0.00    +0.000 A 
ATOM     25  C   UNL     1       2.455   7.125  18.835  0.00  0.00    +0.000 A 
ATOM     26  C   UNL     1       1.966   7.083  20.149  0.00  0.00    +0.000 A 
ATOM     27  C   UNL     1       1.771   5.839  20.748  0.00  0.00    +0.000 A 
ATOM     28  C   UNL     1       2.006   4.661  20.026  0.00  0.00    +0.000 A 
BRANCH  23  29
ATOM     29  C   UNL     1       2.752   3.504  17.894  0.00  0.00    +0.000 C 
ATOM     30  O   UNL     1       2.103   3.164  16.920  0.00  0.00    +0.000 OA
BRANCH  29  32
ATOM     31  C   UNL     1       3.586   1.482  18.717  0.00  0.00    +0.000 C 
ATOM     32  O   UNL     1       3.828   2.852  18.398  0.00  0.00    +0.000 OA
ENDBRANCH  29  32
ENDBRANCH  23  29
ENDBRANCH  19  26
ENDBRANCH  18  20
ENDBRANCH   1  18
TORSDOF 6
ENDMDL
MODEL 3
REMARK VINA RESULT:      -7.8      2.302      3.751
REMARK  Name = 
REMARK  11 active torsions:
REMARK  status: ('A' for Active; 'I' for Inactive)
REMARK    1  A    between atoms: C_1  and  O_2
REMARK    2  A    between atoms: O_2  and  C_3
REMARK    3  A    between atoms: C_3  and  C_5
REMARK    4  A    between atoms: C_8  and  N_9
REMARK    5  A    between atoms: C_10  and  C_12
REMARK    6  A    between atoms: C_12  and  C_13
REMARK    7  A    between atoms: C_13  and  C_14
REMARK    8  A    between atoms: C_15  and  C_16
REMARK    9  A    between atoms: C_20  and  C_21
REMARK   10  A    between atoms: N_24  and  C_25
REMARK   11  A    between atoms: N_28  and  C_29
REMARK                            x       y       z     vdW  Elec       q    Type
REMARK                         _______ _______ _______ _____ _____    ______ ____
ROOT
ATOM      1  C   UNL     1       0.589  10.673  18.751  0.00  0.00    +0.000 C 
ENDROOT
BRANCH   1   2
ATOM      2  C   UNL     1      -0.758  11.232  19.151  0.00  0.00    +0.000 A 
ATOM      3  C   UNL     1      -0.888  11.995  20.317  0.00  0.00    +0.000 A 
ATOM      4  C   UNL     1       0.243  12.247  21.277  0.00  0.00    +0.000 C 
ATOM      5  N   UNL     1      -2.051  12.592  20.658  0.00  0.00    +0.000 NA
ATOM      6  C   UNL     1      -3.144  12.431  19.872  0.00  0.00    +0.000 A 
ATOM      7  C   UNL     1      -3.127  11.654  18.718  0.00  0.00    +0.000 A 
ATOM      8  C   UNL     1      -1.911  11.026  18.340  0.00  0.00    +0.000 A 
ATOM      9  C   UNL     1      -1.762  10.143  17.120  0.00  0.00    +0.000 C 
ATOM     10  C   UNL     1      -4.401  11.547  17.965  0.00  0.00    +0.000 A 
ATOM     11  O   UNL     1      -4.463  10.923  16.911  0.00  0.00    +0.000 OA
ATOM     12  N   UNL     1      -5.517  12.179  18.491  0.00  0.00    +0.000 N 
ATOM     13  C   UNL     1      -6.778  12.054  17.778  0.00  0.00    +0.000 C 
ATOM     14  C   UNL     1      -5.516  12.975  19.620  0.00  0.00    +0.000 A 
ATOM     15  O   UNL     1      -6.540  13.549  19.999  0.00  0.00    +0.000 OA
ATOM     16  N   UNL     1      -4.321  13.089  20.289  0.00  0.00    +0.000 N 
ATOM     17  C   UNL     1      -4.242  13.918  21.486  0.00  0.00    +0.000 C 
ENDBRANCH   1   2
BRANCH   1  18
ATOM     18  C   UNL     1       0.872   9.244  19.233  0.00  0.00    +0.000 C 
BRANCH  18  20
ATOM     19  N   UNL     1       2.421   7.423  18.718  0.00  0.00    +0.000 N 
ATOM     20  C   UNL     1       1.903   8.637  18.302  0.00  0.00    +0.000 C 
ATOM     21  O   UNL     1       2.197   9.205  17.250  0.00  0.00    +0.000 OA
ATOM     22  H   UNL     1       1.975   6.950  19.493  0.00  0.00    +0.000 HD
BRANCH  19  26
ATOM     23  C   UNL     1       5.298   5.253  16.496  0.00  0.00    +0.000 A 
ATOM     24  C   UNL     1       5.398   6.638  16.593  0.00  0.00    +0.000 A 
ATOM     25  C   UNL     1       4.462   7.352  17.340  0.00  0.00    +0.000 A 
ATOM     26  C   UNL     1       3.404   6.703  17.996  0.00  0.00    +0.000 A 
ATOM     27  C   UNL     1       3.328   5.313  17.926  0.00  0.00    +0.000 A 
ATOM     28  C   UNL     1       4.259   4.590  17.167  0.00  0.00    +0.000 A 
BRANCH  23  29
ATOM     29  C   UNL     1       6.322   4.541  15.689  0.00  0.00    +0.000 C 
ATOM     30  O   UNL     1       7.525   4.665  15.842  0.00  0.00    +0.000 OA
BRANCH  29  32
ATOM     31  C   UNL     1       6.224   3.881  13.449  0.00  0.00    +0.000 C 
ATOM     32  O   UNL     1       5.716   3.743  14.776  0.00  0.00    +0.000 OA
ENDBRANCH  29  32
ENDBRANCH  23  29
ENDBRANCH  19  26
ENDBRANCH  18  20
ENDBRANCH   1  18
TORSDOF 6
ENDMDL
MODEL 4
REMARK VINA RESULT:      -7.8      3.121      4.920
REMARK  Name = 
REMARK  11 active torsions:
REMARK  status: ('A' for Active; 'I' for Inactive)
REMARK    1  A    between atoms: C_1  and  O_2
REMARK    2  A    between atoms: O_2  and  C_3
REMARK    3  A    between atoms: C_3  and  C_5
REMARK    4  A    between atoms: C_8  and  N_9
REMARK    5  A    between atoms: C_10  and  C_12
REMARK    6  A    between atoms: C_12  and  C_13
REMARK    7  A    between atoms: C_13  and  C_14
REMARK    8  A    between atoms: C_15  and  C_16
REMARK    9  A    between atoms: C_20  and  C_21
REMARK   10  A    between atoms: N_24  and  C_25
REMARK   11  A    between atoms: N_28  and  C_29
REMARK                            x       y       z     vdW  Elec       q    Type
REMARK                         _______ _______ _______ _____ _____    ______ ____
ROOT
ATOM      1  C   UNL     1       0.382  11.051  21.500  0.00  0.00    +0.000 C 
ENDROOT
BRANCH   1   2
ATOM      2  C   UNL     1      -0.913  11.298  20.761  0.00  0.00    +0.000 A 
ATOM      3  C   UNL     1      -1.969  11.966  21.390  0.00  0.00    +0.000 A 
ATOM      4  C   UNL     1      -1.935  12.408  22.828  0.00  0.00    +0.000 C 
ATOM      5  N   UNL     1      -3.104  12.292  20.734  0.00  0.00    +0.000 NA
ATOM      6  C   UNL     1      -3.253  11.939  19.433  0.00  0.00    +0.000 A 
ATOM      7  C   UNL     1      -2.280  11.233  18.735  0.00  0.00    +0.000 A 
ATOM      8  C   UNL     1      -1.077  10.889  19.405  0.00  0.00    +0.000 A 
ATOM      9  C   UNL     1       0.052  10.110  18.766  0.00  0.00    +0.000 C 
ATOM     10  C   UNL     1      -2.584  10.893  17.322  0.00  0.00    +0.000 A 
ATOM     11  O   UNL     1      -1.762  10.316  16.619  0.00  0.00    +0.000 OA
ATOM     12  N   UNL     1      -3.826  11.255  16.824  0.00  0.00    +0.000 N 
ATOM     13  C   UNL     1      -4.147  10.899  15.451  0.00  0.00    +0.000 C 
ATOM     14  C   UNL     1      -4.773  11.985  17.516  0.00  0.00    +0.000 A 
ATOM     15  O   UNL     1      -5.838  12.316  16.989  0.00  0.00    +0.000 OA
ATOM     16  N   UNL     1      -4.464  12.318  18.813  0.00  0.00    +0.000 N 
ATOM     17  C   UNL     1      -5.412  13.093  19.604  0.00  0.00    +0.000 C 
ENDBRANCH   1   2
BRANCH   1  18
ATOM     18  C   UNL     1       0.363   9.863  22.472  0.00  0.00    +0.000 C 
BRANCH  18  20
ATOM     19  N   UNL     1       1.658   8.250  21.168  0.00  0.00    +0.000 N 
ATOM     20  C   UNL     1       0.405   8.590  21.648  0.00  0.00    +0.000 C 
ATOM     21  O   UNL     1      -0.619   7.928  21.480  0.00  0.00    +0.000 OA
ATOM     22  H   UNL     1       2.462   8.751  21.522  0.00  0.00    +0.000 HD
BRANCH  19  26
ATOM     23  C   UNL     1       2.304   4.821  18.769  0.00  0.00    +0.000 A 
ATOM     24  C   UNL     1       2.570   6.087  18.255  0.00  0.00    +0.000 A 
ATOM     25  C   UNL     1       2.376   7.215  19.050  0.00  0.00    +0.000 A 
ATOM     26  C   UNL     1       1.904   7.108  20.367  0.00  0.00    +0.000 A 
ATOM     27  C   UNL     1       1.672   5.836  20.890  0.00  0.00    +0.000 A 
ATOM     28  C   UNL     1       1.854   4.698  20.092  0.00  0.00    +0.000 A 
BRANCH  23  29
ATOM     29  C   UNL     1       2.529   3.652  17.880  0.00  0.00    +0.000 C 
ATOM     30  O   UNL     1       1.779   3.322  16.977  0.00  0.00    +0.000 OA
BRANCH  29  32
ATOM     31  C   UNL     1       3.546   1.620  18.425  0.00  0.00    +0.000 C 
ATOM     32  O   UNL     1       3.681   3.027  18.225  0.00  0.00    +0.000 OA
ENDBRANCH  29  32
ENDBRANCH  23  29
ENDBRANCH  19  26
ENDBRANCH  18  20
ENDBRANCH   1  18
TORSDOF 6
ENDMDL
MODEL 5
REMARK VINA RESULT:      -7.5      2.487      4.183
REMARK  Name = 
REMARK  11 active torsions:
REMARK  status: ('A' for Active; 'I' for Inactive)
REMARK    1  A    between atoms: C_1  and  O_2
REMARK    2  A    between atoms: O_2  and  C_3
REMARK    3  A    between atoms: C_3  and  C_5
REMARK    4  A    between atoms: C_8  and  N_9
REMARK    5  A    between atoms: C_10  and  C_12
REMARK    6  A    between atoms: C_12  and  C_13
REMARK    7  A    between atoms: C_13  and  C_14
REMARK    8  A    between atoms: C_15  and  C_16
REMARK    9  A    between atoms: C_20  and  C_21
REMARK   10  A    between atoms: N_24  and  C_25
REMARK   11  A    between atoms: N_28  and  C_29
REMARK                            x       y       z     vdW  Elec       q    Type
REMARK                         _______ _______ _______ _____ _____    ______ ____
ROOT
ATOM      1  C   UNL     1       0.442  11.082  21.090  0.00  0.00    +0.000 C 
ENDROOT
BRANCH   1   2
ATOM      2  C   UNL     1      -0.754  11.318  20.196  0.00  0.00    +0.000 A 
ATOM      3  C   UNL     1      -0.753  10.852  18.877  0.00  0.00    +0.000 A 
ATOM      4  C   UNL     1       0.427  10.173  18.235  0.00  0.00    +0.000 C 
ATOM      5  N   UNL     1      -1.837  10.957  18.078  0.00  0.00    +0.000 NA
ATOM      6  C   UNL     1      -2.960  11.558  18.545  0.00  0.00    +0.000 A 
ATOM      7  C   UNL     1      -3.043  12.093  19.826  0.00  0.00    +0.000 A 
ATOM      8  C   UNL     1      -1.916  11.985  20.682  0.00  0.00    +0.000 A 
ATOM      9  C   UNL     1      -1.870  12.538  22.090  0.00  0.00    +0.000 C 
ATOM     10  C   UNL     1      -4.325  12.741  20.198  0.00  0.00    +0.000 A 
ATOM     11  O   UNL     1      -4.502  13.196  21.324  0.00  0.00    +0.000 OA
ATOM     12  N   UNL     1      -5.317  12.813  19.232  0.00  0.00    +0.000 N 
ATOM     13  C   UNL     1      -6.565  13.474  19.575  0.00  0.00    +0.000 C 
ATOM     14  C   UNL     1      -5.236  12.250  17.973  0.00  0.00    +0.000 A 
ATOM     15  O   UNL     1      -6.182  12.308  17.183  0.00  0.00    +0.000 OA
ATOM     16  N   UNL     1      -4.054  11.625  17.655  0.00  0.00    +0.000 N 
ATOM     17  C   UNL     1      -3.898  11.002  16.346  0.00  0.00    +0.000 C 
ENDBRANCH   1   2
BRANCH   1  18
ATOM     18  C   UNL     1       0.255   9.996  22.159  0.00  0.00    +0.000 C 
BRANCH  18  20
ATOM     19  N   UNL     1       1.584   8.357  20.925  0.00  0.00    +0.000 N 
ATOM     20  C   UNL     1       0.346   8.648  21.471  0.00  0.00    +0.000 C 
ATOM     21  O   UNL     1      -0.626   7.893  21.459  0.00  0.00    +0.000 OA
ATOM     22  H   UNL     1       2.366   8.955  21.157  0.00  0.00    +0.000 HD
BRANCH  19  26
ATOM     23  C   UNL     1       2.523   4.785  18.853  0.00  0.00    +0.000 A 
ATOM     24  C   UNL     1       1.987   4.722  20.136  0.00  0.00    +0.000 A 
ATOM     25  C   UNL     1       1.660   5.896  20.812  0.00  0.00    +0.000 A 
ATOM     26  C   UNL     1       1.868   7.156  20.229  0.00  0.00    +0.000 A 
ATOM     27  C   UNL     1       2.372   7.215  18.930  0.00  0.00    +0.000 A 
ATOM     28  C   UNL     1       2.714   6.037  18.250  0.00  0.00    +0.000 A 
BRANCH  23  29
ATOM     29  C   UNL     1       2.852   3.504  18.177  0.00  0.00    +0.000 C 
ATOM     30  O   UNL     1       2.677   2.403  18.671  0.00  0.00    +0.000 OA
BRANCH  29  32
ATOM     31  C   UNL     1       4.788   3.669  16.878  0.00  0.00    +0.000 C 
ATOM     32  O   UNL     1       3.364   3.751  16.947  0.00  0.00    +0.000 OA
ENDBRANCH  29  32
ENDBRANCH  23  29
ENDBRANCH  19  26
ENDBRANCH  18  20
ENDBRANCH   1  18
TORSDOF 6
ENDMDL
MODEL 6
REMARK VINA RESULT:      -7.5      2.321      3.732
REMARK  Name = 
REMARK  11 active torsions:
REMARK  status: ('A' for Active; 'I' for Inactive)
REMARK    1  A    between atoms: C_1  and  O_2
REMARK    2  A    between atoms: O_2  and  C_3
REMARK    3  A    between atoms: C_3  and  C_5
REMARK    4  A    between atoms: C_8  and  N_9
REMARK    5  A    between atoms: C_10  and  C_12
REMARK    6  A    between atoms: C_12  and  C_13
REMARK    7  A    between atoms: C_13  and  C_14
REMARK    8  A    between atoms: C_15  and  C_16
REMARK    9  A    between atoms: C_20  and  C_21
REMARK   10  A    between atoms: N_24  and  C_25
REMARK   11  A    between atoms: N_28  and  C_29
REMARK                            x       y       z     vdW  Elec       q    Type
REMARK                         _______ _______ _______ _____ _____    ______ ____
ROOT
ATOM      1  C   UNL     1       0.371  10.273  18.143  0.00  0.00    +0.000 C 
ENDROOT
BRANCH   1   2
ATOM      2  C   UNL     1      -0.877  10.919  18.699  0.00  0.00    +0.000 A 
ATOM      3  C   UNL     1      -0.818  11.676  19.874  0.00  0.00    +0.000 A 
ATOM      4  C   UNL     1       0.432  11.839  20.696  0.00  0.00    +0.000 C 
ATOM      5  N   UNL     1      -1.889  12.348  20.350  0.00  0.00    +0.000 NA
ATOM      6  C   UNL     1      -3.075  12.270  19.696  0.00  0.00    +0.000 A 
ATOM      7  C   UNL     1      -3.246  11.507  18.547  0.00  0.00    +0.000 A 
ATOM      8  C   UNL     1      -2.129  10.801  18.027  0.00  0.00    +0.000 A 
ATOM      9  C   UNL     1      -2.184   9.923  16.796  0.00  0.00    +0.000 C 
ATOM     10  C   UNL     1      -4.603  11.495  17.946  0.00  0.00    +0.000 A 
ATOM     11  O   UNL     1      -4.830  10.889  16.905  0.00  0.00    +0.000 OA
ATOM     12  N   UNL     1      -5.604  12.197  18.601  0.00  0.00    +0.000 N 
ATOM     13  C   UNL     1      -6.945  12.167  18.039  0.00  0.00    +0.000 C 
ATOM     14  C   UNL     1      -5.417  12.979  19.724  0.00  0.00    +0.000 A 
ATOM     15  O   UNL     1      -6.347  13.618  20.222  0.00  0.00    +0.000 OA
ATOM     16  N   UNL     1      -4.147  13.003  20.250  0.00  0.00    +0.000 N 
ATOM     17  C   UNL     1      -3.872  13.811  21.432  0.00  0.00    +0.000 C 
ENDBRANCH   1   2
BRANCH   1  18
ATOM     18  C   UNL     1       0.796   8.970  18.834  0.00  0.00    +0.000 C 
BRANCH  18  20
ATOM     19  N   UNL     1       2.513   7.244  18.600  0.00  0.00    +0.000 N 
ATOM     20  C   UNL     1       2.040   8.459  18.134  0.00  0.00    +0.000 C 
ATOM     21  O   UNL     1       2.533   9.098  17.204  0.00  0.00    +0.000 OA
ATOM     22  H   UNL     1       1.929   6.710  19.230  0.00  0.00    +0.000 HD
BRANCH  19  26
ATOM     23  C   UNL     1       6.022   5.392  17.123  0.00  0.00    +0.000 A 
ATOM     24  C   UNL     1       5.141   4.669  17.923  0.00  0.00    +0.000 A 
ATOM     25  C   UNL     1       3.976   5.273  18.394  0.00  0.00    +0.000 A 
ATOM     26  C   UNL     1       3.669   6.607  18.087  0.00  0.00    +0.000 A 
ATOM     27  C   UNL     1       4.536   7.317  17.257  0.00  0.00    +0.000 A 
ATOM     28  C   UNL     1       5.716   6.720  16.789  0.00  0.00    +0.000 A 
BRANCH  23  29
ATOM     29  C   UNL     1       7.248   4.702  16.646  0.00  0.00    +0.000 C 
ATOM     30  O   UNL     1       8.053   4.150  17.377  0.00  0.00    +0.000 OA
BRANCH  29  32
ATOM     31  C   UNL     1       6.396   3.939  14.608  0.00  0.00    +0.000 C 
ATOM     32  O   UNL     1       7.324   4.778  15.295  0.00  0.00    +0.000 OA
ENDBRANCH  29  32
ENDBRANCH  23  29
ENDBRANCH  19  26
ENDBRANCH  18  20
ENDBRANCH   1  18
TORSDOF 6
ENDMDL
MODEL 7
REMARK VINA RESULT:      -7.4      2.866      4.483
REMARK  Name = 
REMARK  11 active torsions:
REMARK  status: ('A' for Active; 'I' for Inactive)
REMARK    1  A    between atoms: C_1  and  O_2
REMARK    2  A    between atoms: O_2  and  C_3
REMARK    3  A    between atoms: C_3  and  C_5
REMARK    4  A    between atoms: C_8  and  N_9
REMARK    5  A    between atoms: C_10  and  C_12
REMARK    6  A    between atoms: C_12  and  C_13
REMARK    7  A    between atoms: C_13  and  C_14
REMARK    8  A    between atoms: C_15  and  C_16
REMARK    9  A    between atoms: C_20  and  C_21
REMARK   10  A    between atoms: N_24  and  C_25
REMARK   11  A    between atoms: N_28  and  C_29
REMARK                            x       y       z     vdW  Elec       q    Type
REMARK                         _______ _______ _______ _____ _____    ______ ____
ROOT
ATOM      1  C   UNL     1      -0.014  11.354  21.235  0.00  0.00    +0.000 C 
ENDROOT
BRANCH   1   2
ATOM      2  C   UNL     1      -1.269  11.621  20.435  0.00  0.00    +0.000 A 
ATOM      3  C   UNL     1      -1.386  11.143  19.126  0.00  0.00    +0.000 A 
ATOM      4  C   UNL     1      -0.284  10.418  18.402  0.00  0.00    +0.000 C 
ATOM      5  N   UNL     1      -2.526  11.276  18.413  0.00  0.00    +0.000 NA
ATOM      6  C   UNL     1      -3.588  11.919  18.959  0.00  0.00    +0.000 A 
ATOM      7  C   UNL     1      -3.553  12.470  20.235  0.00  0.00    +0.000 A 
ATOM      8  C   UNL     1      -2.366  12.332  21.002  0.00  0.00    +0.000 A 
ATOM      9  C   UNL     1      -2.192  12.898  22.394  0.00  0.00    +0.000 C 
ATOM     10  C   UNL     1      -4.779  13.165  20.698  0.00  0.00    +0.000 A 
ATOM     11  O   UNL     1      -4.852  13.636  21.828  0.00  0.00    +0.000 OA
ATOM     12  N   UNL     1      -5.842  13.260  19.812  0.00  0.00    +0.000 N 
ATOM     13  C   UNL     1      -7.037  13.967  20.243  0.00  0.00    +0.000 C 
ATOM     14  C   UNL     1      -5.878  12.682  18.558  0.00  0.00    +0.000 A 
ATOM     15  O   UNL     1      -6.881  12.765  17.844  0.00  0.00    +0.000 OA
ATOM     16  N   UNL     1      -4.746  12.015  18.156  0.00  0.00    +0.000 N 
ATOM     17  C   UNL     1      -4.714  11.374  16.847  0.00  0.00    +0.000 C 
ENDBRANCH   1   2
BRANCH   1  18
ATOM     18  C   UNL     1      -0.128  10.226  22.270  0.00  0.00    +0.000 C 
BRANCH  18  20
ATOM     19  N   UNL     1       1.363   8.778  20.982  0.00  0.00    +0.000 N 
ATOM     20  C   UNL     1       0.109   8.913  21.551  0.00  0.00    +0.000 C 
ATOM     21  O   UNL     1      -0.769   8.050  21.535  0.00  0.00    +0.000 OA
ATOM     22  H   UNL     1       2.074   9.459  21.217  0.00  0.00    +0.000 HD
BRANCH  19  26
ATOM     23  C   UNL     1       2.676   5.384  18.817  0.00  0.00    +0.000 A 
ATOM     24  C   UNL     1       2.170   5.232  20.105  0.00  0.00    +0.000 A 
ATOM     25  C   UNL     1       1.721   6.346  20.812  0.00  0.00    +0.000 A 
ATOM     26  C   UNL     1       1.773   7.634  20.255  0.00  0.00    +0.000 A 
ATOM     27  C   UNL     1       2.247   7.778  18.952  0.00  0.00    +0.000 A 
ATOM     28  C   UNL     1       2.713   6.663  18.240  0.00  0.00    +0.000 A 
BRANCH  23  29
ATOM     29  C   UNL     1       3.141   4.165  18.108  0.00  0.00    +0.000 C 
ATOM     30  O   UNL     1       3.670   4.169  17.010  0.00  0.00    +0.000 OA
BRANCH  29  32
ATOM     31  C   UNL     1       1.966   2.152  18.282  0.00  0.00    +0.000 C 
ATOM     32  O   UNL     1       2.892   3.069  18.865  0.00  0.00    +0.000 OA
ENDBRANCH  29  32
ENDBRANCH  23  29
ENDBRANCH  19  26
ENDBRANCH  18  20
ENDBRANCH   1  18
TORSDOF 6
ENDMDL
MODEL 8
REMARK VINA RESULT:      -7.3      3.199      5.030
REMARK  Name = 
REMARK  11 active torsions:
REMARK  status: ('A' for Active; 'I' for Inactive)
REMARK    1  A    between atoms: C_1  and  O_2
REMARK    2  A    between atoms: O_2  and  C_3
REMARK    3  A    between atoms: C_3  and  C_5
REMARK    4  A    between atoms: C_8  and  N_9
REMARK    5  A    between atoms: C_10  and  C_12
REMARK    6  A    between atoms: C_12  and  C_13
REMARK    7  A    between atoms: C_13  and  C_14
REMARK    8  A    between atoms: C_15  and  C_16
REMARK    9  A    between atoms: C_20  and  C_21
REMARK   10  A    between atoms: N_24  and  C_25
REMARK   11  A    between atoms: N_28  and  C_29
REMARK                            x       y       z     vdW  Elec       q    Type
REMARK                         _______ _______ _______ _____ _____    ______ ____
ROOT
ATOM      1  C   UNL     1       0.186  11.291  21.051  0.00  0.00    +0.000 C 
ENDROOT
BRANCH   1   2
ATOM      2  C   UNL     1      -1.222  11.806  20.857  0.00  0.00    +0.000 A 
ATOM      3  C   UNL     1      -1.804  12.645  21.812  0.00  0.00    +0.000 A 
ATOM      4  C   UNL     1      -1.134  13.027  23.104  0.00  0.00    +0.000 C 
ATOM      5  N   UNL     1      -3.021  13.205  21.630  0.00  0.00    +0.000 NA
ATOM      6  C   UNL     1      -3.725  12.928  20.505  0.00  0.00    +0.000 A 
ATOM      7  C   UNL     1      -3.251  12.070  19.519  0.00  0.00    +0.000 A 
ATOM      8  C   UNL     1      -1.971  11.480  19.689  0.00  0.00    +0.000 A 
ATOM      9  C   UNL     1      -1.347  10.518  18.702  0.00  0.00    +0.000 C 
ATOM     10  C   UNL     1      -4.135  11.840  18.349  0.00  0.00    +0.000 A 
ATOM     11  O   UNL     1      -3.775  11.137  17.411  0.00  0.00    +0.000 OA
ATOM     12  N   UNL     1      -5.381  12.450  18.352  0.00  0.00    +0.000 N 
ATOM     13  C   UNL     1      -6.269  12.206  17.227  0.00  0.00    +0.000 C 
ATOM     14  C   UNL     1      -5.830  13.326  19.321  0.00  0.00    +0.000 A 
ATOM     15  O   UNL     1      -6.931  13.873  19.230  0.00  0.00    +0.000 OA
ATOM     16  N   UNL     1      -4.985  13.553  20.382  0.00  0.00    +0.000 N 
ATOM     17  C   UNL     1      -5.389  14.471  21.440  0.00  0.00    +0.000 C 
ENDBRANCH   1   2
BRANCH   1  18
ATOM     18  C   UNL     1       0.343  10.211  22.130  0.00  0.00    +0.000 C 
BRANCH  18  20
ATOM     19  N   UNL     1       1.641   8.523  20.927  0.00  0.00    +0.000 N 
ATOM     20  C   UNL     1       0.399   8.865  21.433  0.00  0.00    +0.000 C 
ATOM     21  O   UNL     1      -0.605   8.154  21.380  0.00  0.00    +0.000 OA
ATOM     22  H   UNL     1       2.440   9.084  21.192  0.00  0.00    +0.000 HD
BRANCH  19  26
ATOM     23  C   UNL     1       2.311   4.900  18.841  0.00  0.00    +0.000 A 
ATOM     24  C   UNL     1       2.576   6.117  18.219  0.00  0.00    +0.000 A 
ATOM     25  C   UNL     1       2.373   7.310  18.912  0.00  0.00    +0.000 A 
ATOM     26  C   UNL     1       1.895   7.316  20.231  0.00  0.00    +0.000 A 
ATOM     27  C   UNL     1       1.665   6.094  20.862  0.00  0.00    +0.000 A 
ATOM     28  C   UNL     1       1.856   4.891  20.168  0.00  0.00    +0.000 A 
BRANCH  23  29
ATOM     29  C   UNL     1       2.545   3.659  18.059  0.00  0.00    +0.000 C 
ATOM     30  O   UNL     1       1.944   3.367  17.040  0.00  0.00    +0.000 OA
BRANCH  29  32
ATOM     31  C   UNL     1       3.538   1.551  18.245  0.00  0.00    +0.000 C 
ATOM     32  O   UNL     1       3.518   2.921  18.646  0.00  0.00    +0.000 OA
ENDBRANCH  29  32
ENDBRANCH  23  29
ENDBRANCH  19  26
ENDBRANCH  18  20
ENDBRANCH   1  18
TORSDOF 6
ENDMDL
MODEL 9
REMARK VINA RESULT:      -7.2      2.498      4.669
REMARK  Name = 
REMARK  11 active torsions:
REMARK  status: ('A' for Active; 'I' for Inactive)
REMARK    1  A    between atoms: C_1  and  O_2
REMARK    2  A    between atoms: O_2  and  C_3
REMARK    3  A    between atoms: C_3  and  C_5
REMARK    4  A    between atoms: C_8  and  N_9
REMARK    5  A    between atoms: C_10  and  C_12
REMARK    6  A    between atoms: C_12  and  C_13
REMARK    7  A    between atoms: C_13  and  C_14
REMARK    8  A    between atoms: C_15  and  C_16
REMARK    9  A    between atoms: C_20  and  C_21
REMARK   10  A    between atoms: N_24  and  C_25
REMARK   11  A    between atoms: N_28  and  C_29
REMARK                            x       y       z     vdW  Elec       q    Type
REMARK                         _______ _______ _______ _____ _____    ______ ____
ROOT
ATOM      1  C   UNL     1      -0.496  11.782  21.531  0.00  0.00    +0.000 C 
ENDROOT
BRANCH   1   2
ATOM      2  C   UNL     1      -1.813  12.028  20.832  0.00  0.00    +0.000 A 
ATOM      3  C   UNL     1      -1.949  11.755  19.467  0.00  0.00    +0.000 A 
ATOM      4  C   UNL     1      -0.815  11.286  18.594  0.00  0.00    +0.000 C 
ATOM      5  N   UNL     1      -3.133  11.868  18.826  0.00  0.00    +0.000 NA
ATOM      6  C   UNL     1      -4.227  12.290  19.508  0.00  0.00    +0.000 A 
ATOM      7  C   UNL     1      -4.183  12.629  20.855  0.00  0.00    +0.000 A 
ATOM      8  C   UNL     1      -2.949  12.508  21.547  0.00  0.00    +0.000 A 
ATOM      9  C   UNL     1      -2.761  12.860  23.006  0.00  0.00    +0.000 C 
ATOM     10  C   UNL     1      -5.450  13.096  21.471  0.00  0.00    +0.000 A 
ATOM     11  O   UNL     1      -5.512  13.369  22.665  0.00  0.00    +0.000 OA
ATOM     12  N   UNL     1      -6.562  13.209  20.650  0.00  0.00    +0.000 N 
ATOM     13  C   UNL     1      -7.802  13.696  21.235  0.00  0.00    +0.000 C 
ATOM     14  C   UNL     1      -6.604  12.838  19.320  0.00  0.00    +0.000 A 
ATOM     15  O   UNL     1      -7.647  12.918  18.666  0.00  0.00    +0.000 OA
ATOM     16  N   UNL     1      -5.430  12.378  18.774  0.00  0.00    +0.000 N 
ATOM     17  C   UNL     1      -5.400  11.963  17.377  0.00  0.00    +0.000 C 
ENDBRANCH   1   2
BRANCH   1  18
ATOM     18  C   UNL     1      -0.487  10.600  22.511  0.00  0.00    +0.000 C 
BRANCH  18  20
ATOM     19  N   UNL     1       1.024   9.475  20.952  0.00  0.00    +0.000 N 
ATOM     20  C   UNL     1      -0.115   9.355  21.729  0.00  0.00    +0.000 C 
ATOM     21  O   UNL     1      -0.788   8.331  21.841  0.00  0.00    +0.000 OA
ATOM     22  H   UNL     1       1.611  10.289  21.080  0.00  0.00    +0.000 HD
BRANCH  19  26
ATOM     23  C   UNL     1       2.613   6.395  18.519  0.00  0.00    +0.000 A 
ATOM     24  C   UNL     1       2.292   6.133  19.848  0.00  0.00    +0.000 A 
ATOM     25  C   UNL     1       1.751   7.141  20.644  0.00  0.00    +0.000 A 
ATOM     26  C   UNL     1       1.529   8.431  20.139  0.00  0.00    +0.000 A 
ATOM     27  C   UNL     1       1.818   8.680  18.798  0.00  0.00    +0.000 A 
ATOM     28  C   UNL     1       2.374   7.675  17.994  0.00  0.00    +0.000 A 
BRANCH  23  29
ATOM     29  C   UNL     1       3.185   5.286  17.713  0.00  0.00    +0.000 C 
ATOM     30  O   UNL     1       2.620   4.227  17.506  0.00  0.00    +0.000 OA
BRANCH  29  32
ATOM     31  C   UNL     1       4.949   4.739  16.281  0.00  0.00    +0.000 C 
ATOM     32  O   UNL     1       4.411   5.636  17.252  0.00  0.00    +0.000 OA
ENDBRANCH  29  32
ENDBRANCH  23  29
ENDBRANCH  19  26
ENDBRANCH  18  20
ENDBRANCH   1  18
TORSDOF 6
ENDMDL
