MODEL 1
REMARK VINA RESULT:      -7.8      0.000      0.000
REMARK  Name = 
REMARK  9 active torsions:
REMARK  status: ('A' for Active; 'I' for Inactive)
REMARK    1  A    between atoms: C_1  and  O_2
REMARK    2  A    between atoms: O_2  and  C_3
REMARK    3  A    between atoms: C_6  and  C_7
REMARK    4  A    between atoms: C_7  and  N_8
REMARK    5  A    between atoms: N_12  and  C_13
REMARK    6  A    between atoms: C_13  and  C_14
REMARK    7  A    between atoms: C_17  and  O_18
REMARK    8  A    between atoms: O_18  and  C_19
REMARK    9  A    between atoms: C_23  and  C_25
REMARK                            x       y       z     vdW  Elec       q    Type
REMARK                         _______ _______ _______ _____ _____    ______ ____
ROOT
ATOM      1  N   UNL     1       1.179   8.891  17.762  0.00  0.00    +0.000 N 
ATOM      2  C   UNL     1       0.477   9.984  18.097  0.00  0.00    +0.000 A 
ATOM      3  N   UNL     1      -0.787  10.165  17.613  0.00  0.00    +0.000 NA
ATOM      4  C   UNL     1      -1.139  11.351  18.073  0.00  0.00    +0.000 A 
ATOM      5  N   UNL     1      -2.287  12.046  17.866  0.00  0.00    +0.000 N 
ATOM      6  N   UNL     1      -0.056  11.887  18.760  0.00  0.00    +0.000 N 
ATOM      7  C   UNL     1       0.156  13.172  19.282  0.00  0.00    +0.000 C 
ATOM      8  O   UNL     1      -0.822  13.894  19.473  0.00  0.00    +0.000 OA
ATOM      9  N   UNL     1       0.924  10.960  18.870  0.00  0.00    +0.000 NA
ATOM     10  H   UNL     1       0.738   8.262  17.106  0.00  0.00    +0.000 HD
ATOM     11  H   UNL     1      -2.430  12.928  18.366  0.00  0.00    +0.000 HD
ENDROOT
BRANCH   7  12
ATOM     12  C   UNL     1       1.523  13.694  19.566  0.00  0.00    +0.000 A 
ATOM     13  C   UNL     1       2.290  14.248  18.536  0.00  0.00    +0.000 A 
ATOM     14  C   UNL     1       3.544  14.736  18.845  0.00  0.00    +0.000 A 
ATOM     15  N   UNL     1       4.059  14.722  20.089  0.00  0.00    +0.000 NA
ATOM     16  C   UNL     1       3.288  14.204  21.072  0.00  0.00    +0.000 A 
ATOM     17  C   UNL     1       2.020  13.686  20.866  0.00  0.00    +0.000 A 
ENDBRANCH   7  12
BRANCH   1  18
ATOM     18  C   UNL     1       1.969   8.227  18.786  0.00  0.00    +0.000 C 
BRANCH  18  22
ATOM     19  C   UNL     1       4.190   4.908  17.092  0.00  0.00    +0.000 A 
ATOM     20  C   UNL     1       3.060   4.681  17.878  0.00  0.00    +0.000 A 
ATOM     21  C   UNL     1       2.357   5.750  18.445  0.00  0.00    +0.000 A 
ATOM     22  C   UNL     1       2.779   7.072  18.240  0.00  0.00    +0.000 A 
ATOM     23  C   UNL     1       3.934   7.290  17.474  0.00  0.00    +0.000 A 
ATOM     24  C   UNL     1       4.633   6.216  16.900  0.00  0.00    +0.000 A 
BRANCH  19  26
ATOM     25  C   UNL     1       5.859   3.975  15.684  0.00  0.00    +0.000 C 
ATOM     26  O   UNL     1       4.792   3.780  16.605  0.00  0.00    +0.000 OA
ENDBRANCH  19  26
ENDBRANCH  18  22
ENDBRANCH   1  18
BRANCH   5  27
ATOM     27  C   UNL     1      -3.508  11.390  17.441  0.00  0.00    +0.000 C 
BRANCH  27  28
ATOM     28  C   UNL     1      -4.599  11.556  18.478  0.00  0.00    +0.000 A 
ATOM     29  C   UNL     1      -5.850  10.943  18.322  0.00  0.00    +0.000 A 
ATOM     30  C   UNL     1      -6.840  11.089  19.302  0.00  0.00    +0.000 A 
ATOM     31  C   UNL     1      -6.594  11.833  20.457  0.00  0.00    +0.000 A 
ATOM     32  C   UNL     1      -5.365  12.471  20.606  0.00  0.00    +0.000 A 
ATOM     33  C   UNL     1      -4.372  12.336  19.621  0.00  0.00    +0.000 A 
BRANCH  31  34
ATOM     34  O   UNL     1      -7.634  11.898  21.344  0.00  0.00    +0.000 OA
ATOM     35  C   UNL     1      -7.335  12.487  22.606  0.00  0.00    +0.000 C 
ENDBRANCH  31  34
ENDBRANCH  27  28
ENDBRANCH   5  27
TORSDOF 7
ENDMDL
MODEL 2
REMARK VINA RESULT:      -7.8      2.216      9.207
REMARK  Name = 
REMARK  9 active torsions:
REMARK  status: ('A' for Active; 'I' for Inactive)
REMARK    1  A    between atoms: C_1  and  O_2
REMARK    2  A    between atoms: O_2  and  C_3
REMARK    3  A    between atoms: C_6  and  C_7
REMARK    4  A    between atoms: C_7  and  N_8
REMARK    5  A    between atoms: N_12  and  C_13
REMARK    6  A    between atoms: C_13  and  C_14
REMARK    7  A    between atoms: C_17  and  O_18
REMARK    8  A    between atoms: O_18  and  C_19
REMARK    9  A    between atoms: C_23  and  C_25
REMARK                            x       y       z     vdW  Elec       q    Type
REMARK                         _______ _______ _______ _____ _____    ______ ____
ROOT
ATOM      1  N   UNL     1      -3.030  10.176  17.641  0.00  0.00    +0.000 N 
ATOM      2  C   UNL     1      -1.863  10.445  18.244  0.00  0.00    +0.000 A 
ATOM      3  N   UNL     1      -0.735   9.758  17.898  0.00  0.00    +0.000 NA
ATOM      4  C   UNL     1       0.187  10.218  18.724  0.00  0.00    +0.000 A 
ATOM      5  N   UNL     1       1.489   9.853  18.847  0.00  0.00    +0.000 N 
ATOM      6  N   UNL     1      -0.422  11.115  19.594  0.00  0.00    +0.000 N 
ATOM      7  C   UNL     1       0.059  11.741  20.753  0.00  0.00    +0.000 C 
ATOM      8  O   UNL     1       1.277  11.799  20.923  0.00  0.00    +0.000 OA
ATOM      9  N   UNL     1      -1.698  11.341  19.203  0.00  0.00    +0.000 NA
ATOM     10  H   UNL     1      -3.022   9.416  16.975  0.00  0.00    +0.000 HD
ATOM     11  H   UNL     1       2.091  10.371  19.494  0.00  0.00    +0.000 HD
ENDROOT
BRANCH   7  12
ATOM     12  C   UNL     1      -0.855  12.292  21.793  0.00  0.00    +0.000 A 
ATOM     13  C   UNL     1      -1.125  13.663  21.836  0.00  0.00    +0.000 A 
ATOM     14  C   UNL     1      -1.991  14.130  22.804  0.00  0.00    +0.000 A 
ATOM     15  N   UNL     1      -2.602  13.329  23.700  0.00  0.00    +0.000 NA
ATOM     16  C   UNL     1      -2.344  12.004  23.622  0.00  0.00    +0.000 A 
ATOM     17  C   UNL     1      -1.489  11.438  22.691  0.00  0.00    +0.000 A 
ENDBRANCH   7  12
BRANCH   1  18
ATOM     18  C   UNL     1      -3.900  11.282  17.275  0.00  0.00    +0.000 C 
BRANCH  18  22
ATOM     19  C   UNL     1      -6.857  11.982  20.370  0.00  0.00    +0.000 A 
ATOM     20  C   UNL     1      -7.092  11.049  19.359  0.00  0.00    +0.000 A 
ATOM     21  C   UNL     1      -6.148  10.840  18.346  0.00  0.00    +0.000 A 
ATOM     22  C   UNL     1      -4.951  11.570  18.324  0.00  0.00    +0.000 A 
ATOM     23  C   UNL     1      -4.736  12.527  19.326  0.00  0.00    +0.000 A 
ATOM     24  C   UNL     1      -5.681  12.730  20.345  0.00  0.00    +0.000 A 
BRANCH  19  26
ATOM     25  C   UNL     1      -7.917  13.319  22.020  0.00  0.00    +0.000 C 
ATOM     26  O   UNL     1      -7.860  12.098  21.293  0.00  0.00    +0.000 OA
ENDBRANCH  19  26
ENDBRANCH  18  22
ENDBRANCH   1  18
BRANCH   5  27
ATOM     27  C   UNL     1       2.196   9.183  17.774  0.00  0.00    +0.000 C 
BRANCH  27  28
ATOM     28  C   UNL     1       2.726   7.840  18.232  0.00  0.00    +0.000 A 
ATOM     29  C   UNL     1       3.723   7.167  17.513  0.00  0.00    +0.000 A 
ATOM     30  C   UNL     1       4.217   5.936  17.963  0.00  0.00    +0.000 A 
ATOM     31  C   UNL     1       3.738   5.366  19.144  0.00  0.00    +0.000 A 
ATOM     32  C   UNL     1       2.724   6.012  19.848  0.00  0.00    +0.000 A 
ATOM     33  C   UNL     1       2.219   7.243  19.394  0.00  0.00    +0.000 A 
BRANCH  31  34
ATOM     34  O   UNL     1       4.300   4.166  19.485  0.00  0.00    +0.000 OA
ATOM     35  C   UNL     1       4.154   3.120  18.530  0.00  0.00    +0.000 C 
ENDBRANCH  31  34
ENDBRANCH  27  28
ENDBRANCH   5  27
TORSDOF 7
ENDMDL
MODEL 3
REMARK VINA RESULT:      -7.7      0.739      1.485
REMARK  Name = 
REMARK  9 active torsions:
REMARK  status: ('A' for Active; 'I' for Inactive)
REMARK    1  A    between atoms: C_1  and  O_2
REMARK    2  A    between atoms: O_2  and  C_3
REMARK    3  A    between atoms: C_6  and  C_7
REMARK    4  A    between atoms: C_7  and  N_8
REMARK    5  A    between atoms: N_12  and  C_13
REMARK    6  A    between atoms: C_13  and  C_14
REMARK    7  A    between atoms: C_17  and  O_18
REMARK    8  A    between atoms: O_18  and  C_19
REMARK    9  A    between atoms: C_23  and  C_25
REMARK                            x       y       z     vdW  Elec       q    Type
REMARK                         _______ _______ _______ _____ _____    ______ ____
ROOT
ATOM      1  N   UNL     1       1.216   8.899  18.104  0.00  0.00    +0.000 N 
ATOM      2  C   UNL     1       0.510  10.021  18.304  0.00  0.00    +0.000 A 
ATOM      3  N   UNL     1      -0.732  10.160  17.754  0.00  0.00    +0.000 NA
ATOM      4  C   UNL     1      -1.094  11.386  18.085  0.00  0.00    +0.000 A 
ATOM      5  N   UNL     1      -2.227  12.063  17.766  0.00  0.00    +0.000 N 
ATOM      6  N   UNL     1      -0.034  11.981  18.760  0.00  0.00    +0.000 N 
ATOM      7  C   UNL     1       0.167  13.309  19.166  0.00  0.00    +0.000 C 
ATOM      8  O   UNL     1      -0.813  14.050  19.247  0.00  0.00    +0.000 OA
ATOM      9  N   UNL     1       0.933  11.065  18.997  0.00  0.00    +0.000 NA
ATOM     10  H   UNL     1       0.796   8.211  17.494  0.00  0.00    +0.000 HD
ATOM     11  H   UNL     1      -2.383  12.989  18.173  0.00  0.00    +0.000 HD
ENDROOT
BRANCH   7  12
ATOM     12  C   UNL     1       1.525  13.851  19.453  0.00  0.00    +0.000 A 
ATOM     13  C   UNL     1       1.968  13.971  20.774  0.00  0.00    +0.000 A 
ATOM     14  C   UNL     1       3.239  14.462  20.996  0.00  0.00    +0.000 A 
ATOM     15  N   UNL     1       4.080  14.817  20.004  0.00  0.00    +0.000 NA
ATOM     16  C   UNL     1       3.637  14.669  18.735  0.00  0.00    +0.000 A 
ATOM     17  C   UNL     1       2.380  14.190  18.408  0.00  0.00    +0.000 A 
ENDBRANCH   7  12
BRANCH   1  18
ATOM     18  C   UNL     1       1.960   8.332  19.218  0.00  0.00    +0.000 C 
BRANCH  18  22
ATOM     19  C   UNL     1       3.595   4.450  18.183  0.00  0.00    +0.000 A 
ATOM     20  C   UNL     1       2.780   4.603  19.306  0.00  0.00    +0.000 A 
ATOM     21  C   UNL     1       2.272   5.860  19.654  0.00  0.00    +0.000 A 
ATOM     22  C   UNL     1       2.578   6.992  18.884  0.00  0.00    +0.000 A 
ATOM     23  C   UNL     1       3.423   6.835  17.776  0.00  0.00    +0.000 A 
ATOM     24  C   UNL     1       3.925   5.572  17.425  0.00  0.00    +0.000 A 
BRANCH  19  26
ATOM     25  C   UNL     1       3.037   2.164  17.874  0.00  0.00    +0.000 C 
ATOM     26  O   UNL     1       4.034   3.174  17.958  0.00  0.00    +0.000 OA
ENDBRANCH  19  26
ENDBRANCH  18  22
ENDBRANCH   1  18
BRANCH   5  27
ATOM     27  C   UNL     1      -3.435  11.374  17.358  0.00  0.00    +0.000 C 
BRANCH  27  28
ATOM     28  C   UNL     1      -4.533  11.554  18.384  0.00  0.00    +0.000 A 
ATOM     29  C   UNL     1      -4.335  12.328  19.535  0.00  0.00    +0.000 A 
ATOM     30  C   UNL     1      -5.371  12.501  20.463  0.00  0.00    +0.000 A 
ATOM     31  C   UNL     1      -6.622  11.921  20.249  0.00  0.00    +0.000 A 
ATOM     32  C   UNL     1      -6.818  11.124  19.124  0.00  0.00    +0.000 A 
ATOM     33  C   UNL     1      -5.780  10.939  18.195  0.00  0.00    +0.000 A 
BRANCH  31  34
ATOM     34  O   UNL     1      -7.554  12.165  21.220  0.00  0.00    +0.000 OA
ATOM     35  C   UNL     1      -7.039  12.552  22.490  0.00  0.00    +0.000 C 
ENDBRANCH  31  34
ENDBRANCH  27  28
ENDBRANCH   5  27
TORSDOF 7
ENDMDL
MODEL 4
REMARK VINA RESULT:      -7.6      0.673      1.449
REMARK  Name = 
REMARK  9 active torsions:
REMARK  status: ('A' for Active; 'I' for Inactive)
REMARK    1  A    between atoms: C_1  and  O_2
REMARK    2  A    between atoms: O_2  and  C_3
REMARK    3  A    between atoms: C_6  and  C_7
REMARK    4  A    between atoms: C_7  and  N_8
REMARK    5  A    between atoms: N_12  and  C_13
REMARK    6  A    between atoms: C_13  and  C_14
REMARK    7  A    between atoms: C_17  and  O_18
REMARK    8  A    between atoms: O_18  and  C_19
REMARK    9  A    between atoms: C_23  and  C_25
REMARK                            x       y       z     vdW  Elec       q    Type
REMARK                         _______ _______ _______ _____ _____    ______ ____
ROOT
ATOM      1  N   UNL     1       1.307   8.852  17.938  0.00  0.00    +0.000 N 
ATOM      2  C   UNL     1       0.606   9.964  18.202  0.00  0.00    +0.000 A 
ATOM      3  N   UNL     1      -0.642  10.132  17.675  0.00  0.00    +0.000 NA
ATOM      4  C   UNL     1      -0.998  11.341  18.071  0.00  0.00    +0.000 A 
ATOM      5  N   UNL     1      -2.133  12.035  17.799  0.00  0.00    +0.000 N 
ATOM      6  N   UNL     1       0.071  11.900  18.763  0.00  0.00    +0.000 N 
ATOM      7  C   UNL     1       0.280  13.205  19.232  0.00  0.00    +0.000 C 
ATOM      8  O   UNL     1      -0.697  13.942  19.362  0.00  0.00    +0.000 OA
ATOM      9  N   UNL     1       1.039  10.971  18.943  0.00  0.00    +0.000 NA
ATOM     10  H   UNL     1       0.879   8.197  17.299  0.00  0.00    +0.000 HD
ATOM     11  H   UNL     1      -2.282  12.939  18.254  0.00  0.00    +0.000 HD
ENDROOT
BRANCH   7  12
ATOM     12  C   UNL     1       1.642  13.730  19.531  0.00  0.00    +0.000 A 
ATOM     13  C   UNL     1       2.448  14.219  18.498  0.00  0.00    +0.000 A 
ATOM     14  C   UNL     1       3.697  14.712  18.819  0.00  0.00    +0.000 A 
ATOM     15  N   UNL     1       4.172  14.760  20.079  0.00  0.00    +0.000 NA
ATOM     16  C   UNL     1       3.365  14.304  21.063  0.00  0.00    +0.000 A 
ATOM     17  C   UNL     1       2.099  13.787  20.844  0.00  0.00    +0.000 A 
ENDBRANCH   7  12
BRANCH   1  18
ATOM     18  C   UNL     1       2.062   8.229  19.013  0.00  0.00    +0.000 C 
BRANCH  18  22
ATOM     19  C   UNL     1       3.612   4.288  18.073  0.00  0.00    +0.000 A 
ATOM     20  C   UNL     1       4.050   5.411  17.370  0.00  0.00    +0.000 A 
ATOM     21  C   UNL     1       3.532   6.680  17.657  0.00  0.00    +0.000 A 
ATOM     22  C   UNL     1       2.558   6.846  18.652  0.00  0.00    +0.000 A 
ATOM     23  C   UNL     1       2.101   5.708  19.333  0.00  0.00    +0.000 A 
ATOM     24  C   UNL     1       2.627   4.438  19.048  0.00  0.00    +0.000 A 
BRANCH  19  26
ATOM     25  C   UNL     1       3.492   1.917  18.045  0.00  0.00    +0.000 C 
ATOM     26  O   UNL     1       4.188   3.107  17.692  0.00  0.00    +0.000 OA
ENDBRANCH  19  26
ENDBRANCH  18  22
ENDBRANCH   1  18
BRANCH   5  27
ATOM     27  C   UNL     1      -3.346  11.369  17.370  0.00  0.00    +0.000 C 
BRANCH  27  28
ATOM     28  C   UNL     1      -4.452  11.551  18.389  0.00  0.00    +0.000 A 
ATOM     29  C   UNL     1      -4.258  12.319  19.546  0.00  0.00    +0.000 A 
ATOM     30  C   UNL     1      -5.299  12.494  20.466  0.00  0.00    +0.000 A 
ATOM     31  C   UNL     1      -6.552  11.922  20.241  0.00  0.00    +0.000 A 
ATOM     32  C   UNL     1      -6.745  11.132  19.110  0.00  0.00    +0.000 A 
ATOM     33  C   UNL     1      -5.700  10.945  18.188  0.00  0.00    +0.000 A 
BRANCH  31  34
ATOM     34  O   UNL     1      -7.490  12.168  21.205  0.00  0.00    +0.000 OA
ATOM     35  C   UNL     1      -6.986  12.613  22.460  0.00  0.00    +0.000 C 
ENDBRANCH  31  34
ENDBRANCH  27  28
ENDBRANCH   5  27
TORSDOF 7
ENDMDL
MODEL 5
REMARK VINA RESULT:      -7.5      3.223      9.350
REMARK  Name = 
REMARK  9 active torsions:
REMARK  status: ('A' for Active; 'I' for Inactive)
REMARK    1  A    between atoms: C_1  and  O_2
REMARK    2  A    between atoms: O_2  and  C_3
REMARK    3  A    between atoms: C_6  and  C_7
REMARK    4  A    between atoms: C_7  and  N_8
REMARK    5  A    between atoms: N_12  and  C_13
REMARK    6  A    between atoms: C_13  and  C_14
REMARK    7  A    between atoms: C_17  and  O_18
REMARK    8  A    between atoms: O_18  and  C_19
REMARK    9  A    between atoms: C_23  and  C_25
REMARK                            x       y       z     vdW  Elec       q    Type
REMARK                         _______ _______ _______ _____ _____    ______ ____
ROOT
ATOM      1  N   UNL     1       2.414  13.012  17.632  0.00  0.00    +0.000 N 
ATOM      2  C   UNL     1       2.072  11.882  18.268  0.00  0.00    +0.000 A 
ATOM      3  N   UNL     1       2.372  10.667  17.721  0.00  0.00    +0.000 NA
ATOM      4  C   UNL     1       1.835   9.798  18.557  0.00  0.00    +0.000 A 
ATOM      5  N   UNL     1       1.799   8.443  18.481  0.00  0.00    +0.000 N 
ATOM      6  N   UNL     1       1.162  10.509  19.545  0.00  0.00    +0.000 N 
ATOM      7  C   UNL     1       0.291  10.076  20.555  0.00  0.00    +0.000 C 
ATOM      8  O   UNL     1       0.312   8.887  20.875  0.00  0.00    +0.000 OA
ATOM      9  N   UNL     1       1.420  11.831  19.417  0.00  0.00    +0.000 NA
ATOM     10  H   UNL     1       2.847  12.900  16.726  0.00  0.00    +0.000 HD
ATOM     11  H   UNL     1       1.403   7.913  19.262  0.00  0.00    +0.000 HD
ENDROOT
BRANCH   7  12
ATOM     12  C   UNL     1      -0.679  10.997  21.212  0.00  0.00    +0.000 A 
ATOM     13  C   UNL     1      -1.571  11.746  20.437  0.00  0.00    +0.000 A 
ATOM     14  C   UNL     1      -2.464  12.575  21.085  0.00  0.00    +0.000 A 
ATOM     15  N   UNL     1      -2.532  12.688  22.426  0.00  0.00    +0.000 NA
ATOM     16  C   UNL     1      -1.676  11.935  23.154  0.00  0.00    +0.000 A 
ATOM     17  C   UNL     1      -0.741  11.077  22.600  0.00  0.00    +0.000 A 
ENDBRANCH   7  12
BRANCH   1  18
ATOM     18  C   UNL     1       2.940  14.121  18.411  0.00  0.00    +0.000 C 
BRANCH  18  22
ATOM     19  C   UNL     1       0.216  17.496  18.341  0.00  0.00    +0.000 A 
ATOM     20  C   UNL     1       1.520  17.625  17.862  0.00  0.00    +0.000 A 
ATOM     21  C   UNL     1       2.407  16.543  17.906  0.00  0.00    +0.000 A 
ATOM     22  C   UNL     1       2.004  15.310  18.441  0.00  0.00    +0.000 A 
ATOM     23  C   UNL     1       0.702  15.198  18.948  0.00  0.00    +0.000 A 
ATOM     24  C   UNL     1      -0.188  16.283  18.896  0.00  0.00    +0.000 A 
BRANCH  19  26
ATOM     25  C   UNL     1      -1.958  18.447  18.262  0.00  0.00    +0.000 C 
ATOM     26  O   UNL     1      -0.547  18.629  18.250  0.00  0.00    +0.000 OA
ENDBRANCH  19  26
ENDBRANCH  18  22
ENDBRANCH   1  18
BRANCH   5  27
ATOM     27  C   UNL     1       2.739   7.702  17.665  0.00  0.00    +0.000 C 
BRANCH  27  28
ATOM     28  C   UNL     1       2.850   6.267  18.136  0.00  0.00    +0.000 A 
ATOM     29  C   UNL     1       3.984   5.811  18.821  0.00  0.00    +0.000 A 
ATOM     30  C   UNL     1       4.060   4.485  19.269  0.00  0.00    +0.000 A 
ATOM     31  C   UNL     1       3.002   3.601  19.055  0.00  0.00    +0.000 A 
ATOM     32  C   UNL     1       1.884   4.036  18.348  0.00  0.00    +0.000 A 
ATOM     33  C   UNL     1       1.808   5.362  17.888  0.00  0.00    +0.000 A 
BRANCH  31  34
ATOM     34  O   UNL     1       3.188   2.336  19.543  0.00  0.00    +0.000 OA
ATOM     35  C   UNL     1       3.622   1.365  18.597  0.00  0.00    +0.000 C 
ENDBRANCH  31  34
ENDBRANCH  27  28
ENDBRANCH   5  27
TORSDOF 7
ENDMDL
MODEL 6
REMARK VINA RESULT:      -7.5      2.452      9.057
REMARK  Name = 
REMARK  9 active torsions:
REMARK  status: ('A' for Active; 'I' for Inactive)
REMARK    1  A    between atoms: C_1  and  O_2
REMARK    2  A    between atoms: O_2  and  C_3
REMARK    3  A    between atoms: C_6  and  C_7
REMARK    4  A    between atoms: C_7  and  N_8
REMARK    5  A    between atoms: N_12  and  C_13
REMARK    6  A    between atoms: C_13  and  C_14
REMARK    7  A    between atoms: C_17  and  O_18
REMARK    8  A    between atoms: O_18  and  C_19
REMARK    9  A    between atoms: C_23  and  C_25
REMARK                            x       y       z     vdW  Elec       q    Type
REMARK                         _______ _______ _______ _____ _____    ______ ____
ROOT
ATOM      1  N   UNL     1      -2.621  10.239  17.583  0.00  0.00    +0.000 N 
ATOM      2  C   UNL     1      -1.485  10.351  18.286  0.00  0.00    +0.000 A 
ATOM      3  N   UNL     1      -0.458   9.475  18.079  0.00  0.00    +0.000 NA
ATOM      4  C   UNL     1       0.448   9.825  18.973  0.00  0.00    +0.000 A 
ATOM      5  N   UNL     1       1.656   9.264  19.237  0.00  0.00    +0.000 N 
ATOM      6  N   UNL     1      -0.082  10.854  19.744  0.00  0.00    +0.000 N 
ATOM      7  C   UNL     1       0.389  11.456  20.920  0.00  0.00    +0.000 C 
ATOM      8  O   UNL     1       1.579  11.328  21.206  0.00  0.00    +0.000 OA
ATOM      9  N   UNL     1      -1.263  11.259  19.222  0.00  0.00    +0.000 NA
ATOM     10  H   UNL     1      -2.677   9.454  16.950  0.00  0.00    +0.000 HD
ATOM     11  H   UNL     1       2.273   9.714  19.919  0.00  0.00    +0.000 HD
ENDROOT
BRANCH   7  12
ATOM     12  C   UNL     1      -0.514  12.201  21.843  0.00  0.00    +0.000 A 
ATOM     13  C   UNL     1      -1.483  11.514  22.582  0.00  0.00    +0.000 A 
ATOM     14  C   UNL     1      -2.288  12.239  23.439  0.00  0.00    +0.000 A 
ATOM     15  N   UNL     1      -2.176  13.570  23.611  0.00  0.00    +0.000 NA
ATOM     16  C   UNL     1      -1.215  14.207  22.905  0.00  0.00    +0.000 A 
ATOM     17  C   UNL     1      -0.361  13.573  22.018  0.00  0.00    +0.000 A 
ENDBRANCH   7  12
BRANCH   1  18
ATOM     18  C   UNL     1      -3.261  11.449  17.090  0.00  0.00    +0.000 C 
BRANCH  18  22
ATOM     19  C   UNL     1      -6.861  12.578  19.229  0.00  0.00    +0.000 A 
ATOM     20  C   UNL     1      -5.622  12.578  19.872  0.00  0.00    +0.000 A 
ATOM     21  C   UNL     1      -4.464  12.191  19.189  0.00  0.00    +0.000 A 
ATOM     22  C   UNL     1      -4.526  11.788  17.846  0.00  0.00    +0.000 A 
ATOM     23  C   UNL     1      -5.780  11.761  17.218  0.00  0.00    +0.000 A 
ATOM     24  C   UNL     1      -6.939  12.157  17.903  0.00  0.00    +0.000 A 
BRANCH  19  26
ATOM     25  C   UNL     1      -7.648  13.963  20.990  0.00  0.00    +0.000 C 
ATOM     26  O   UNL     1      -7.916  12.968  20.009  0.00  0.00    +0.000 OA
ENDBRANCH  19  26
ENDBRANCH  18  22
ENDBRANCH   1  18
BRANCH   5  27
ATOM     27  C   UNL     1       2.337   8.433  18.265  0.00  0.00    +0.000 C 
BRANCH  27  28
ATOM     28  C   UNL     1       2.439   7.003  18.753  0.00  0.00    +0.000 A 
ATOM     29  C   UNL     1       2.083   6.653  20.063  0.00  0.00    +0.000 A 
ATOM     30  C   UNL     1       2.163   5.321  20.490  0.00  0.00    +0.000 A 
ATOM     31  C   UNL     1       2.582   4.317  19.616  0.00  0.00    +0.000 A 
ATOM     32  C   UNL     1       2.968   4.661  18.322  0.00  0.00    +0.000 A 
ATOM     33  C   UNL     1       2.899   5.997  17.892  0.00  0.00    +0.000 A 
BRANCH  31  34
ATOM     34  O   UNL     1       2.613   3.056  20.144  0.00  0.00    +0.000 OA
ATOM     35  C   UNL     1       1.539   2.725  21.019  0.00  0.00    +0.000 C 
ENDBRANCH  31  34
ENDBRANCH  27  28
ENDBRANCH   5  27
TORSDOF 7
ENDMDL
MODEL 7
REMARK VINA RESULT:      -7.5      1.076      1.371
REMARK  Name = 
REMARK  9 active torsions:
REMARK  status: ('A' for Active; 'I' for Inactive)
REMARK    1  A    between atoms: C_1  and  O_2
REMARK    2  A    between atoms: O_2  and  C_3
REMARK    3  A    between atoms: C_6  and  C_7
REMARK    4  A    between atoms: C_7  and  N_8
REMARK    5  A    between atoms: N_12  and  C_13
REMARK    6  A    between atoms: C_13  and  C_14
REMARK    7  A    between atoms: C_17  and  O_18
REMARK    8  A    between atoms: O_18  and  C_19
REMARK    9  A    between atoms: C_23  and  C_25
REMARK                            x       y       z     vdW  Elec       q    Type
REMARK                         _______ _______ _______ _____ _____    ______ ____
ROOT
ATOM      1  N   UNL     1       1.133   8.868  18.436  0.00  0.00    +0.000 N 
ATOM      2  C   UNL     1       0.455  10.021  18.537  0.00  0.00    +0.000 A 
ATOM      3  N   UNL     1      -0.755  10.164  17.921  0.00  0.00    +0.000 NA
ATOM      4  C   UNL     1      -1.092  11.417  18.163  0.00  0.00    +0.000 A 
ATOM      5  N   UNL     1      -2.187  12.107  17.752  0.00  0.00    +0.000 N 
ATOM      6  N   UNL     1      -0.047  12.019  18.856  0.00  0.00    +0.000 N 
ATOM      7  C   UNL     1       0.177  13.361  19.195  0.00  0.00    +0.000 C 
ATOM      8  O   UNL     1      -0.781  14.134  19.186  0.00  0.00    +0.000 OA
ATOM      9  N   UNL     1       0.878  11.090  19.191  0.00  0.00    +0.000 NA
ATOM     10  H   UNL     1       0.721   8.159  17.845  0.00  0.00    +0.000 HD
ATOM     11  H   UNL     1      -2.332  13.059  18.098  0.00  0.00    +0.000 HD
ENDROOT
BRANCH   7  12
ATOM     12  C   UNL     1       1.537  13.879  19.517  0.00  0.00    +0.000 A 
ATOM     13  C   UNL     1       2.414  14.236  18.488  0.00  0.00    +0.000 A 
ATOM     14  C   UNL     1       3.658  14.727  18.830  0.00  0.00    +0.000 A 
ATOM     15  N   UNL     1       4.064  14.896  20.103  0.00  0.00    +0.000 NA
ATOM     16  C   UNL     1       3.188  14.568  21.080  0.00  0.00    +0.000 A 
ATOM     17  C   UNL     1       1.921  14.064  20.842  0.00  0.00    +0.000 A 
ENDBRANCH   7  12
BRANCH   1  18
ATOM     18  C   UNL     1       1.805   8.346  19.615  0.00  0.00    +0.000 C 
BRANCH  18  22
ATOM     19  C   UNL     1       3.024   4.224  19.030  0.00  0.00    +0.000 A 
ATOM     20  C   UNL     1       2.353   4.609  20.191  0.00  0.00    +0.000 A 
ATOM     21  C   UNL     1       1.980   5.944  20.391  0.00  0.00    +0.000 A 
ATOM     22  C   UNL     1       2.282   6.922  19.431  0.00  0.00    +0.000 A 
ATOM     23  C   UNL     1       2.984   6.531  18.282  0.00  0.00    +0.000 A 
ATOM     24  C   UNL     1       3.350   5.191  18.080  0.00  0.00    +0.000 A 
BRANCH  19  26
ATOM     25  C   UNL     1       4.191   2.388  19.981  0.00  0.00    +0.000 C 
ATOM     26  O   UNL     1       3.340   2.894  18.960  0.00  0.00    +0.000 OA
ENDBRANCH  19  26
ENDBRANCH  18  22
ENDBRANCH   1  18
BRANCH   5  27
ATOM     27  C   UNL     1      -3.395  11.431  17.324  0.00  0.00    +0.000 C 
BRANCH  27  28
ATOM     28  C   UNL     1      -4.500  11.601  18.345  0.00  0.00    +0.000 A 
ATOM     29  C   UNL     1      -5.766  11.031  18.150  0.00  0.00    +0.000 A 
ATOM     30  C   UNL     1      -6.769  11.180  19.117  0.00  0.00    +0.000 A 
ATOM     31  C   UNL     1      -6.522  11.883  20.297  0.00  0.00    +0.000 A 
ATOM     32  C   UNL     1      -5.277  12.478  20.486  0.00  0.00    +0.000 A 
ATOM     33  C   UNL     1      -4.270  12.340  19.514  0.00  0.00    +0.000 A 
BRANCH  31  34
ATOM     34  O   UNL     1      -7.575  11.955  21.167  0.00  0.00    +0.000 OA
ATOM     35  C   UNL     1      -7.916  10.741  21.828  0.00  0.00    +0.000 C 
ENDBRANCH  31  34
ENDBRANCH  27  28
ENDBRANCH   5  27
TORSDOF 7
ENDMDL
MODEL 8
REMARK VINA RESULT:      -7.5      2.255      9.100
REMARK  Name = 
REMARK  9 active torsions:
REMARK  status: ('A' for Active; 'I' for Inactive)
REMARK    1  A    between atoms: C_1  and  O_2
REMARK    2  A    between atoms: O_2  and  C_3
REMARK    3  A    between atoms: C_6  and  C_7
REMARK    4  A    between atoms: C_7  and  N_8
REMARK    5  A    between atoms: N_12  and  C_13
REMARK    6  A    between atoms: C_13  and  C_14
REMARK    7  A    between atoms: C_17  and  O_18
REMARK    8  A    between atoms: O_18  and  C_19
REMARK    9  A    between atoms: C_23  and  C_25
REMARK                            x       y       z     vdW  Elec       q    Type
REMARK                         _______ _______ _______ _____ _____    ______ ____
ROOT
ATOM      1  N   UNL     1      -2.544  10.092  17.463  0.00  0.00    +0.000 N 
ATOM      2  C   UNL     1      -1.392  10.271  18.126  0.00  0.00    +0.000 A 
ATOM      3  N   UNL     1      -0.304   9.497  17.837  0.00  0.00    +0.000 NA
ATOM      4  C   UNL     1       0.606   9.885  18.711  0.00  0.00    +0.000 A 
ATOM      5  N   UNL     1       1.868   9.420  18.901  0.00  0.00    +0.000 N 
ATOM      6  N   UNL     1       0.024  10.828  19.551  0.00  0.00    +0.000 N 
ATOM      7  C   UNL     1       0.492  11.416  20.735  0.00  0.00    +0.000 C 
ATOM      8  O   UNL     1       1.700  11.379  20.969  0.00  0.00    +0.000 OA
ATOM      9  N   UNL     1      -1.208  11.152  19.096  0.00  0.00    +0.000 NA
ATOM     10  H   UNL     1      -2.560   9.334  16.795  0.00  0.00    +0.000 HD
ATOM     11  H   UNL     1       2.473   9.890  19.580  0.00  0.00    +0.000 HD
ENDROOT
BRANCH   7  12
ATOM     12  C   UNL     1      -0.430  12.037  21.728  0.00  0.00    +0.000 A 
ATOM     13  C   UNL     1      -0.554  13.428  21.797  0.00  0.00    +0.000 A 
ATOM     14  C   UNL     1      -1.432  13.963  22.719  0.00  0.00    +0.000 A 
ATOM     15  N   UNL     1      -2.186  13.212  23.544  0.00  0.00    +0.000 NA
ATOM     16  C   UNL     1      -2.068  11.869  23.442  0.00  0.00    +0.000 A 
ATOM     17  C   UNL     1      -1.214  11.236  22.553  0.00  0.00    +0.000 A 
ENDBRANCH   7  12
BRANCH   1  18
ATOM     18  C   UNL     1      -3.305  11.263  17.055  0.00  0.00    +0.000 C 
BRANCH  18  22
ATOM     19  C   UNL     1      -6.573  11.995  19.812  0.00  0.00    +0.000 A 
ATOM     20  C   UNL     1      -6.794  11.326  18.607  0.00  0.00    +0.000 A 
ATOM     21  C   UNL     1      -5.745  11.111  17.706  0.00  0.00    +0.000 A 
ATOM     22  C   UNL     1      -4.450  11.569  17.993  0.00  0.00    +0.000 A 
ATOM     23  C   UNL     1      -4.243  12.267  19.192  0.00  0.00    +0.000 A 
ATOM     24  C   UNL     1      -5.296  12.475  20.098  0.00  0.00    +0.000 A 
BRANCH  19  26
ATOM     25  C   UNL     1      -7.902  13.447  21.138  0.00  0.00    +0.000 C 
ATOM     26  O   UNL     1      -7.681  12.149  20.599  0.00  0.00    +0.000 OA
ENDBRANCH  19  26
ENDBRANCH  18  22
ENDBRANCH   1  18
BRANCH   5  27
ATOM     27  C   UNL     1       2.575   8.695  17.864  0.00  0.00    +0.000 C 
BRANCH  27  28
ATOM     28  C   UNL     1       2.917   7.293  18.322  0.00  0.00    +0.000 A 
ATOM     29  C   UNL     1       2.432   6.784  19.535  0.00  0.00    +0.000 A 
ATOM     30  C   UNL     1       2.741   5.476  19.931  0.00  0.00    +0.000 A 
ATOM     31  C   UNL     1       3.523   4.652  19.119  0.00  0.00    +0.000 A 
ATOM     32  C   UNL     1       4.034   5.160  17.928  0.00  0.00    +0.000 A 
ATOM     33  C   UNL     1       3.735   6.475  17.530  0.00  0.00    +0.000 A 
BRANCH  31  34
ATOM     34  O   UNL     1       3.751   3.395  19.609  0.00  0.00    +0.000 OA
ATOM     35  C   UNL     1       2.719   2.443  19.375  0.00  0.00    +0.000 C 
ENDBRANCH  31  34
ENDBRANCH  27  28
ENDBRANCH   5  27
TORSDOF 7
ENDMDL
MODEL 9
REMARK VINA RESULT:      -7.5      2.390      9.082
REMARK  Name = 
REMARK  9 active torsions:
REMARK  status: ('A' for Active; 'I' for Inactive)
REMARK    1  A    between atoms: C_1  and  O_2
REMARK    2  A    between atoms: O_2  and  C_3
REMARK    3  A    between atoms: C_6  and  C_7
REMARK    4  A    between atoms: C_7  and  N_8
REMARK    5  A    between atoms: N_12  and  C_13
REMARK    6  A    between atoms: C_13  and  C_14
REMARK    7  A    between atoms: C_17  and  O_18
REMARK    8  A    between atoms: O_18  and  C_19
REMARK    9  A    between atoms: C_23  and  C_25
REMARK                            x       y       z     vdW  Elec       q    Type
REMARK                         _______ _______ _______ _____ _____    ______ ____
ROOT
ATOM      1  N   UNL     1      -2.653   9.807  16.921  0.00  0.00    +0.000 N 
ATOM      2  C   UNL     1      -1.554  10.089  17.636  0.00  0.00    +0.000 A 
ATOM      3  N   UNL     1      -0.416   9.354  17.468  0.00  0.00    +0.000 NA
ATOM      4  C   UNL     1       0.420   9.847  18.363  0.00  0.00    +0.000 A 
ATOM      5  N   UNL     1       1.688   9.461  18.659  0.00  0.00    +0.000 N 
ATOM      6  N   UNL     1      -0.256  10.815  19.097  0.00  0.00    +0.000 N 
ATOM      7  C   UNL     1       0.109  11.507  20.261  0.00  0.00    +0.000 C 
ATOM      8  O   UNL     1       1.301  11.548  20.567  0.00  0.00    +0.000 OA
ATOM      9  N   UNL     1      -1.472  11.044  18.549  0.00  0.00    +0.000 NA
ATOM     10  H   UNL     1      -2.593   9.004  16.310  0.00  0.00    +0.000 HD
ATOM     11  H   UNL     1       2.227  10.007  19.336  0.00  0.00    +0.000 HD
ENDROOT
BRANCH   7  12
ATOM     12  C   UNL     1      -0.900  12.147  21.151  0.00  0.00    +0.000 A 
ATOM     13  C   UNL     1      -1.399  11.454  22.259  0.00  0.00    +0.000 A 
ATOM     14  C   UNL     1      -2.320  12.090  23.067  0.00  0.00    +0.000 A 
ATOM     15  N   UNL     1      -2.751  13.348  22.853  0.00  0.00    +0.000 NA
ATOM     16  C   UNL     1      -2.235  14.006  21.790  0.00  0.00    +0.000 A 
ATOM     17  C   UNL     1      -1.310  13.456  20.918  0.00  0.00    +0.000 A 
ENDBRANCH   7  12
BRANCH   1  18
ATOM     18  C   UNL     1      -3.441  10.906  16.386  0.00  0.00    +0.000 C 
BRANCH  18  22
ATOM     19  C   UNL     1      -6.869  11.820  18.882  0.00  0.00    +0.000 A 
ATOM     20  C   UNL     1      -6.123  10.660  19.095  0.00  0.00    +0.000 A 
ATOM     21  C   UNL     1      -5.031  10.352  18.275  0.00  0.00    +0.000 A 
ATOM     22  C   UNL     1      -4.670  11.201  17.218  0.00  0.00    +0.000 A 
ATOM     23  C   UNL     1      -5.444  12.348  16.991  0.00  0.00    +0.000 A 
ATOM     24  C   UNL     1      -6.534  12.658  17.820  0.00  0.00    +0.000 A 
BRANCH  19  26
ATOM     25  C   UNL     1      -7.750  11.486  21.061  0.00  0.00    +0.000 C 
ATOM     26  O   UNL     1      -7.916  12.000  19.745  0.00  0.00    +0.000 OA
ENDBRANCH  19  26
ENDBRANCH  18  22
ENDBRANCH   1  18
BRANCH   5  27
ATOM     27  C   UNL     1       2.490   8.703  17.720  0.00  0.00    +0.000 C 
BRANCH  27  28
ATOM     28  C   UNL     1       2.877   7.359  18.301  0.00  0.00    +0.000 A 
ATOM     29  C   UNL     1       2.300   6.885  19.487  0.00  0.00    +0.000 A 
ATOM     30  C   UNL     1       2.653   5.629  19.997  0.00  0.00    +0.000 A 
ATOM     31  C   UNL     1       3.573   4.822  19.326  0.00  0.00    +0.000 A 
ATOM     32  C   UNL     1       4.176   5.298  18.164  0.00  0.00    +0.000 A 
ATOM     33  C   UNL     1       3.831   6.562  17.654  0.00  0.00    +0.000 A 
BRANCH  31  34
ATOM     34  O   UNL     1       3.834   3.616  19.917  0.00  0.00    +0.000 OA
ATOM     35  C   UNL     1       3.975   2.510  19.031  0.00  0.00    +0.000 C 
ENDBRANCH  31  34
ENDBRANCH  27  28
ENDBRANCH   5  27
TORSDOF 7
ENDMDL
