MODEL 1
REMARK VINA RESULT:      -6.8      0.000      0.000
REMARK  Name = 
REMARK  17 active torsions:
REMARK  status: ('A' for Active; 'I' for Inactive)
REMARK    1  A    between atoms: C_1  and  C_2
REMARK    2  A    between atoms: C_2  and  C_3
REMARK    3  A    between atoms: C_3  and  C_4
REMARK    4  A    between atoms: C_4  and  C_5
REMARK    5  A    between atoms: C_5  and  C_6
REMARK    6  A    between atoms: C_6  and  C_7
REMARK    7  A    between atoms: C_7  and  C_8
REMARK    8  A    between atoms: C_8  and  C_9
REMARK    9  A    between atoms: C_9  and  C_10
REMARK   10  A    between atoms: C_10  and  C_11
REMARK   11  A    between atoms: C_11  and  C_12
REMARK   12  A    between atoms: C_13  and  O_14
REMARK   13  A    between atoms: C_20  and  N_21
REMARK   14  A    between atoms: C_22  and  C_23
REMARK   15  A    between atoms: C_25  and  C_26
REMARK   16  A    between atoms: C_29  and  O_30
REMARK   17  A    between atoms: O_30  and  C_31
REMARK                            x       y       z     vdW  Elec       q    Type
REMARK                         _______ _______ _______ _____ _____    ______ ____
ROOT
ATOM      1  C   UNL     1       1.549   9.391  19.941  0.00  0.00    +0.000 C 
ATOM      2  C   UNL     1       1.990   9.220  18.689  0.00  0.00    +0.000 C 
ATOM      3  C   UNL     1       2.148   7.862  18.106  0.00  0.00    +0.000 C 
ATOM      4  O   UNL     1       2.256   7.749  16.891  0.00  0.00    +0.000 OA
ATOM      5  C   UNL     1       2.180   6.715  19.035  0.00  0.00    +0.000 C 
ATOM      6  C   UNL     1       1.731   6.878  20.287  0.00  0.00    +0.000 C 
ATOM      7  O   UNL     1       1.678   5.838  21.204  0.00  0.00    +0.000 OA
ATOM      8  C   UNL     1       2.276   4.620  20.913  0.00  0.00    +0.000 C 
ATOM      9  C   UNL     1       2.787   4.376  19.690  0.00  0.00    +0.000 C 
ATOM     10  C   UNL     1       2.682   5.377  18.550  0.00  0.00    +0.000 C 
ATOM     11  C   UNL     1       1.232   8.195  20.766  0.00  0.00    +0.000 C 
ATOM     12  O   UNL     1       0.605   8.284  21.814  0.00  0.00    +0.000 OA
ENDROOT
BRANCH  10  13
ATOM     13  C   UNL     1       4.001   5.487  17.792  0.00  0.00    +0.000 A 
ATOM     14  C   UNL     1       4.137   4.884  16.528  0.00  0.00    +0.000 A 
ATOM     15  C   UNL     1       5.339   4.980  15.824  0.00  0.00    +0.000 A 
ATOM     16  C   UNL     1       6.429   5.669  16.360  0.00  0.00    +0.000 A 
ATOM     17  C   UNL     1       6.295   6.256  17.619  0.00  0.00    +0.000 A 
ATOM     18  F   UNL     1       7.301   6.922  18.202  0.00  0.00    +0.000 F 
ATOM     19  C   UNL     1       5.096   6.173  18.329  0.00  0.00    +0.000 A 
BRANCH  16  20
ATOM     20  O   UNL     1       7.536   5.689  15.555  0.00  0.00    +0.000 OA
ATOM     21  C   UNL     1       7.435   4.996  14.317  0.00  0.00    +0.000 C 
ENDBRANCH  16  20
ENDBRANCH  10  13
BRANCH   8  22
ATOM     22  N   UNL     1       2.282   3.750  21.973  0.00  0.00    +0.000 N 
ATOM     23  H   UNL     1       1.490   3.111  21.980  0.00  0.00    +0.000 HD
ATOM     24  H   UNL     1       2.519   4.125  22.887  0.00  0.00    +0.000 HD
ENDBRANCH   8  22
BRANCH   2  25
ATOM     25  O   UNL     1       2.231  10.297  17.852  0.00  0.00    +0.000 OA
ATOM     26  H   UNL     1       3.206  10.358  17.764  0.00  0.00    +0.000 HD
ENDBRANCH   2  25
BRANCH   9  27
ATOM     27  C   UNL     1       3.537   3.079  19.436  0.00  0.00    +0.000 C 
ATOM     28  N   UNL     1       4.159   2.003  19.224  0.00  0.00    +0.000 NA
ENDBRANCH   9  27
BRANCH   1  29
ATOM     29  C   UNL     1       1.261  10.744  20.537  0.00  0.00    +0.000 C 
BRANCH  29  30
ATOM     30  C   UNL     1      -0.093  11.345  20.162  0.00  0.00    +0.000 C 
BRANCH  30  31
ATOM     31  C   UNL     1      -1.022  10.380  19.432  0.00  0.00    +0.000 C 
BRANCH  31  32
ATOM     32  C   UNL     1      -1.380  10.977  18.077  0.00  0.00    +0.000 C 
BRANCH  32  33
ATOM     33  C   UNL     1      -1.826   9.912  17.090  0.00  0.00    +0.000 C 
BRANCH  33  34
ATOM     34  C   UNL     1      -3.340   9.963  16.921  0.00  0.00    +0.000 C 
BRANCH  34  35
ATOM     35  C   UNL     1      -3.859  11.350  17.269  0.00  0.00    +0.000 C 
BRANCH  35  36
ATOM     36  C   UNL     1      -5.360  11.327  17.530  0.00  0.00    +0.000 C 
BRANCH  36  37
ATOM     37  C   UNL     1      -5.655  11.926  18.900  0.00  0.00    +0.000 C 
BRANCH  37  39
ATOM     38  C   UNL     1      -7.299  10.618  20.258  0.00  0.00    +0.000 C 
ATOM     39  C   UNL     1      -7.123  11.762  19.277  0.00  0.00    +0.000 C 
ENDBRANCH  37  39
ENDBRANCH  36  37
ENDBRANCH  35  36
ENDBRANCH  34  35
ENDBRANCH  33  34
ENDBRANCH  32  33
ENDBRANCH  31  32
ENDBRANCH  30  31
ENDBRANCH  29  30
ENDBRANCH   1  29
TORSDOF 15
ENDMDL
MODEL 2
REMARK VINA RESULT:      -6.7      0.820      1.899
REMARK  Name = 
REMARK  17 active torsions:
REMARK  status: ('A' for Active; 'I' for Inactive)
REMARK    1  A    between atoms: C_1  and  C_2
REMARK    2  A    between atoms: C_2  and  C_3
REMARK    3  A    between atoms: C_3  and  C_4
REMARK    4  A    between atoms: C_4  and  C_5
REMARK    5  A    between atoms: C_5  and  C_6
REMARK    6  A    between atoms: C_6  and  C_7
REMARK    7  A    between atoms: C_7  and  C_8
REMARK    8  A    between atoms: C_8  and  C_9
REMARK    9  A    between atoms: C_9  and  C_10
REMARK   10  A    between atoms: C_10  and  C_11
REMARK   11  A    between atoms: C_11  and  C_12
REMARK   12  A    between atoms: C_13  and  O_14
REMARK   13  A    between atoms: C_20  and  N_21
REMARK   14  A    between atoms: C_22  and  C_23
REMARK   15  A    between atoms: C_25  and  C_26
REMARK   16  A    between atoms: C_29  and  O_30
REMARK   17  A    between atoms: O_30  and  C_31
REMARK                            x       y       z     vdW  Elec       q    Type
REMARK                         _______ _______ _______ _____ _____    ______ ____
ROOT
ATOM      1  C   UNL     1       1.457   9.170  19.876  0.00  0.00    +0.000 C 
ATOM      2  C   UNL     1       1.915   8.981  18.632  0.00  0.00    +0.000 C 
ATOM      3  C   UNL     1       2.107   7.614  18.082  0.00  0.00    +0.000 C 
ATOM      4  O   UNL     1       2.231   7.476  16.871  0.00  0.00    +0.000 OA
ATOM      5  C   UNL     1       2.152   6.488  19.037  0.00  0.00    +0.000 C 
ATOM      6  C   UNL     1       1.686   6.670  20.280  0.00  0.00    +0.000 C 
ATOM      7  O   UNL     1       1.644   5.649  21.219  0.00  0.00    +0.000 OA
ATOM      8  C   UNL     1       2.270   4.437  20.961  0.00  0.00    +0.000 C 
ATOM      9  C   UNL     1       2.799   4.177  19.750  0.00  0.00    +0.000 C 
ATOM     10  C   UNL     1       2.687   5.151  18.586  0.00  0.00    +0.000 C 
ATOM     11  C   UNL     1       1.155   7.986  20.724  0.00  0.00    +0.000 C 
ATOM     12  O   UNL     1       0.515   8.085  21.763  0.00  0.00    +0.000 OA
ENDROOT
BRANCH  10  13
ATOM     13  C   UNL     1       4.011   5.271  17.840  0.00  0.00    +0.000 A 
ATOM     14  C   UNL     1       4.190   4.604  16.614  0.00  0.00    +0.000 A 
ATOM     15  C   UNL     1       5.397   4.709  15.921  0.00  0.00    +0.000 A 
ATOM     16  C   UNL     1       6.451   5.470  16.431  0.00  0.00    +0.000 A 
ATOM     17  C   UNL     1       6.275   6.121  17.653  0.00  0.00    +0.000 A 
ATOM     18  F   UNL     1       7.246   6.858  18.210  0.00  0.00    +0.000 F 
ATOM     19  C   UNL     1       5.070   6.029  18.351  0.00  0.00    +0.000 A 
BRANCH  16  20
ATOM     20  O   UNL     1       7.568   5.489  15.641  0.00  0.00    +0.000 OA
ATOM     21  C   UNL     1       7.381   5.173  14.267  0.00  0.00    +0.000 C 
ENDBRANCH  16  20
ENDBRANCH  10  13
BRANCH   8  22
ATOM     22  N   UNL     1       2.282   3.592  22.040  0.00  0.00    +0.000 N 
ATOM     23  H   UNL     1       2.838   3.936  22.821  0.00  0.00    +0.000 HD
ATOM     24  H   UNL     1       2.396   2.599  21.857  0.00  0.00    +0.000 HD
ENDBRANCH   8  22
BRANCH   2  25
ATOM     25  O   UNL     1       2.144  10.044  17.775  0.00  0.00    +0.000 OA
ATOM     26  H   UNL     1       3.064  10.337  17.946  0.00  0.00    +0.000 HD
ENDBRANCH   2  25
BRANCH   9  27
ATOM     27  C   UNL     1       3.578   2.890  19.533  0.00  0.00    +0.000 C 
ATOM     28  N   UNL     1       4.223   1.822  19.353  0.00  0.00    +0.000 NA
ENDBRANCH   9  27
BRANCH   1  29
ATOM     29  C   UNL     1       1.135  10.530  20.439  0.00  0.00    +0.000 C 
BRANCH  29  30
ATOM     30  C   UNL     1      -0.289  11.019  20.182  0.00  0.00    +0.000 C 
BRANCH  30  31
ATOM     31  C   UNL     1      -0.903  11.789  21.348  0.00  0.00    +0.000 C 
BRANCH  31  32
ATOM     32  C   UNL     1      -1.844  12.850  20.791  0.00  0.00    +0.000 C 
BRANCH  32  33
ATOM     33  C   UNL     1      -2.652  12.328  19.615  0.00  0.00    +0.000 C 
BRANCH  33  34
ATOM     34  C   UNL     1      -4.141  12.460  19.911  0.00  0.00    +0.000 C 
BRANCH  34  35
ATOM     35  C   UNL     1      -4.950  12.203  18.648  0.00  0.00    +0.000 C 
BRANCH  35  36
ATOM     36  C   UNL     1      -4.602  10.853  18.035  0.00  0.00    +0.000 C 
BRANCH  36  37
ATOM     37  C   UNL     1      -4.057  11.050  16.625  0.00  0.00    +0.000 C 
BRANCH  37  39
ATOM     38  C   UNL     1      -1.851   9.927  16.983  0.00  0.00    +0.000 C 
ATOM     39  C   UNL     1      -3.155   9.894  16.209  0.00  0.00    +0.000 C 
ENDBRANCH  37  39
ENDBRANCH  36  37
ENDBRANCH  35  36
ENDBRANCH  34  35
ENDBRANCH  33  34
ENDBRANCH  32  33
ENDBRANCH  31  32
ENDBRANCH  30  31
ENDBRANCH  29  30
ENDBRANCH   1  29
TORSDOF 15
ENDMDL
MODEL 3
REMARK VINA RESULT:      -6.5      4.740     10.317
REMARK  Name = 
REMARK  17 active torsions:
REMARK  status: ('A' for Active; 'I' for Inactive)
REMARK    1  A    between atoms: C_1  and  C_2
REMARK    2  A    between atoms: C_2  and  C_3
REMARK    3  A    between atoms: C_3  and  C_4
REMARK    4  A    between atoms: C_4  and  C_5
REMARK    5  A    between atoms: C_5  and  C_6
REMARK    6  A    between atoms: C_6  and  C_7
REMARK    7  A    between atoms: C_7  and  C_8
REMARK    8  A    between atoms: C_8  and  C_9
REMARK    9  A    between atoms: C_9  and  C_10
REMARK   10  A    between atoms: C_10  and  C_11
REMARK   11  A    between atoms: C_11  and  C_12
REMARK   12  A    between atoms: C_13  and  O_14
REMARK   13  A    between atoms: C_20  and  N_21
REMARK   14  A    between atoms: C_22  and  C_23
REMARK   15  A    between atoms: C_25  and  C_26
REMARK   16  A    between atoms: C_29  and  O_30
REMARK   17  A    between atoms: O_30  and  C_31
REMARK                            x       y       z     vdW  Elec       q    Type
REMARK                         _______ _______ _______ _____ _____    ______ ____
ROOT
ATOM      1  C   UNL     1       0.778  10.666  18.248  0.00  0.00    +0.000 C 
ATOM      2  C   UNL     1      -0.558  10.717  18.305  0.00  0.00    +0.000 C 
ATOM      3  C   UNL     1      -1.267  11.971  18.668  0.00  0.00    +0.000 C 
ATOM      4  O   UNL     1      -2.463  12.068  18.420  0.00  0.00    +0.000 OA
ATOM      5  C   UNL     1      -0.485  13.037  19.327  0.00  0.00    +0.000 C 
ATOM      6  C   UNL     1       0.853  12.996  19.265  0.00  0.00    +0.000 C 
ATOM      7  O   UNL     1       1.657  13.985  19.812  0.00  0.00    +0.000 OA
ATOM      8  C   UNL     1       1.103  14.967  20.622  0.00  0.00    +0.000 C 
ATOM      9  C   UNL     1      -0.232  15.065  20.773  0.00  0.00    +0.000 C 
ATOM     10  C   UNL     1      -1.204  14.165  20.026  0.00  0.00    +0.000 C 
ATOM     11  C   UNL     1       1.563  11.887  18.574  0.00  0.00    +0.000 C 
ATOM     12  O   UNL     1       2.755  11.975  18.309  0.00  0.00    +0.000 OA
ENDROOT
BRANCH  10  13
ATOM     13  C   UNL     1      -2.315  13.670  20.946  0.00  0.00    +0.000 A 
ATOM     14  C   UNL     1      -3.634  14.126  20.764  0.00  0.00    +0.000 A 
ATOM     15  C   UNL     1      -4.658  13.678  21.599  0.00  0.00    +0.000 A 
ATOM     16  C   UNL     1      -4.397  12.777  22.633  0.00  0.00    +0.000 A 
ATOM     17  C   UNL     1      -3.085  12.336  22.819  0.00  0.00    +0.000 A 
ATOM     18  F   UNL     1      -2.756  11.482  23.798  0.00  0.00    +0.000 F 
ATOM     19  C   UNL     1      -2.054  12.771  21.986  0.00  0.00    +0.000 A 
BRANCH  16  20
ATOM     20  O   UNL     1      -5.497  12.420  23.364  0.00  0.00    +0.000 OA
ATOM     21  C   UNL     1      -6.298  13.482  23.868  0.00  0.00    +0.000 C 
ENDBRANCH  16  20
ENDBRANCH  10  13
BRANCH   8  22
ATOM     22  N   UNL     1       2.039  15.773  21.216  0.00  0.00    +0.000 N 
ATOM     23  H   UNL     1       1.672  16.678  21.507  0.00  0.00    +0.000 HD
ATOM     24  H   UNL     1       2.960  15.818  20.789  0.00  0.00    +0.000 HD
ENDBRANCH   8  22
BRANCH   2  25
ATOM     25  O   UNL     1      -1.341   9.633  17.942  0.00  0.00    +0.000 OA
ATOM     26  H   UNL     1      -1.730   9.860  17.071  0.00  0.00    +0.000 HD
ENDBRANCH   2  25
BRANCH   9  27
ATOM     27  C   UNL     1      -0.803  16.075  21.755  0.00  0.00    +0.000 C 
ATOM     28  N   UNL     1      -1.276  16.912  22.571  0.00  0.00    +0.000 NA
ENDBRANCH   9  27
BRANCH   1  29
ATOM     29  C   UNL     1       1.538   9.455  17.773  0.00  0.00    +0.000 C 
BRANCH  29  30
ATOM     30  C   UNL     1       1.974   8.489  18.873  0.00  0.00    +0.000 C 
BRANCH  30  31
ATOM     31  C   UNL     1       2.333   7.094  18.370  0.00  0.00    +0.000 C 
BRANCH  31  32
ATOM     32  C   UNL     1       3.710   7.148  17.721  0.00  0.00    +0.000 C 
BRANCH  32  33
ATOM     33  C   UNL     1       4.247   5.760  17.418  0.00  0.00    +0.000 C 
BRANCH  33  34
ATOM     34  C   UNL     1       3.107   4.748  17.435  0.00  0.00    +0.000 C 
BRANCH  34  35
ATOM     35  C   UNL     1       3.623   3.384  17.867  0.00  0.00    +0.000 C 
BRANCH  35  36
ATOM     36  C   UNL     1       2.500   2.355  17.901  0.00  0.00    +0.000 C 
BRANCH  36  37
ATOM     37  C   UNL     1       1.237   2.987  18.473  0.00  0.00    +0.000 C 
BRANCH  37  39
ATOM     38  C   UNL     1       1.204   4.245  20.634  0.00  0.00    +0.000 C 
ATOM     39  C   UNL     1       1.193   2.871  19.992  0.00  0.00    +0.000 C 
ENDBRANCH  37  39
ENDBRANCH  36  37
ENDBRANCH  35  36
ENDBRANCH  34  35
ENDBRANCH  33  34
ENDBRANCH  32  33
ENDBRANCH  31  32
ENDBRANCH  30  31
ENDBRANCH  29  30
ENDBRANCH   1  29
TORSDOF 15
ENDMDL
MODEL 4
REMARK VINA RESULT:      -6.5      1.869      2.789
REMARK  Name = 
REMARK  17 active torsions:
REMARK  status: ('A' for Active; 'I' for Inactive)
REMARK    1  A    between atoms: C_1  and  C_2
REMARK    2  A    between atoms: C_2  and  C_3
REMARK    3  A    between atoms: C_3  and  C_4
REMARK    4  A    between atoms: C_4  and  C_5
REMARK    5  A    between atoms: C_5  and  C_6
REMARK    6  A    between atoms: C_6  and  C_7
REMARK    7  A    between atoms: C_7  and  C_8
REMARK    8  A    between atoms: C_8  and  C_9
REMARK    9  A    between atoms: C_9  and  C_10
REMARK   10  A    between atoms: C_10  and  C_11
REMARK   11  A    between atoms: C_11  and  C_12
REMARK   12  A    between atoms: C_13  and  O_14
REMARK   13  A    between atoms: C_20  and  N_21
REMARK   14  A    between atoms: C_22  and  C_23
REMARK   15  A    between atoms: C_25  and  C_26
REMARK   16  A    between atoms: C_29  and  O_30
REMARK   17  A    between atoms: O_30  and  C_31
REMARK                            x       y       z     vdW  Elec       q    Type
REMARK                         _______ _______ _______ _____ _____    ______ ____
ROOT
ATOM      1  C   UNL     1       1.436   9.048  20.018  0.00  0.00    +0.000 C 
ATOM      2  C   UNL     1       1.895   8.884  18.771  0.00  0.00    +0.000 C 
ATOM      3  C   UNL     1       2.097   7.527  18.198  0.00  0.00    +0.000 C 
ATOM      4  O   UNL     1       2.221   7.411  16.985  0.00  0.00    +0.000 OA
ATOM      5  C   UNL     1       2.150   6.386  19.133  0.00  0.00    +0.000 C 
ATOM      6  C   UNL     1       1.684   6.543  20.380  0.00  0.00    +0.000 C 
ATOM      7  O   UNL     1       1.650   5.507  21.301  0.00  0.00    +0.000 OA
ATOM      8  C   UNL     1       2.284   4.304  21.023  0.00  0.00    +0.000 C 
ATOM      9  C   UNL     1       2.814   4.068  19.808  0.00  0.00    +0.000 C 
ATOM     10  C   UNL     1       2.694   5.060  18.660  0.00  0.00    +0.000 C 
ATOM     11  C   UNL     1       1.143   7.848  20.846  0.00  0.00    +0.000 C 
ATOM     12  O   UNL     1       0.503   7.925  21.887  0.00  0.00    +0.000 OA
ENDROOT
BRANCH  10  13
ATOM     13  C   UNL     1       4.018   5.203  17.916  0.00  0.00    +0.000 A 
ATOM     14  C   UNL     1       4.163   4.651  16.629  0.00  0.00    +0.000 A 
ATOM     15  C   UNL     1       5.368   4.778  15.938  0.00  0.00    +0.000 A 
ATOM     16  C   UNL     1       6.454   5.445  16.508  0.00  0.00    +0.000 A 
ATOM     17  C   UNL     1       6.311   5.981  17.789  0.00  0.00    +0.000 A 
ATOM     18  F   UNL     1       7.313   6.624  18.405  0.00  0.00    +0.000 F 
ATOM     19  C   UNL     1       5.108   5.868  18.487  0.00  0.00    +0.000 A 
BRANCH  16  20
ATOM     20  O   UNL     1       7.566   5.499  15.712  0.00  0.00    +0.000 OA
ATOM     21  C   UNL     1       7.417   5.028  14.378  0.00  0.00    +0.000 C 
ENDBRANCH  16  20
ENDBRANCH  10  13
BRANCH   8  22
ATOM     22  N   UNL     1       2.303   3.440  22.088  0.00  0.00    +0.000 N 
ATOM     23  H   UNL     1       2.653   3.860  22.947  0.00  0.00    +0.000 HD
ATOM     24  H   UNL     1       2.640   2.496  21.921  0.00  0.00    +0.000 HD
ENDBRANCH   8  22
BRANCH   2  25
ATOM     25  O   UNL     1       2.116   9.962  17.931  0.00  0.00    +0.000 OA
ATOM     26  H   UNL     1       2.294  10.729  18.517  0.00  0.00    +0.000 HD
ENDBRANCH   2  25
BRANCH   9  27
ATOM     27  C   UNL     1       3.602   2.790  19.568  0.00  0.00    +0.000 C 
ATOM     28  N   UNL     1       4.255   1.730  19.371  0.00  0.00    +0.000 NA
ENDBRANCH   9  27
BRANCH   1  29
ATOM     29  C   UNL     1       1.105  10.396  20.604  0.00  0.00    +0.000 C 
BRANCH  29  30
ATOM     30  C   UNL     1      -0.343  10.847  20.419  0.00  0.00    +0.000 C 
BRANCH  30  31
ATOM     31  C   UNL     1      -0.593  11.629  19.132  0.00  0.00    +0.000 C 
BRANCH  31  32
ATOM     32  C   UNL     1       0.190  12.935  19.194  0.00  0.00    +0.000 C 
BRANCH  32  33
ATOM     33  C   UNL     1      -0.671  14.087  19.681  0.00  0.00    +0.000 C 
BRANCH  33  34
ATOM     34  C   UNL     1       0.145  14.995  20.593  0.00  0.00    +0.000 C 
BRANCH  34  35
ATOM     35  C   UNL     1       0.159  14.439  22.009  0.00  0.00    +0.000 C 
BRANCH  35  36
ATOM     36  C   UNL     1      -1.255  14.185  22.516  0.00  0.00    +0.000 C 
BRANCH  36  37
ATOM     37  C   UNL     1      -1.333  12.806  23.162  0.00  0.00    +0.000 C 
BRANCH  37  39
ATOM     38  C   UNL     1      -3.421  12.735  21.787  0.00  0.00    +0.000 C 
ATOM     39  C   UNL     1      -2.728  12.206  23.029  0.00  0.00    +0.000 C 
ENDBRANCH  37  39
ENDBRANCH  36  37
ENDBRANCH  35  36
ENDBRANCH  34  35
ENDBRANCH  33  34
ENDBRANCH  32  33
ENDBRANCH  31  32
ENDBRANCH  30  31
ENDBRANCH  29  30
ENDBRANCH   1  29
TORSDOF 15
ENDMDL
MODEL 5
REMARK VINA RESULT:      -6.4      1.166      2.070
REMARK  Name = 
REMARK  17 active torsions:
REMARK  status: ('A' for Active; 'I' for Inactive)
REMARK    1  A    between atoms: C_1  and  C_2
REMARK    2  A    between atoms: C_2  and  C_3
REMARK    3  A    between atoms: C_3  and  C_4
REMARK    4  A    between atoms: C_4  and  C_5
REMARK    5  A    between atoms: C_5  and  C_6
REMARK    6  A    between atoms: C_6  and  C_7
REMARK    7  A    between atoms: C_7  and  C_8
REMARK    8  A    between atoms: C_8  and  C_9
REMARK    9  A    between atoms: C_9  and  C_10
REMARK   10  A    between atoms: C_10  and  C_11
REMARK   11  A    between atoms: C_11  and  C_12
REMARK   12  A    between atoms: C_13  and  O_14
REMARK   13  A    between atoms: C_20  and  N_21
REMARK   14  A    between atoms: C_22  and  C_23
REMARK   15  A    between atoms: C_25  and  C_26
REMARK   16  A    between atoms: C_29  and  O_30
REMARK   17  A    between atoms: O_30  and  C_31
REMARK                            x       y       z     vdW  Elec       q    Type
REMARK                         _______ _______ _______ _____ _____    ______ ____
ROOT
ATOM      1  C   UNL     1       1.501   8.996  20.247  0.00  0.00    +0.000 C 
ATOM      2  C   UNL     1       1.939   8.883  18.987  0.00  0.00    +0.000 C 
ATOM      3  C   UNL     1       2.101   7.553  18.344  0.00  0.00    +0.000 C 
ATOM      4  O   UNL     1       2.205   7.493  17.125  0.00  0.00    +0.000 OA
ATOM      5  C   UNL     1       2.140   6.365  19.222  0.00  0.00    +0.000 C 
ATOM      6  C   UNL     1       1.695   6.471  20.481  0.00  0.00    +0.000 C 
ATOM      7  O   UNL     1       1.650   5.391  21.351  0.00  0.00    +0.000 OA
ATOM      8  C   UNL     1       2.252   4.189  21.004  0.00  0.00    +0.000 C 
ATOM      9  C   UNL     1       2.760   4.002  19.771  0.00  0.00    +0.000 C 
ATOM     10  C   UNL     1       2.647   5.053  18.676  0.00  0.00    +0.000 C 
ATOM     11  C   UNL     1       1.192   7.763  21.019  0.00  0.00    +0.000 C 
ATOM     12  O   UNL     1       0.569   7.803  22.072  0.00  0.00    +0.000 OA
ENDROOT
BRANCH  10  13
ATOM     13  C   UNL     1       3.962   5.202  17.919  0.00  0.00    +0.000 A 
ATOM     14  C   UNL     1       4.088   4.681  16.618  0.00  0.00    +0.000 A 
ATOM     15  C   UNL     1       5.286   4.813  15.916  0.00  0.00    +0.000 A 
ATOM     16  C   UNL     1       6.384   5.458  16.488  0.00  0.00    +0.000 A 
ATOM     17  C   UNL     1       6.261   5.963  17.784  0.00  0.00    +0.000 A 
ATOM     18  F   UNL     1       7.275   6.582  18.403  0.00  0.00    +0.000 F 
ATOM     19  C   UNL     1       5.065   5.843  18.493  0.00  0.00    +0.000 A 
BRANCH  16  20
ATOM     20  O   UNL     1       7.487   5.521  15.681  0.00  0.00    +0.000 OA
ATOM     21  C   UNL     1       7.345   4.993  14.368  0.00  0.00    +0.000 C 
ENDBRANCH  16  20
ENDBRANCH  10  13
BRANCH   8  22
ATOM     22  N   UNL     1       2.265   3.274  22.025  0.00  0.00    +0.000 N 
ATOM     23  H   UNL     1       2.667   2.376  21.761  0.00  0.00    +0.000 HD
ATOM     24  H   UNL     1       1.432   3.201  22.601  0.00  0.00    +0.000 HD
ENDBRANCH   8  22
BRANCH   2  25
ATOM     25  O   UNL     1       2.173   9.997  18.198  0.00  0.00    +0.000 OA
ATOM     26  H   UNL     1       3.021  10.377  18.511  0.00  0.00    +0.000 HD
ENDBRANCH   2  25
BRANCH   9  27
ATOM     27  C   UNL     1       3.514   2.721  19.457  0.00  0.00    +0.000 C 
ATOM     28  N   UNL     1       4.141   1.658  19.197  0.00  0.00    +0.000 NA
ENDBRANCH   9  27
BRANCH   1  29
ATOM     29  C   UNL     1       1.210  10.320  20.903  0.00  0.00    +0.000 C 
BRANCH  29  30
ATOM     30  C   UNL     1      -0.182  10.448  21.518  0.00  0.00    +0.000 C 
BRANCH  30  31
ATOM     31  C   UNL     1      -0.693  11.884  21.612  0.00  0.00    +0.000 C 
BRANCH  31  32
ATOM     32  C   UNL     1       0.406  12.825  21.135  0.00  0.00    +0.000 C 
BRANCH  32  33
ATOM     33  C   UNL     1       0.119  13.372  19.748  0.00  0.00    +0.000 C 
BRANCH  33  34
ATOM     34  C   UNL     1      -1.260  12.915  19.286  0.00  0.00    +0.000 C 
BRANCH  34  35
ATOM     35  C   UNL     1      -1.156  12.216  17.939  0.00  0.00    +0.000 C 
BRANCH  35  36
ATOM     36  C   UNL     1      -1.256  10.703  18.093  0.00  0.00    +0.000 C 
BRANCH  36  37
ATOM     37  C   UNL     1      -2.160  10.132  17.007  0.00  0.00    +0.000 C 
BRANCH  37  39
ATOM     38  C   UNL     1      -4.458  11.117  16.962  0.00  0.00    +0.000 C 
ATOM     39  C   UNL     1      -3.596   9.988  17.495  0.00  0.00    +0.000 C 
ENDBRANCH  37  39
ENDBRANCH  36  37
ENDBRANCH  35  36
ENDBRANCH  34  35
ENDBRANCH  33  34
ENDBRANCH  32  33
ENDBRANCH  31  32
ENDBRANCH  30  31
ENDBRANCH  29  30
ENDBRANCH   1  29
TORSDOF 15
ENDMDL
MODEL 6
REMARK VINA RESULT:      -6.4      4.781     10.669
REMARK  Name = 
REMARK  17 active torsions:
REMARK  status: ('A' for Active; 'I' for Inactive)
REMARK    1  A    between atoms: C_1  and  C_2
REMARK    2  A    between atoms: C_2  and  C_3
REMARK    3  A    between atoms: C_3  and  C_4
REMARK    4  A    between atoms: C_4  and  C_5
REMARK    5  A    between atoms: C_5  and  C_6
REMARK    6  A    between atoms: C_6  and  C_7
REMARK    7  A    between atoms: C_7  and  C_8
REMARK    8  A    between atoms: C_8  and  C_9
REMARK    9  A    between atoms: C_9  and  C_10
REMARK   10  A    between atoms: C_10  and  C_11
REMARK   11  A    between atoms: C_11  and  C_12
REMARK   12  A    between atoms: C_13  and  O_14
REMARK   13  A    between atoms: C_20  and  N_21
REMARK   14  A    between atoms: C_22  and  C_23
REMARK   15  A    between atoms: C_25  and  C_26
REMARK   16  A    between atoms: C_29  and  O_30
REMARK   17  A    between atoms: O_30  and  C_31
REMARK                            x       y       z     vdW  Elec       q    Type
REMARK                         _______ _______ _______ _____ _____    ______ ____
ROOT
ATOM      1  C   UNL     1       0.593  10.754  18.381  0.00  0.00    +0.000 C 
ATOM      2  C   UNL     1      -0.742  10.786  18.466  0.00  0.00    +0.000 C 
ATOM      3  C   UNL     1      -1.461  12.035  18.829  0.00  0.00    +0.000 C 
ATOM      4  O   UNL     1      -2.663  12.113  18.605  0.00  0.00    +0.000 OA
ATOM      5  C   UNL     1      -0.681  13.120  19.458  0.00  0.00    +0.000 C 
ATOM      6  C   UNL     1       0.656  13.096  19.369  0.00  0.00    +0.000 C 
ATOM      7  O   UNL     1       1.457  14.104  19.886  0.00  0.00    +0.000 OA
ATOM      8  C   UNL     1       0.906  15.088  20.696  0.00  0.00    +0.000 C 
ATOM      9  C   UNL     1      -0.426  15.169  20.874  0.00  0.00    +0.000 C 
ATOM     10  C   UNL     1      -1.401  14.246  20.158  0.00  0.00    +0.000 C 
ATOM     11  C   UNL     1       1.367  11.989  18.676  0.00  0.00    +0.000 C 
ATOM     12  O   UNL     1       2.552  12.091  18.385  0.00  0.00    +0.000 OA
ENDROOT
BRANCH  10  13
ATOM     13  C   UNL     1      -2.485  13.748  21.108  0.00  0.00    +0.000 A 
ATOM     14  C   UNL     1      -3.797  14.245  20.999  0.00  0.00    +0.000 A 
ATOM     15  C   UNL     1      -4.797  13.794  21.862  0.00  0.00    +0.000 A 
ATOM     16  C   UNL     1      -4.518  12.849  22.850  0.00  0.00    +0.000 A 
ATOM     17  C   UNL     1      -3.213  12.366  22.964  0.00  0.00    +0.000 A 
ATOM     18  F   UNL     1      -2.866  11.468  23.896  0.00  0.00    +0.000 F 
ATOM     19  C   UNL     1      -2.206  12.804  22.102  0.00  0.00    +0.000 A 
BRANCH  16  20
ATOM     20  O   UNL     1      -5.596  12.494  23.615  0.00  0.00    +0.000 OA
ATOM     21  C   UNL     1      -6.732  13.347  23.545  0.00  0.00    +0.000 C 
ENDBRANCH  16  20
ENDBRANCH  10  13
BRANCH   8  22
ATOM     22  N   UNL     1       1.843  15.915  21.260  0.00  0.00    +0.000 N 
ATOM     23  H   UNL     1       2.734  15.918  20.767  0.00  0.00    +0.000 HD
ATOM     24  H   UNL     1       1.931  15.903  22.273  0.00  0.00    +0.000 HD
ENDBRANCH   8  22
BRANCH   2  25
ATOM     25  O   UNL     1      -1.517   9.687  18.133  0.00  0.00    +0.000 OA
ATOM     26  H   UNL     1      -2.248   9.663  18.787  0.00  0.00    +0.000 HD
ENDBRANCH   2  25
BRANCH   9  27
ATOM     27  C   UNL     1      -0.991  16.183  21.855  0.00  0.00    +0.000 C 
ATOM     28  N   UNL     1      -1.461  17.024  22.669  0.00  0.00    +0.000 NA
ENDBRANCH   9  27
BRANCH   1  29
ATOM     29  C   UNL     1       1.360   9.548  17.906  0.00  0.00    +0.000 C 
BRANCH  29  30
ATOM     30  C   UNL     1       1.813   8.590  19.006  0.00  0.00    +0.000 C 
BRANCH  30  31
ATOM     31  C   UNL     1       2.551   7.356  18.493  0.00  0.00    +0.000 C 
BRANCH  31  32
ATOM     32  C   UNL     1       2.576   6.308  19.599  0.00  0.00    +0.000 C 
BRANCH  32  33
ATOM     33  C   UNL     1       3.329   5.059  19.175  0.00  0.00    +0.000 C 
BRANCH  33  34
ATOM     34  C   UNL     1       2.453   4.211  18.259  0.00  0.00    +0.000 C 
BRANCH  34  35
ATOM     35  C   UNL     1       3.265   3.713  17.073  0.00  0.00    +0.000 C 
BRANCH  35  36
ATOM     36  C   UNL     1       4.738   4.074  17.222  0.00  0.00    +0.000 C 
BRANCH  36  37
ATOM     37  C   UNL     1       5.243   4.726  15.940  0.00  0.00    +0.000 C 
BRANCH  37  39
ATOM     38  C   UNL     1       6.008   6.789  17.129  0.00  0.00    +0.000 C 
ATOM     39  C   UNL     1       5.140   6.245  16.009  0.00  0.00    +0.000 C 
ENDBRANCH  37  39
ENDBRANCH  36  37
ENDBRANCH  35  36
ENDBRANCH  34  35
ENDBRANCH  33  34
ENDBRANCH  32  33
ENDBRANCH  31  32
ENDBRANCH  30  31
ENDBRANCH  29  30
ENDBRANCH   1  29
TORSDOF 15
ENDMDL
MODEL 7
REMARK VINA RESULT:      -6.4      4.829     10.400
REMARK  Name = 
REMARK  17 active torsions:
REMARK  status: ('A' for Active; 'I' for Inactive)
REMARK    1  A    between atoms: C_1  and  C_2
REMARK    2  A    between atoms: C_2  and  C_3
REMARK    3  A    between atoms: C_3  and  C_4
REMARK    4  A    between atoms: C_4  and  C_5
REMARK    5  A    between atoms: C_5  and  C_6
REMARK    6  A    between atoms: C_6  and  C_7
REMARK    7  A    between atoms: C_7  and  C_8
REMARK    8  A    between atoms: C_8  and  C_9
REMARK    9  A    between atoms: C_9  and  C_10
REMARK   10  A    between atoms: C_10  and  C_11
REMARK   11  A    between atoms: C_11  and  C_12
REMARK   12  A    between atoms: C_13  and  O_14
REMARK   13  A    between atoms: C_20  and  N_21
REMARK   14  A    between atoms: C_22  and  C_23
REMARK   15  A    between atoms: C_25  and  C_26
REMARK   16  A    between atoms: C_29  and  O_30
REMARK   17  A    between atoms: O_30  and  C_31
REMARK                            x       y       z     vdW  Elec       q    Type
REMARK                         _______ _______ _______ _____ _____    ______ ____
ROOT
ATOM      1  C   UNL     1       0.529  10.613  18.234  0.00  0.00    +0.000 C 
ATOM      2  C   UNL     1      -0.796  10.735  18.378  0.00  0.00    +0.000 C 
ATOM      3  C   UNL     1      -1.407  12.008  18.842  0.00  0.00    +0.000 C 
ATOM      4  O   UNL     1      -2.607  12.184  18.674  0.00  0.00    +0.000 OA
ATOM      5  C   UNL     1      -0.525  12.995  19.498  0.00  0.00    +0.000 C 
ATOM      6  C   UNL     1       0.802  12.882  19.350  0.00  0.00    +0.000 C 
ATOM      7  O   UNL     1       1.695  13.797  19.889  0.00  0.00    +0.000 OA
ATOM      8  C   UNL     1       1.250  14.768  20.776  0.00  0.00    +0.000 C 
ATOM      9  C   UNL     1      -0.066  14.932  21.016  0.00  0.00    +0.000 C 
ATOM     10  C   UNL     1      -1.133  14.126  20.291  0.00  0.00    +0.000 C 
ATOM     11  C   UNL     1       1.402  11.770  18.565  0.00  0.00    +0.000 C 
ATOM     12  O   UNL     1       2.580  11.804  18.231  0.00  0.00    +0.000 OA
ENDROOT
BRANCH  10  13
ATOM     13  C   UNL     1      -2.213  13.650  21.256  0.00  0.00    +0.000 A 
ATOM     14  C   UNL     1      -3.481  14.260  21.249  0.00  0.00    +0.000 A 
ATOM     15  C   UNL     1      -4.477  13.831  22.127  0.00  0.00    +0.000 A 
ATOM     16  C   UNL     1      -4.237  12.795  23.031  0.00  0.00    +0.000 A 
ATOM     17  C   UNL     1      -2.975  12.199  23.044  0.00  0.00    +0.000 A 
ATOM     18  F   UNL     1      -2.667  11.209  23.893  0.00  0.00    +0.000 F 
ATOM     19  C   UNL     1      -1.973  12.615  22.166  0.00  0.00    +0.000 A 
BRANCH  16  20
ATOM     20  O   UNL     1      -5.307  12.476  23.822  0.00  0.00    +0.000 OA
ATOM     21  C   UNL     1      -6.461  13.297  23.693  0.00  0.00    +0.000 C 
ENDBRANCH  16  20
ENDBRANCH  10  13
BRANCH   8  22
ATOM     22  N   UNL     1       2.266  15.490  21.346  0.00  0.00    +0.000 N 
ATOM     23  H   UNL     1       2.060  16.484  21.433  0.00  0.00    +0.000 HD
ATOM     24  H   UNL     1       3.214  15.289  21.040  0.00  0.00    +0.000 HD
ENDBRANCH   8  22
BRANCH   2  25
ATOM     25  O   UNL     1      -1.662   9.716  18.017  0.00  0.00    +0.000 OA
ATOM     26  H   UNL     1      -1.162   8.881  18.139  0.00  0.00    +0.000 HD
ENDBRANCH   2  25
BRANCH   9  27
ATOM     27  C   UNL     1      -0.516  15.924  22.076  0.00  0.00    +0.000 C 
ATOM     28  N   UNL     1      -0.891  16.745  22.956  0.00  0.00    +0.000 NA
ENDBRANCH   9  27
BRANCH   1  29
ATOM     29  C   UNL     1       1.187   9.386  17.658  0.00  0.00    +0.000 C 
BRANCH  29  30
ATOM     30  C   UNL     1       1.916   8.504  18.670  0.00  0.00    +0.000 C 
BRANCH  30  31
ATOM     31  C   UNL     1       2.859   7.483  18.041  0.00  0.00    +0.000 C 
BRANCH  31  32
ATOM     32  C   UNL     1       2.513   6.100  18.579  0.00  0.00    +0.000 C 
BRANCH  32  33
ATOM     33  C   UNL     1       2.885   5.955  20.044  0.00  0.00    +0.000 C 
BRANCH  33  34
ATOM     34  C   UNL     1       1.762   5.249  20.796  0.00  0.00    +0.000 C 
BRANCH  34  35
ATOM     35  C   UNL     1       1.021   4.304  19.863  0.00  0.00    +0.000 C 
BRANCH  35  36
ATOM     36  C   UNL     1       1.121   2.862  20.347  0.00  0.00    +0.000 C 
BRANCH  36  37
ATOM     37  C   UNL     1       1.724   1.990  19.252  0.00  0.00    +0.000 C 
BRANCH  37  39
ATOM     38  C   UNL     1       3.586   2.642  17.714  0.00  0.00    +0.000 C 
ATOM     39  C   UNL     1       3.227   2.214  19.124  0.00  0.00    +0.000 C 
ENDBRANCH  37  39
ENDBRANCH  36  37
ENDBRANCH  35  36
ENDBRANCH  34  35
ENDBRANCH  33  34
ENDBRANCH  32  33
ENDBRANCH  31  32
ENDBRANCH  30  31
ENDBRANCH  29  30
ENDBRANCH   1  29
TORSDOF 15
ENDMDL
MODEL 8
REMARK VINA RESULT:      -6.4      3.749      9.168
REMARK  Name = 
REMARK  17 active torsions:
REMARK  status: ('A' for Active; 'I' for Inactive)
REMARK    1  A    between atoms: C_1  and  C_2
REMARK    2  A    between atoms: C_2  and  C_3
REMARK    3  A    between atoms: C_3  and  C_4
REMARK    4  A    between atoms: C_4  and  C_5
REMARK    5  A    between atoms: C_5  and  C_6
REMARK    6  A    between atoms: C_6  and  C_7
REMARK    7  A    between atoms: C_7  and  C_8
REMARK    8  A    between atoms: C_8  and  C_9
REMARK    9  A    between atoms: C_9  and  C_10
REMARK   10  A    between atoms: C_10  and  C_11
REMARK   11  A    between atoms: C_11  and  C_12
REMARK   12  A    between atoms: C_13  and  O_14
REMARK   13  A    between atoms: C_20  and  N_21
REMARK   14  A    between atoms: C_22  and  C_23
REMARK   15  A    between atoms: C_25  and  C_26
REMARK   16  A    between atoms: C_29  and  O_30
REMARK   17  A    between atoms: O_30  and  C_31
REMARK                            x       y       z     vdW  Elec       q    Type
REMARK                         _______ _______ _______ _____ _____    ______ ____
ROOT
ATOM      1  C   UNL     1       1.890   7.794  20.250  0.00  0.00    +0.000 C 
ATOM      2  C   UNL     1       1.677   8.248  19.009  0.00  0.00    +0.000 C 
ATOM      3  C   UNL     1       1.066   9.581  18.771  0.00  0.00    +0.000 C 
ATOM      4  O   UNL     1       1.162  10.087  17.659  0.00  0.00    +0.000 OA
ATOM      5  C   UNL     1       0.357  10.224  19.897  0.00  0.00    +0.000 C 
ATOM      6  C   UNL     1       0.573   9.779  21.142  0.00  0.00    +0.000 C 
ATOM      7  O   UNL     1      -0.012  10.362  22.256  0.00  0.00    +0.000 OA
ATOM      8  C   UNL     1      -1.008  11.317  22.103  0.00  0.00    +0.000 C 
ATOM      9  C   UNL     1      -1.320  11.799  20.885  0.00  0.00    +0.000 C 
ATOM     10  C   UNL     1      -0.568  11.386  19.628  0.00  0.00    +0.000 C 
ATOM     11  C   UNL     1       1.488   8.636  21.408  0.00  0.00    +0.000 C 
ATOM     12  O   UNL     1       1.869   8.391  22.546  0.00  0.00    +0.000 OA
ENDROOT
BRANCH  10  13
ATOM     13  C   UNL     1      -1.530  11.115  18.476  0.00  0.00    +0.000 A 
ATOM     14  C   UNL     1      -1.556  11.978  17.365  0.00  0.00    +0.000 A 
ATOM     15  C   UNL     1      -2.430  11.738  16.304  0.00  0.00    +0.000 A 
ATOM     16  C   UNL     1      -3.298  10.645  16.325  0.00  0.00    +0.000 A 
ATOM     17  C   UNL     1      -3.279   9.798  17.433  0.00  0.00    +0.000 A 
ATOM     18  F   UNL     1      -4.092   8.737  17.530  0.00  0.00    +0.000 F 
ATOM     19  C   UNL     1      -2.404  10.023  18.497  0.00  0.00    +0.000 A 
BRANCH  16  20
ATOM     20  O   UNL     1      -4.090  10.531  15.214  0.00  0.00    +0.000 OA
ATOM     21  C   UNL     1      -3.464  10.043  14.034  0.00  0.00    +0.000 C 
ENDBRANCH  16  20
ENDBRANCH  10  13
BRANCH   8  22
ATOM     22  N   UNL     1      -1.600  11.680  23.285  0.00  0.00    +0.000 N 
ATOM     23  H   UNL     1      -1.000  11.548  24.098  0.00  0.00    +0.000 HD
ATOM     24  H   UNL     1      -2.565  11.398  23.433  0.00  0.00    +0.000 HD
ENDBRANCH   8  22
BRANCH   2  25
ATOM     25  O   UNL     1       2.097   7.539  17.896  0.00  0.00    +0.000 OA
ATOM     26  H   UNL     1       3.069   7.664  17.846  0.00  0.00    +0.000 HD
ENDBRANCH   2  25
BRANCH   9  27
ATOM     27  C   UNL     1      -2.490  12.757  20.735  0.00  0.00    +0.000 C 
ATOM     28  N   UNL     1      -3.462  13.551  20.611  0.00  0.00    +0.000 NA
ENDBRANCH   9  27
BRANCH   1  29
ATOM     29  C   UNL     1       2.611   6.504  20.544  0.00  0.00    +0.000 C 
BRANCH  29  30
ATOM     30  C   UNL     1       1.716   5.272  20.662  0.00  0.00    +0.000 C 
BRANCH  30  31
ATOM     31  C   UNL     1       2.290   4.020  20.004  0.00  0.00    +0.000 C 
BRANCH  31  32
ATOM     32  C   UNL     1       2.500   4.300  18.521  0.00  0.00    +0.000 C 
BRANCH  32  33
ATOM     33  C   UNL     1       3.733   3.597  17.982  0.00  0.00    +0.000 C 
BRANCH  33  34
ATOM     34  C   UNL     1       4.983   4.155  18.654  0.00  0.00    +0.000 C 
BRANCH  34  35
ATOM     35  C   UNL     1       5.244   5.575  18.176  0.00  0.00    +0.000 C 
BRANCH  35  36
ATOM     36  C   UNL     1       6.714   5.779  17.832  0.00  0.00    +0.000 C 
BRANCH  36  37
ATOM     37  C   UNL     1       7.224   4.594  17.019  0.00  0.00    +0.000 C 
BRANCH  37  39
ATOM     38  C   UNL     1       6.043   3.906  14.925  0.00  0.00    +0.000 C 
ATOM     39  C   UNL     1       7.078   4.841  15.522  0.00  0.00    +0.000 C 
ENDBRANCH  37  39
ENDBRANCH  36  37
ENDBRANCH  35  36
ENDBRANCH  34  35
ENDBRANCH  33  34
ENDBRANCH  32  33
ENDBRANCH  31  32
ENDBRANCH  30  31
ENDBRANCH  29  30
ENDBRANCH   1  29
TORSDOF 15
ENDMDL
MODEL 9
REMARK VINA RESULT:      -6.3      5.294     10.503
REMARK  Name = 
REMARK  17 active torsions:
REMARK  status: ('A' for Active; 'I' for Inactive)
REMARK    1  A    between atoms: C_1  and  C_2
REMARK    2  A    between atoms: C_2  and  C_3
REMARK    3  A    between atoms: C_3  and  C_4
REMARK    4  A    between atoms: C_4  and  C_5
REMARK    5  A    between atoms: C_5  and  C_6
REMARK    6  A    between atoms: C_6  and  C_7
REMARK    7  A    between atoms: C_7  and  C_8
REMARK    8  A    between atoms: C_8  and  C_9
REMARK    9  A    between atoms: C_9  and  C_10
REMARK   10  A    between atoms: C_10  and  C_11
REMARK   11  A    between atoms: C_11  and  C_12
REMARK   12  A    between atoms: C_13  and  O_14
REMARK   13  A    between atoms: C_20  and  N_21
REMARK   14  A    between atoms: C_22  and  C_23
REMARK   15  A    between atoms: C_25  and  C_26
REMARK   16  A    between atoms: C_29  and  O_30
REMARK   17  A    between atoms: O_30  and  C_31
REMARK                            x       y       z     vdW  Elec       q    Type
REMARK                         _______ _______ _______ _____ _____    ______ ____
ROOT
ATOM      1  C   UNL     1       0.333  10.598  19.615  0.00  0.00    +0.000 C 
ATOM      2  C   UNL     1       0.538  10.933  20.895  0.00  0.00    +0.000 C 
ATOM      3  C   UNL     1      -0.579  11.400  21.757  0.00  0.00    +0.000 C 
ATOM      4  O   UNL     1      -0.425  11.406  22.973  0.00  0.00    +0.000 OA
ATOM      5  C   UNL     1      -1.820  11.848  21.093  0.00  0.00    +0.000 C 
ATOM      6  C   UNL     1      -2.033  11.508  19.815  0.00  0.00    +0.000 C 
ATOM      7  O   UNL     1      -3.196  11.844  19.137  0.00  0.00    +0.000 OA
ATOM      8  C   UNL     1      -4.107  12.723  19.705  0.00  0.00    +0.000 C 
ATOM      9  C   UNL     1      -3.956  13.148  20.974  0.00  0.00    +0.000 C 
ATOM     10  C   UNL     1      -2.834  12.649  21.873  0.00  0.00    +0.000 C 
ATOM     11  C   UNL     1      -1.036  10.716  19.047  0.00  0.00    +0.000 C 
ATOM     12  O   UNL     1      -1.334  10.204  17.975  0.00  0.00    +0.000 OA
ENDROOT
BRANCH  10  13
ATOM     13  C   UNL     1      -2.201  13.796  22.652  0.00  0.00    +0.000 A 
ATOM     14  C   UNL     1      -1.389  14.733  21.987  0.00  0.00    +0.000 A 
ATOM     15  C   UNL     1      -0.806  15.789  22.690  0.00  0.00    +0.000 A 
ATOM     16  C   UNL     1      -1.011  15.934  24.063  0.00  0.00    +0.000 A 
ATOM     17  C   UNL     1      -1.808  14.996  24.723  0.00  0.00    +0.000 A 
ATOM     18  F   UNL     1      -2.039  15.063  26.041  0.00  0.00    +0.000 F 
ATOM     19  C   UNL     1      -2.402  13.941  24.029  0.00  0.00    +0.000 A 
BRANCH  16  20
ATOM     20  O   UNL     1      -0.387  17.018  24.617  0.00  0.00    +0.000 OA
ATOM     21  C   UNL     1      -1.203  18.149  24.894  0.00  0.00    +0.000 C 
ENDBRANCH  16  20
ENDBRANCH  10  13
BRANCH   8  22
ATOM     22  N   UNL     1      -5.120  13.083  18.854  0.00  0.00    +0.000 N 
ATOM     23  H   UNL     1      -4.902  12.923  17.872  0.00  0.00    +0.000 HD
ATOM     24  H   UNL     1      -5.594  13.963  19.034  0.00  0.00    +0.000 HD
ENDBRANCH   8  22
BRANCH   2  25
ATOM     25  O   UNL     1       1.775  10.776  21.497  0.00  0.00    +0.000 OA
ATOM     26  H   UNL     1       1.721   9.942  22.012  0.00  0.00    +0.000 HD
ENDBRANCH   2  25
BRANCH   9  27
ATOM     27  C   UNL     1      -4.904  14.198  21.531  0.00  0.00    +0.000 C 
ATOM     28  N   UNL     1      -5.691  15.068  21.993  0.00  0.00    +0.000 NA
ENDBRANCH   9  27
BRANCH   1  29
ATOM     29  C   UNL     1       1.405  10.011  18.735  0.00  0.00    +0.000 C 
BRANCH  29  30
ATOM     30  C   UNL     1       1.773   8.560  19.039  0.00  0.00    +0.000 C 
BRANCH  30  31
ATOM     31  C   UNL     1       2.110   7.730  17.804  0.00  0.00    +0.000 C 
BRANCH  31  32
ATOM     32  C   UNL     1       3.617   7.506  17.762  0.00  0.00    +0.000 C 
BRANCH  32  33
ATOM     33  C   UNL     1       3.966   6.094  17.324  0.00  0.00    +0.000 C 
BRANCH  33  34
ATOM     34  C   UNL     1       3.744   5.124  18.479  0.00  0.00    +0.000 C 
BRANCH  34  35
ATOM     35  C   UNL     1       3.249   3.786  17.951  0.00  0.00    +0.000 C 
BRANCH  35  36
ATOM     36  C   UNL     1       1.782   3.564  18.300  0.00  0.00    +0.000 C 
BRANCH  36  37
ATOM     37  C   UNL     1       1.439   4.305  19.587  0.00  0.00    +0.000 C 
BRANCH  37  39
ATOM     38  C   UNL     1       2.261   2.893  21.481  0.00  0.00    +0.000 C 
ATOM     39  C   UNL     1       1.041   3.339  20.697  0.00  0.00    +0.000 C 
ENDBRANCH  37  39
ENDBRANCH  36  37
ENDBRANCH  35  36
ENDBRANCH  34  35
ENDBRANCH  33  34
ENDBRANCH  32  33
ENDBRANCH  31  32
ENDBRANCH  30  31
ENDBRANCH  29  30
ENDBRANCH   1  29
TORSDOF 15
ENDMDL
