MODEL 1
REMARK VINA RESULT:      -6.8      0.000      0.000
REMARK  Name = 
REMARK  11 active torsions:
REMARK  status: ('A' for Active; 'I' for Inactive)
REMARK    1  A    between atoms: C_1  and  C_2
REMARK    2  A    between atoms: C_2  and  C_3
REMARK    3  A    between atoms: C_3  and  C_4
REMARK    4  A    between atoms: C_4  and  N_5
REMARK    5  A    between atoms: C_6  and  N_7
REMARK    6  A    between atoms: C_8  and  N_9
REMARK    7  A    between atoms: N_9  and  C_10
REMARK    8  A    between atoms: C_10  and  C_11
REMARK    9  A    between atoms: C_11  and  O_12
REMARK   10  A    between atoms: O_12  and  C_13
REMARK   11  A    between atoms: C_14  and  C_16
REMARK                            x       y       z     vdW  Elec       q    Type
REMARK                         _______ _______ _______ _____ _____    ______ ____
ROOT
ATOM      1  N   UNL     1       4.326   4.272  16.786  0.00  0.00    +0.000 N 
ATOM      2  C   UNL     1       2.938   4.137  17.131  0.00  0.00    +0.000 C 
ATOM      3  O   UNL     1       2.155   3.563  16.377  0.00  0.00    +0.000 OA
ENDROOT
BRANCH   2   4
ATOM      4  C   UNL     1       2.379   4.618  18.451  0.00  0.00    +0.000 A 
ATOM      5  C   UNL     1       2.215   3.697  19.465  0.00  0.00    +0.000 A 
ATOM      6  C   UNL     1       1.866   4.095  20.725  0.00  0.00    +0.000 A 
ATOM      7 CL   UNL     1       1.714   2.943  21.984  0.00  0.00    +0.000 Cl
ATOM      8  N   UNL     1       1.704   5.370  21.067  0.00  0.00    +0.000 NA
ATOM      9  C   UNL     1       1.829   6.273  20.089  0.00  0.00    +0.000 A 
ATOM     10  C   UNL     1       1.874   7.591  20.488  0.00  0.00    +0.000 A 
ATOM     11  C   UNL     1       2.053   8.617  19.569  0.00  0.00    +0.000 A 
ATOM     12  C   UNL     1       1.914   8.350  18.216  0.00  0.00    +0.000 A 
ATOM     13  C   UNL     1       1.912   7.025  17.786  0.00  0.00    +0.000 A 
ATOM     14  C   UNL     1       2.029   5.964  18.721  0.00  0.00    +0.000 A 
ENDBRANCH   2   4
BRANCH   1  17
ATOM     15  N   UNL     1       7.070   6.682  17.745  0.00  0.00    +0.000 N 
ATOM     16  C   UNL     1       5.949   6.143  17.076  0.00  0.00    +0.000 A 
ATOM     17  C   UNL     1       5.325   5.004  17.526  0.00  0.00    +0.000 A 
ATOM     18  C   UNL     1       5.939   4.383  18.765  0.00  0.00    +0.000 A 
ATOM     19  O   UNL     1       5.680   3.229  19.099  0.00  0.00    +0.000 OA
ATOM     20  N   UNL     1       6.805   5.138  19.474  0.00  0.00    +0.000 N 
ATOM     21  C   UNL     1       7.510   6.207  18.973  0.00  0.00    +0.000 A 
ATOM     22  O   UNL     1       8.475   6.641  19.591  0.00  0.00    +0.000 OA
ATOM     23  H   UNL     1       7.216   4.724  20.283  0.00  0.00    +0.000 HD
BRANCH  16  24
ATOM     24  N   UNL     1       5.568   6.716  15.857  0.00  0.00    +0.000 N 
ATOM     25  H   UNL     1       6.374   7.159  15.422  0.00  0.00    +0.000 HD
ATOM     26  H   UNL     1       5.360   5.977  15.189  0.00  0.00    +0.000 HD
ENDBRANCH  16  24
BRANCH  15  27
ATOM     27  C   UNL     1       7.873   7.779  17.162  0.00  0.00    +0.000 C 
BRANCH  27  28
ATOM     28  C   UNL     1       7.647   9.105  17.897  0.00  0.00    +0.000 C 
BRANCH  28  30
ATOM     29  C   UNL     1       9.225  10.262  19.472  0.00  0.00    +0.000 C 
ATOM     30  C   UNL     1       8.919   9.947  18.015  0.00  0.00    +0.000 C 
ENDBRANCH  28  30
ENDBRANCH  27  28
ENDBRANCH  15  27
ENDBRANCH   1  17
BRANCH   1  31
ATOM     31  C   UNL     1       4.686   3.610  15.484  0.00  0.00    +0.000 C 
BRANCH  31  32
ATOM     32  C   UNL     1       6.201   3.605  15.120  0.00  0.00    +0.000 C 
BRANCH  32  33
ATOM     33  O   UNL     1       6.564   4.374  13.954  0.00  0.00    +0.000 OA
ATOM     34  C   UNL     1       6.419   3.680  12.718  0.00  0.00    +0.000 C 
ENDBRANCH  32  33
ENDBRANCH  31  32
ENDBRANCH   1  31
TORSDOF 9
ENDMDL
MODEL 2
REMARK VINA RESULT:      -6.7      2.537      4.414
REMARK  Name = 
REMARK  11 active torsions:
REMARK  status: ('A' for Active; 'I' for Inactive)
REMARK    1  A    between atoms: C_1  and  C_2
REMARK    2  A    between atoms: C_2  and  C_3
REMARK    3  A    between atoms: C_3  and  C_4
REMARK    4  A    between atoms: C_4  and  N_5
REMARK    5  A    between atoms: C_6  and  N_7
REMARK    6  A    between atoms: C_8  and  N_9
REMARK    7  A    between atoms: N_9  and  C_10
REMARK    8  A    between atoms: C_10  and  C_11
REMARK    9  A    between atoms: C_11  and  O_12
REMARK   10  A    between atoms: O_12  and  C_13
REMARK   11  A    between atoms: C_14  and  C_16
REMARK                            x       y       z     vdW  Elec       q    Type
REMARK                         _______ _______ _______ _____ _____    ______ ____
ROOT
ATOM      1  N   UNL     1       3.445   3.850  19.821  0.00  0.00    +0.000 N 
ATOM      2  C   UNL     1       2.634   4.961  20.236  0.00  0.00    +0.000 C 
ATOM      3  O   UNL     1       1.915   4.879  21.231  0.00  0.00    +0.000 OA
ENDROOT
BRANCH   2   4
ATOM      4  C   UNL     1       2.667   6.299  19.532  0.00  0.00    +0.000 A 
ATOM      5  C   UNL     1       3.389   6.402  18.361  0.00  0.00    +0.000 A 
ATOM      6  C   UNL     1       3.329   7.534  17.597  0.00  0.00    +0.000 A 
ATOM      7 CL   UNL     1       4.194   7.626  16.122  0.00  0.00    +0.000 Cl
ATOM      8  N   UNL     1       2.558   8.574  17.898  0.00  0.00    +0.000 NA
ATOM      9  C   UNL     1       1.875   8.503  19.046  0.00  0.00    +0.000 A 
ATOM     10  C   UNL     1       0.923   9.479  19.241  0.00  0.00    +0.000 A 
ATOM     11  C   UNL     1       0.114   9.481  20.371  0.00  0.00    +0.000 A 
ATOM     12  C   UNL     1       0.440   8.664  21.442  0.00  0.00    +0.000 A 
ATOM     13  C   UNL     1       1.367   7.642  21.254  0.00  0.00    +0.000 A 
ATOM     14  C   UNL     1       1.985   7.453  19.989  0.00  0.00    +0.000 A 
ENDBRANCH   2   4
BRANCH   1  17
ATOM     15  N   UNL     1       6.189   4.346  17.275  0.00  0.00    +0.000 N 
ATOM     16  C   UNL     1       5.537   4.247  18.525  0.00  0.00    +0.000 A 
ATOM     17  C   UNL     1       4.250   3.777  18.627  0.00  0.00    +0.000 A 
ATOM     18  C   UNL     1       3.599   3.396  17.311  0.00  0.00    +0.000 A 
ATOM     19  O   UNL     1       2.383   3.247  17.217  0.00  0.00    +0.000 OA
ATOM     20  N   UNL     1       4.406   3.255  16.237  0.00  0.00    +0.000 N 
ATOM     21  C   UNL     1       5.648   3.831  16.105  0.00  0.00    +0.000 A 
ATOM     22  O   UNL     1       6.173   3.892  15.000  0.00  0.00    +0.000 OA
ATOM     23  H   UNL     1       3.975   3.015  15.371  0.00  0.00    +0.000 HD
BRANCH  16  24
ATOM     24  N   UNL     1       6.184   4.773  19.650  0.00  0.00    +0.000 N 
ATOM     25  H   UNL     1       7.027   4.238  19.839  0.00  0.00    +0.000 HD
ATOM     26  H   UNL     1       6.571   5.685  19.419  0.00  0.00    +0.000 HD
ENDBRANCH  16  24
BRANCH  15  27
ATOM     27  C   UNL     1       7.487   5.039  17.124  0.00  0.00    +0.000 C 
BRANCH  27  28
ATOM     28  C   UNL     1       7.315   6.558  17.027  0.00  0.00    +0.000 C 
BRANCH  28  30
ATOM     29  C   UNL     1       8.117   8.785  17.869  0.00  0.00    +0.000 C 
ATOM     30  C   UNL     1       7.953   7.308  18.198  0.00  0.00    +0.000 C 
ENDBRANCH  28  30
ENDBRANCH  27  28
ENDBRANCH  15  27
ENDBRANCH   1  17
BRANCH   1  31
ATOM     31  C   UNL     1       3.349   2.663  20.739  0.00  0.00    +0.000 C 
BRANCH  31  32
ATOM     32  C   UNL     1       4.459   1.582  20.572  0.00  0.00    +0.000 C 
BRANCH  32  33
ATOM     33  O   UNL     1       5.444   1.532  21.627  0.00  0.00    +0.000 OA
ATOM     34  C   UNL     1       5.911   0.224  21.940  0.00  0.00    +0.000 C 
ENDBRANCH  32  33
ENDBRANCH  31  32
ENDBRANCH   1  31
TORSDOF 9
ENDMDL
MODEL 3
REMARK VINA RESULT:      -6.5      8.049     11.628
REMARK  Name = 
REMARK  11 active torsions:
REMARK  status: ('A' for Active; 'I' for Inactive)
REMARK    1  A    between atoms: C_1  and  C_2
REMARK    2  A    between atoms: C_2  and  C_3
REMARK    3  A    between atoms: C_3  and  C_4
REMARK    4  A    between atoms: C_4  and  N_5
REMARK    5  A    between atoms: C_6  and  N_7
REMARK    6  A    between atoms: C_8  and  N_9
REMARK    7  A    between atoms: N_9  and  C_10
REMARK    8  A    between atoms: C_10  and  C_11
REMARK    9  A    between atoms: C_11  and  O_12
REMARK   10  A    between atoms: O_12  and  C_13
REMARK   11  A    between atoms: C_14  and  C_16
REMARK                            x       y       z     vdW  Elec       q    Type
REMARK                         _______ _______ _______ _____ _____    ______ ____
ROOT
ATOM      1  N   UNL     1      -0.419  12.372  20.827  0.00  0.00    +0.000 N 
ATOM      2  C   UNL     1       0.134  13.676  21.061  0.00  0.00    +0.000 C 
ATOM      3  O   UNL     1       0.514  14.007  22.183  0.00  0.00    +0.000 OA
ENDROOT
BRANCH   2   4
ATOM      4  C   UNL     1       0.346  14.680  19.950  0.00  0.00    +0.000 A 
ATOM      5  C   UNL     1      -0.619  15.646  19.751  0.00  0.00    +0.000 A 
ATOM      6  C   UNL     1      -0.413  16.673  18.873  0.00  0.00    +0.000 A 
ATOM      7 CL   UNL     1      -1.602  17.890  18.674  0.00  0.00    +0.000 Cl
ATOM      8  N   UNL     1       0.719  16.835  18.196  0.00  0.00    +0.000 NA
ATOM      9  C   UNL     1       1.653  15.891  18.354  0.00  0.00    +0.000 A 
ATOM     10  C   UNL     1       2.892  16.175  17.824  0.00  0.00    +0.000 A 
ATOM     11  C   UNL     1       3.957  15.295  17.969  0.00  0.00    +0.000 A 
ATOM     12  C   UNL     1       3.716  14.003  18.409  0.00  0.00    +0.000 A 
ATOM     13  C   UNL     1       2.486  13.705  18.990  0.00  0.00    +0.000 A 
ATOM     14  C   UNL     1       1.486  14.706  19.110  0.00  0.00    +0.000 A 
ENDBRANCH   2   4
BRANCH   1  17
ATOM     15  N   UNL     1      -2.844  11.474  18.076  0.00  0.00    +0.000 N 
ATOM     16  C   UNL     1      -2.276  12.150  19.178  0.00  0.00    +0.000 A 
ATOM     17  C   UNL     1      -0.991  11.893  19.593  0.00  0.00    +0.000 A 
ATOM     18  C   UNL     1      -0.259  10.834  18.791  0.00  0.00    +0.000 A 
ATOM     19  O   UNL     1       0.762  10.300  19.219  0.00  0.00    +0.000 OA
ATOM     20  N   UNL     1      -0.787  10.479  17.601  0.00  0.00    +0.000 N 
ATOM     21  C   UNL     1      -2.107  10.640  17.247  0.00  0.00    +0.000 A 
ATOM     22  O   UNL     1      -2.554  10.033  16.281  0.00  0.00    +0.000 OA
ATOM     23  H   UNL     1      -0.310   9.775  17.081  0.00  0.00    +0.000 HD
BRANCH  16  24
ATOM     24  N   UNL     1      -3.101  12.993  19.933  0.00  0.00    +0.000 N 
ATOM     25  H   UNL     1      -3.134  12.666  20.895  0.00  0.00    +0.000 HD
ATOM     26  H   UNL     1      -2.646  13.897  20.043  0.00  0.00    +0.000 HD
ENDBRANCH  16  24
BRANCH  15  27
ATOM     27  C   UNL     1      -4.283  11.586  17.748  0.00  0.00    +0.000 C 
BRANCH  27  28
ATOM     28  C   UNL     1      -5.101  10.453  18.373  0.00  0.00    +0.000 C 
BRANCH  28  30
ATOM     29  C   UNL     1      -6.746  11.627  19.865  0.00  0.00    +0.000 C 
ATOM     30  C   UNL     1      -6.570  10.822  18.585  0.00  0.00    +0.000 C 
ENDBRANCH  28  30
ENDBRANCH  27  28
ENDBRANCH  15  27
ENDBRANCH   1  17
BRANCH   1  31
ATOM     31  C   UNL     1      -0.420  11.494  22.048  0.00  0.00    +0.000 C 
BRANCH  31  32
ATOM     32  C   UNL     1      -1.746  11.466  22.865  0.00  0.00    +0.000 C 
BRANCH  32  33
ATOM     33  O   UNL     1      -2.471  12.714  22.919  0.00  0.00    +0.000 OA
ATOM     34  C   UNL     1      -3.750  12.630  23.541  0.00  0.00    +0.000 C 
ENDBRANCH  32  33
ENDBRANCH  31  32
ENDBRANCH   1  31
TORSDOF 9
ENDMDL
MODEL 4
REMARK VINA RESULT:      -6.4      7.662     11.238
REMARK  Name = 
REMARK  11 active torsions:
REMARK  status: ('A' for Active; 'I' for Inactive)
REMARK    1  A    between atoms: C_1  and  C_2
REMARK    2  A    between atoms: C_2  and  C_3
REMARK    3  A    between atoms: C_3  and  C_4
REMARK    4  A    between atoms: C_4  and  N_5
REMARK    5  A    between atoms: C_6  and  N_7
REMARK    6  A    between atoms: C_8  and  N_9
REMARK    7  A    between atoms: N_9  and  C_10
REMARK    8  A    between atoms: C_10  and  C_11
REMARK    9  A    between atoms: C_11  and  O_12
REMARK   10  A    between atoms: O_12  and  C_13
REMARK   11  A    between atoms: C_14  and  C_16
REMARK                            x       y       z     vdW  Elec       q    Type
REMARK                         _______ _______ _______ _____ _____    ______ ____
ROOT
ATOM      1  N   UNL     1      -0.838  12.060  20.561  0.00  0.00    +0.000 N 
ATOM      2  C   UNL     1      -0.172  13.279  20.924  0.00  0.00    +0.000 C 
ATOM      3  O   UNL     1       0.261  13.445  22.063  0.00  0.00    +0.000 OA
ENDROOT
BRANCH   2   4
ATOM      4  C   UNL     1       0.098  14.385  19.928  0.00  0.00    +0.000 A 
ATOM      5  C   UNL     1      -0.830  15.400  19.812  0.00  0.00    +0.000 A 
ATOM      6  C   UNL     1      -0.570  16.504  19.051  0.00  0.00    +0.000 A 
ATOM      7 CL   UNL     1      -1.713  17.776  18.957  0.00  0.00    +0.000 Cl
ATOM      8  N   UNL     1       0.582  16.696  18.417  0.00  0.00    +0.000 NA
ATOM      9  C   UNL     1       1.481  15.708  18.493  0.00  0.00    +0.000 A 
ATOM     10  C   UNL     1       2.741  16.003  18.020  0.00  0.00    +0.000 A 
ATOM     11  C   UNL     1       3.773  15.075  18.092  0.00  0.00    +0.000 A 
ATOM     12  C   UNL     1       3.479  13.753  18.390  0.00  0.00    +0.000 A 
ATOM     13  C   UNL     1       2.227  13.441  18.913  0.00  0.00    +0.000 A 
ATOM     14  C   UNL     1       1.258  14.457  19.117  0.00  0.00    +0.000 A 
ENDBRANCH   2   4
BRANCH   1  17
ATOM     15  N   UNL     1      -3.411  11.587  17.839  0.00  0.00    +0.000 N 
ATOM     16  C   UNL     1      -2.783  12.087  19.001  0.00  0.00    +0.000 A 
ATOM     17  C   UNL     1      -1.478  11.776  19.300  0.00  0.00    +0.000 A 
ATOM     18  C   UNL     1      -0.792  10.860  18.304  0.00  0.00    +0.000 A 
ATOM     19  O   UNL     1       0.250  10.273  18.587  0.00  0.00    +0.000 OA
ATOM     20  N   UNL     1      -1.385  10.693  17.103  0.00  0.00    +0.000 N 
ATOM     21  C   UNL     1      -2.721  10.898  16.850  0.00  0.00    +0.000 A 
ATOM     22  O   UNL     1      -3.221  10.446  15.827  0.00  0.00    +0.000 OA
ATOM     23  H   UNL     1      -0.938  10.082  16.454  0.00  0.00    +0.000 HD
BRANCH  16  24
ATOM     24  N   UNL     1      -3.564  12.796  19.921  0.00  0.00    +0.000 N 
ATOM     25  H   UNL     1      -4.355  12.225  20.208  0.00  0.00    +0.000 HD
ATOM     26  H   UNL     1      -3.052  12.886  20.797  0.00  0.00    +0.000 HD
ENDBRANCH  16  24
BRANCH  15  27
ATOM     27  C   UNL     1      -4.865  11.740  17.610  0.00  0.00    +0.000 C 
BRANCH  27  28
ATOM     28  C   UNL     1      -5.668  10.617  18.275  0.00  0.00    +0.000 C 
BRANCH  28  30
ATOM     29  C   UNL     1      -7.348  12.479  18.414  0.00  0.00    +0.000 C 
ATOM     30  C   UNL     1      -6.943  11.116  18.958  0.00  0.00    +0.000 C 
ENDBRANCH  28  30
ENDBRANCH  27  28
ENDBRANCH  15  27
ENDBRANCH   1  17
BRANCH   1  31
ATOM     31  C   UNL     1      -0.884  11.049  21.674  0.00  0.00    +0.000 C 
BRANCH  31  32
ATOM     32  C   UNL     1       0.372  10.139  21.819  0.00  0.00    +0.000 C 
BRANCH  32  33
ATOM     33  O   UNL     1       0.157   8.734  21.568  0.00  0.00    +0.000 OA
ATOM     34  C   UNL     1       1.288   8.046  21.041  0.00  0.00    +0.000 C 
ENDBRANCH  32  33
ENDBRANCH  31  32
ENDBRANCH   1  31
TORSDOF 9
ENDMDL
MODEL 5
REMARK VINA RESULT:      -6.2      2.415      4.320
REMARK  Name = 
REMARK  11 active torsions:
REMARK  status: ('A' for Active; 'I' for Inactive)
REMARK    1  A    between atoms: C_1  and  C_2
REMARK    2  A    between atoms: C_2  and  C_3
REMARK    3  A    between atoms: C_3  and  C_4
REMARK    4  A    between atoms: C_4  and  N_5
REMARK    5  A    between atoms: C_6  and  N_7
REMARK    6  A    between atoms: C_8  and  N_9
REMARK    7  A    between atoms: N_9  and  C_10
REMARK    8  A    between atoms: C_10  and  C_11
REMARK    9  A    between atoms: C_11  and  O_12
REMARK   10  A    between atoms: O_12  and  C_13
REMARK   11  A    between atoms: C_14  and  C_16
REMARK                            x       y       z     vdW  Elec       q    Type
REMARK                         _______ _______ _______ _____ _____    ______ ____
ROOT
ATOM      1  N   UNL     1       3.476   4.039  19.799  0.00  0.00    +0.000 N 
ATOM      2  C   UNL     1       2.601   5.145  20.071  0.00  0.00    +0.000 C 
ATOM      3  O   UNL     1       1.786   5.092  20.990  0.00  0.00    +0.000 OA
ENDROOT
BRANCH   2   4
ATOM      4  C   UNL     1       2.677   6.448  19.306  0.00  0.00    +0.000 A 
ATOM      5  C   UNL     1       3.419   6.480  18.143  0.00  0.00    +0.000 A 
ATOM      6  C   UNL     1       3.396   7.575  17.326  0.00  0.00    +0.000 A 
ATOM      7 CL   UNL     1       4.285   7.578  15.862  0.00  0.00    +0.000 Cl
ATOM      8  N   UNL     1       2.645   8.645  17.565  0.00  0.00    +0.000 NA
ATOM      9  C   UNL     1       1.944   8.644  18.704  0.00  0.00    +0.000 A 
ATOM     10  C   UNL     1       1.012   9.649  18.838  0.00  0.00    +0.000 A 
ATOM     11  C   UNL     1       0.187   9.723  19.954  0.00  0.00    +0.000 A 
ATOM     12  C   UNL     1       0.478   8.950  21.067  0.00  0.00    +0.000 A 
ATOM     13  C   UNL     1       1.383   7.899  20.942  0.00  0.00    +0.000 A 
ATOM     14  C   UNL     1       2.015   7.637  19.698  0.00  0.00    +0.000 A 
ENDBRANCH   2   4
BRANCH   1  17
ATOM     15  N   UNL     1       6.439   4.514  17.506  0.00  0.00    +0.000 N 
ATOM     16  C   UNL     1       5.669   4.463  18.690  0.00  0.00    +0.000 A 
ATOM     17  C   UNL     1       4.402   3.930  18.698  0.00  0.00    +0.000 A 
ATOM     18  C   UNL     1       3.909   3.425  17.356  0.00  0.00    +0.000 A 
ATOM     19  O   UNL     1       2.718   3.202  17.154  0.00  0.00    +0.000 OA
ATOM     20  N   UNL     1       4.827   3.257  16.380  0.00  0.00    +0.000 N 
ATOM     21  C   UNL     1       6.047   3.891  16.329  0.00  0.00    +0.000 A 
ATOM     22  O   UNL     1       6.679   3.906  15.280  0.00  0.00    +0.000 OA
ATOM     23  H   UNL     1       4.500   2.935  15.496  0.00  0.00    +0.000 HD
BRANCH  16  24
ATOM     24  N   UNL     1       6.170   5.099  19.832  0.00  0.00    +0.000 N 
ATOM     25  H   UNL     1       6.986   5.653  19.583  0.00  0.00    +0.000 HD
ATOM     26  H   UNL     1       5.518   5.823  20.127  0.00  0.00    +0.000 HD
ENDBRANCH  16  24
BRANCH  15  27
ATOM     27  C   UNL     1       7.711   5.266  17.434  0.00  0.00    +0.000 C 
BRANCH  27  28
ATOM     28  C   UNL     1       7.475   6.768  17.248  0.00  0.00    +0.000 C 
BRANCH  28  30
ATOM     29  C   UNL     1       8.161   9.090  17.919  0.00  0.00    +0.000 C 
ATOM     30  C   UNL     1       8.171   7.619  18.312  0.00  0.00    +0.000 C 
ENDBRANCH  28  30
ENDBRANCH  27  28
ENDBRANCH  15  27
ENDBRANCH   1  17
BRANCH   1  31
ATOM     31  C   UNL     1       3.313   2.896  20.763  0.00  0.00    +0.000 C 
BRANCH  31  32
ATOM     32  C   UNL     1       1.922   2.194  20.756  0.00  0.00    +0.000 C 
BRANCH  32  33
ATOM     33  O   UNL     1       1.468   1.723  19.470  0.00  0.00    +0.000 OA
ATOM     34  C   UNL     1       0.358   2.438  18.934  0.00  0.00    +0.000 C 
ENDBRANCH  32  33
ENDBRANCH  31  32
ENDBRANCH   1  31
TORSDOF 9
ENDMDL
MODEL 6
REMARK VINA RESULT:      -6.1      8.814     12.187
REMARK  Name = 
REMARK  11 active torsions:
REMARK  status: ('A' for Active; 'I' for Inactive)
REMARK    1  A    between atoms: C_1  and  C_2
REMARK    2  A    between atoms: C_2  and  C_3
REMARK    3  A    between atoms: C_3  and  C_4
REMARK    4  A    between atoms: C_4  and  N_5
REMARK    5  A    between atoms: C_6  and  N_7
REMARK    6  A    between atoms: C_8  and  N_9
REMARK    7  A    between atoms: N_9  and  C_10
REMARK    8  A    between atoms: C_10  and  C_11
REMARK    9  A    between atoms: C_11  and  O_12
REMARK   10  A    between atoms: O_12  and  C_13
REMARK   11  A    between atoms: C_14  and  C_16
REMARK                            x       y       z     vdW  Elec       q    Type
REMARK                         _______ _______ _______ _____ _____    ______ ____
ROOT
ATOM      1  N   UNL     1      -0.806  12.752  20.908  0.00  0.00    +0.000 N 
ATOM      2  C   UNL     1      -0.439  14.111  21.193  0.00  0.00    +0.000 C 
ATOM      3  O   UNL     1      -0.001  14.427  22.298  0.00  0.00    +0.000 OA
ENDROOT
BRANCH   2   4
ATOM      4  C   UNL     1      -0.498  15.204  20.150  0.00  0.00    +0.000 A 
ATOM      5  C   UNL     1      -1.614  16.016  20.117  0.00  0.00    +0.000 A 
ATOM      6  C   UNL     1      -1.658  17.116  19.307  0.00  0.00    +0.000 A 
ATOM      7 CL   UNL     1      -3.031  18.139  19.316  0.00  0.00    +0.000 Cl
ATOM      8  N   UNL     1      -0.639  17.498  18.544  0.00  0.00    +0.000 NA
ATOM      9  C   UNL     1       0.438  16.706  18.539  0.00  0.00    +0.000 A 
ATOM     10  C   UNL     1       1.558  17.216  17.922  0.00  0.00    +0.000 A 
ATOM     11  C   UNL     1       2.754  16.509  17.898  0.00  0.00    +0.000 A 
ATOM     12  C   UNL     1       2.758  15.169  18.254  0.00  0.00    +0.000 A 
ATOM     13  C   UNL     1       1.654  14.644  18.921  0.00  0.00    +0.000 A 
ATOM     14  C   UNL     1       0.532  15.463  19.212  0.00  0.00    +0.000 A 
ENDBRANCH   2   4
BRANCH   1  17
ATOM     15  N   UNL     1      -3.318  11.517  18.374  0.00  0.00    +0.000 N 
ATOM     16  C   UNL     1      -2.778  12.204  19.484  0.00  0.00    +0.000 A 
ATOM     17  C   UNL     1      -1.421  12.267  19.697  0.00  0.00    +0.000 A 
ATOM     18  C   UNL     1      -0.576  11.539  18.670  0.00  0.00    +0.000 A 
ATOM     19  O   UNL     1       0.602  11.264  18.889  0.00  0.00    +0.000 OA
ATOM     20  N   UNL     1      -1.174  11.180  17.514  0.00  0.00    +0.000 N 
ATOM     21  C   UNL     1      -2.529  11.009  17.350  0.00  0.00    +0.000 A 
ATOM     22  O   UNL     1      -2.950  10.408  16.370  0.00  0.00    +0.000 OA
ATOM     23  H   UNL     1      -0.620  10.693  16.845  0.00  0.00    +0.000 HD
BRANCH  16  24
ATOM     24  N   UNL     1      -3.663  12.705  20.446  0.00  0.00    +0.000 N 
ATOM     25  H   UNL     1      -4.222  13.451  20.039  0.00  0.00    +0.000 HD
ATOM     26  H   UNL     1      -4.375  12.005  20.643  0.00  0.00    +0.000 HD
ENDBRANCH  16  24
BRANCH  15  27
ATOM     27  C   UNL     1      -4.770  11.265  18.243  0.00  0.00    +0.000 C 
BRANCH  27  28
ATOM     28  C   UNL     1      -5.465  12.349  17.414  0.00  0.00    +0.000 C 
BRANCH  28  30
ATOM     29  C   UNL     1      -7.339  12.484  19.082  0.00  0.00    +0.000 C 
ATOM     30  C   UNL     1      -6.983  12.367  17.606  0.00  0.00    +0.000 C 
ENDBRANCH  28  30
ENDBRANCH  27  28
ENDBRANCH  15  27
ENDBRANCH   1  17
BRANCH   1  31
ATOM     31  C   UNL     1      -0.547  11.810  22.052  0.00  0.00    +0.000 C 
BRANCH  31  32
ATOM     32  C   UNL     1      -1.752  11.553  23.007  0.00  0.00    +0.000 C 
BRANCH  32  33
ATOM     33  O   UNL     1      -2.673  12.654  23.157  0.00  0.00    +0.000 OA
ATOM     34  C   UNL     1      -3.733  12.418  24.080  0.00  0.00    +0.000 C 
ENDBRANCH  32  33
ENDBRANCH  31  32
ENDBRANCH   1  31
TORSDOF 9
ENDMDL
MODEL 7
REMARK VINA RESULT:      -6.1      7.817     11.420
REMARK  Name = 
REMARK  11 active torsions:
REMARK  status: ('A' for Active; 'I' for Inactive)
REMARK    1  A    between atoms: C_1  and  C_2
REMARK    2  A    between atoms: C_2  and  C_3
REMARK    3  A    between atoms: C_3  and  C_4
REMARK    4  A    between atoms: C_4  and  N_5
REMARK    5  A    between atoms: C_6  and  N_7
REMARK    6  A    between atoms: C_8  and  N_9
REMARK    7  A    between atoms: N_9  and  C_10
REMARK    8  A    between atoms: C_10  and  C_11
REMARK    9  A    between atoms: C_11  and  O_12
REMARK   10  A    between atoms: O_12  and  C_13
REMARK   11  A    between atoms: C_14  and  C_16
REMARK                            x       y       z     vdW  Elec       q    Type
REMARK                         _______ _______ _______ _____ _____    ______ ____
ROOT
ATOM      1  N   UNL     1      -0.898  12.332  21.059  0.00  0.00    +0.000 N 
ATOM      2  C   UNL     1      -0.129  13.474  21.469  0.00  0.00    +0.000 C 
ATOM      3  O   UNL     1       0.181  13.634  22.648  0.00  0.00    +0.000 OA
ENDROOT
BRANCH   2   4
ATOM      4  C   UNL     1       0.399  14.493  20.485  0.00  0.00    +0.000 A 
ATOM      5  C   UNL     1       1.605  14.237  19.864  0.00  0.00    +0.000 A 
ATOM      6  C   UNL     1       2.056  15.037  18.852  0.00  0.00    +0.000 A 
ATOM      7 CL   UNL     1       3.532  14.676  18.060  0.00  0.00    +0.000 Cl
ATOM      8  N   UNL     1       1.366  16.068  18.376  0.00  0.00    +0.000 NA
ATOM      9  C   UNL     1       0.210  16.350  18.987  0.00  0.00    +0.000 A 
ATOM     10  C   UNL     1      -0.594  17.274  18.358  0.00  0.00    +0.000 A 
ATOM     11  C   UNL     1      -1.842  17.610  18.868  0.00  0.00    +0.000 A 
ATOM     12  C   UNL     1      -2.175  17.226  20.158  0.00  0.00    +0.000 A 
ATOM     13  C   UNL     1      -1.402  16.258  20.796  0.00  0.00    +0.000 A 
ATOM     14  C   UNL     1      -0.276  15.691  20.142  0.00  0.00    +0.000 A 
ENDBRANCH   2   4
BRANCH   1  17
ATOM     15  N   UNL     1      -3.206  11.762  18.125  0.00  0.00    +0.000 N 
ATOM     16  C   UNL     1      -2.726  12.239  19.365  0.00  0.00    +0.000 A 
ATOM     17  C   UNL     1      -1.412  12.076  19.736  0.00  0.00    +0.000 A 
ATOM     18  C   UNL     1      -0.547  11.344  18.728  0.00  0.00    +0.000 A 
ATOM     19  O   UNL     1       0.544  10.874  19.042  0.00  0.00    +0.000 OA
ATOM     20  N   UNL     1      -1.035  11.203  17.477  0.00  0.00    +0.000 N 
ATOM     21  C   UNL     1      -2.368  11.254  17.142  0.00  0.00    +0.000 A 
ATOM     22  O   UNL     1      -2.736  10.830  16.053  0.00  0.00    +0.000 OA
ATOM     23  H   UNL     1      -0.469  10.712  16.819  0.00  0.00    +0.000 HD
BRANCH  16  24
ATOM     24  N   UNL     1      -3.652  12.761  20.276  0.00  0.00    +0.000 N 
ATOM     25  H   UNL     1      -3.260  12.735  21.214  0.00  0.00    +0.000 HD
ATOM     26  H   UNL     1      -3.745  13.763  20.123  0.00  0.00    +0.000 HD
ENDBRANCH  16  24
BRANCH  15  27
ATOM     27  C   UNL     1      -4.650  11.745  17.802  0.00  0.00    +0.000 C 
BRANCH  27  28
ATOM     28  C   UNL     1      -5.305  10.416  18.191  0.00  0.00    +0.000 C 
BRANCH  28  30
ATOM     29  C   UNL     1      -7.116   9.398  19.604  0.00  0.00    +0.000 C 
ATOM     30  C   UNL     1      -6.724  10.586  18.737  0.00  0.00    +0.000 C 
ENDBRANCH  28  30
ENDBRANCH  27  28
ENDBRANCH  15  27
ENDBRANCH   1  17
BRANCH   1  31
ATOM     31  C   UNL     1      -1.209  11.384  22.185  0.00  0.00    +0.000 C 
BRANCH  31  32
ATOM     32  C   UNL     1      -0.165  10.253  22.429  0.00  0.00    +0.000 C 
BRANCH  32  33
ATOM     33  O   UNL     1      -0.341   9.061  21.634  0.00  0.00    +0.000 OA
ATOM     34  C   UNL     1       0.857   8.329  21.390  0.00  0.00    +0.000 C 
ENDBRANCH  32  33
ENDBRANCH  31  32
ENDBRANCH   1  31
TORSDOF 9
ENDMDL
MODEL 8
REMARK VINA RESULT:      -6.1      8.027     11.037
REMARK  Name = 
REMARK  11 active torsions:
REMARK  status: ('A' for Active; 'I' for Inactive)
REMARK    1  A    between atoms: C_1  and  C_2
REMARK    2  A    between atoms: C_2  and  C_3
REMARK    3  A    between atoms: C_3  and  C_4
REMARK    4  A    between atoms: C_4  and  N_5
REMARK    5  A    between atoms: C_6  and  N_7
REMARK    6  A    between atoms: C_8  and  N_9
REMARK    7  A    between atoms: N_9  and  C_10
REMARK    8  A    between atoms: C_10  and  C_11
REMARK    9  A    between atoms: C_11  and  O_12
REMARK   10  A    between atoms: O_12  and  C_13
REMARK   11  A    between atoms: C_14  and  C_16
REMARK                            x       y       z     vdW  Elec       q    Type
REMARK                         _______ _______ _______ _____ _____    ______ ____
ROOT
ATOM      1  N   UNL     1      -0.768  14.618  20.016  0.00  0.00    +0.000 N 
ATOM      2  C   UNL     1      -1.968  15.169  20.581  0.00  0.00    +0.000 C 
ATOM      3  O   UNL     1      -2.141  16.385  20.629  0.00  0.00    +0.000 OA
ENDROOT
BRANCH   2   4
ATOM      4  C   UNL     1      -3.104  14.302  21.077  0.00  0.00    +0.000 A 
ATOM      5  C   UNL     1      -3.835  13.590  20.148  0.00  0.00    +0.000 A 
ATOM      6  C   UNL     1      -4.766  12.671  20.544  0.00  0.00    +0.000 A 
ATOM      7 CL   UNL     1      -5.630  11.761  19.378  0.00  0.00    +0.000 Cl
ATOM      8  N   UNL     1      -5.000  12.375  21.818  0.00  0.00    +0.000 NA
ATOM      9  C   UNL     1      -4.323  13.078  22.732  0.00  0.00    +0.000 A 
ATOM     10  C   UNL     1      -4.408  12.621  24.028  0.00  0.00    +0.000 A 
ATOM     11  C   UNL     1      -3.708  13.237  25.058  0.00  0.00    +0.000 A 
ATOM     12  C   UNL     1      -3.133  14.480  24.840  0.00  0.00    +0.000 A 
ATOM     13  C   UNL     1      -2.995  14.941  23.534  0.00  0.00    +0.000 A 
ATOM     14  C   UNL     1      -3.455  14.159  22.442  0.00  0.00    +0.000 A 
ENDBRANCH   2   4
BRANCH   1  17
ATOM     15  N   UNL     1      -0.407  10.991  19.030  0.00  0.00    +0.000 N 
ATOM     16  C   UNL     1      -0.589  12.387  18.916  0.00  0.00    +0.000 A 
ATOM     17  C   UNL     1      -0.395  13.225  19.988  0.00  0.00    +0.000 A 
ATOM     18  C   UNL     1       0.007  12.535  21.277  0.00  0.00    +0.000 A 
ATOM     19  O   UNL     1      -0.075  13.106  22.362  0.00  0.00    +0.000 OA
ATOM     20  N   UNL     1       0.432  11.256  21.191  0.00  0.00    +0.000 N 
ATOM     21  C   UNL     1       0.130  10.394  20.163  0.00  0.00    +0.000 A 
ATOM     22  O   UNL     1       0.306   9.191  20.308  0.00  0.00    +0.000 OA
ATOM     23  H   UNL     1       0.685  10.801  22.041  0.00  0.00    +0.000 HD
BRANCH  16  24
ATOM     24  N   UNL     1      -1.109  12.890  17.718  0.00  0.00    +0.000 N 
ATOM     25  H   UNL     1      -0.940  12.226  16.967  0.00  0.00    +0.000 HD
ATOM     26  H   UNL     1      -2.126  12.886  17.765  0.00  0.00    +0.000 HD
ENDBRANCH  16  24
BRANCH  15  27
ATOM     27  C   UNL     1      -0.809  10.061  17.951  0.00  0.00    +0.000 C 
BRANCH  27  28
ATOM     28  C   UNL     1      -2.330   9.899  17.876  0.00  0.00    +0.000 C 
BRANCH  28  30
ATOM     29  C   UNL     1      -3.932  10.965  16.260  0.00  0.00    +0.000 C 
ATOM     30  C   UNL     1      -2.861   9.898  16.441  0.00  0.00    +0.000 C 
ENDBRANCH  28  30
ENDBRANCH  27  28
ENDBRANCH  15  27
ENDBRANCH   1  17
BRANCH   1  31
ATOM     31  C   UNL     1       0.170  15.660  19.471  0.00  0.00    +0.000 C 
BRANCH  31  32
ATOM     32  C   UNL     1       1.679  15.271  19.446  0.00  0.00    +0.000 C 
BRANCH  32  33
ATOM     33  O   UNL     1       2.353  15.310  20.721  0.00  0.00    +0.000 OA
ATOM     34  C   UNL     1       3.264  14.237  20.944  0.00  0.00    +0.000 C 
ENDBRANCH  32  33
ENDBRANCH  31  32
ENDBRANCH   1  31
TORSDOF 9
ENDMDL
MODEL 9
REMARK VINA RESULT:      -6.1      8.897     11.641
REMARK  Name = 
REMARK  11 active torsions:
REMARK  status: ('A' for Active; 'I' for Inactive)
REMARK    1  A    between atoms: C_1  and  C_2
REMARK    2  A    between atoms: C_2  and  C_3
REMARK    3  A    between atoms: C_3  and  C_4
REMARK    4  A    between atoms: C_4  and  N_5
REMARK    5  A    between atoms: C_6  and  N_7
REMARK    6  A    between atoms: C_8  and  N_9
REMARK    7  A    between atoms: N_9  and  C_10
REMARK    8  A    between atoms: C_10  and  C_11
REMARK    9  A    between atoms: C_11  and  O_12
REMARK   10  A    between atoms: O_12  and  C_13
REMARK   11  A    between atoms: C_14  and  C_16
REMARK                            x       y       z     vdW  Elec       q    Type
REMARK                         _______ _______ _______ _____ _____    ______ ____
ROOT
ATOM      1  N   UNL     1      -2.874  14.876  20.769  0.00  0.00    +0.000 N 
ATOM      2  C   UNL     1      -4.309  14.928  20.731  0.00  0.00    +0.000 C 
ATOM      3  O   UNL     1      -4.893  15.938  20.341  0.00  0.00    +0.000 OA
ENDROOT
BRANCH   2   4
ATOM      4  C   UNL     1      -5.175  13.742  21.091  0.00  0.00    +0.000 A 
ATOM      5  C   UNL     1      -5.693  13.676  22.368  0.00  0.00    +0.000 A 
ATOM      6  C   UNL     1      -6.607  12.718  22.706  0.00  0.00    +0.000 A 
ATOM      7 CL   UNL     1      -7.277  12.682  24.282  0.00  0.00    +0.000 Cl
ATOM      8  N   UNL     1      -7.082  11.829  21.841  0.00  0.00    +0.000 NA
ATOM      9  C   UNL     1      -6.567  11.858  20.607  0.00  0.00    +0.000 A 
ATOM     10  C   UNL     1      -7.212  11.085  19.667  0.00  0.00    +0.000 A 
ATOM     11  C   UNL     1      -6.802  11.072  18.339  0.00  0.00    +0.000 A 
ATOM     12  C   UNL     1      -5.575  11.623  18.001  0.00  0.00    +0.000 A 
ATOM     13  C   UNL     1      -4.928  12.445  18.920  0.00  0.00    +0.000 A 
ATOM     14  C   UNL     1      -5.505  12.698  20.192  0.00  0.00    +0.000 A 
ENDBRANCH   2   4
BRANCH   1  17
ATOM     15  N   UNL     1      -0.990  11.627  21.157  0.00  0.00    +0.000 N 
ATOM     16  C   UNL     1      -1.579  12.757  20.547  0.00  0.00    +0.000 A 
ATOM     17  C   UNL     1      -2.070  13.801  21.295  0.00  0.00    +0.000 A 
ATOM     18  C   UNL     1      -1.941  13.631  22.796  0.00  0.00    +0.000 A 
ATOM     19  O   UNL     1      -2.586  14.326  23.578  0.00  0.00    +0.000 OA
ATOM     20  N   UNL     1      -1.109  12.666  23.243  0.00  0.00    +0.000 N 
ATOM     21  C   UNL     1      -0.720  11.564  22.517  0.00  0.00    +0.000 A 
ATOM     22  O   UNL     1      -0.212  10.608  23.090  0.00  0.00    +0.000 OA
ATOM     23  H   UNL     1      -1.033  12.549  24.230  0.00  0.00    +0.000 HD
BRANCH  16  24
ATOM     24  N   UNL     1      -1.781  12.731  19.162  0.00  0.00    +0.000 N 
ATOM     25  H   UNL     1      -2.481  12.029  18.933  0.00  0.00    +0.000 HD
ATOM     26  H   UNL     1      -2.252  13.586  18.875  0.00  0.00    +0.000 HD
ENDBRANCH  16  24
BRANCH  15  27
ATOM     27  C   UNL     1      -0.649  10.412  20.384  0.00  0.00    +0.000 C 
BRANCH  27  28
ATOM     28  C   UNL     1       0.687  10.560  19.650  0.00  0.00    +0.000 C 
BRANCH  28  30
ATOM     29  C   UNL     1       1.999   9.212  17.984  0.00  0.00    +0.000 C 
ATOM     30  C   UNL     1       0.680   9.921  18.260  0.00  0.00    +0.000 C 
ENDBRANCH  28  30
ENDBRANCH  27  28
ENDBRANCH  15  27
ENDBRANCH   1  17
BRANCH   1  31
ATOM     31  C   UNL     1      -2.216  16.124  20.248  0.00  0.00    +0.000 C 
BRANCH  31  32
ATOM     32  C   UNL     1      -0.658  16.114  20.228  0.00  0.00    +0.000 C 
BRANCH  32  33
ATOM     33  O   UNL     1      -0.054  15.550  19.044  0.00  0.00    +0.000 OA
ATOM     34  C   UNL     1       1.143  16.198  18.624  0.00  0.00    +0.000 C 
ENDBRANCH  32  33
ENDBRANCH  31  32
ENDBRANCH   1  31
TORSDOF 9
ENDMDL
