MODEL 1
REMARK VINA RESULT:      -5.9      0.000      0.000
REMARK  Name = 
REMARK  7 active torsions:
REMARK  status: ('A' for Active; 'I' for Inactive)
REMARK    1  A    between atoms: C_1  and  C_2
REMARK    2  A    between atoms: C_2  and  C_3
REMARK    3  A    between atoms: C_4  and  C_5
REMARK    4  A    between atoms: C_7  and  N_8
REMARK    5  A    between atoms: C_9  and  C_11
REMARK    6  A    between atoms: C_11  and  C_12
REMARK    7  A    between atoms: C_14  and  C_15
REMARK                            x       y       z     vdW  Elec       q    Type
REMARK                         _______ _______ _______ _____ _____    ______ ____
ROOT
ATOM      1  C   UNL     1       2.151   4.987  19.491  0.00  0.00    +0.000 A 
ATOM      2  C   UNL     1       2.404   6.354  19.468  0.00  0.00    +0.000 A 
ATOM      3  C   UNL     1       1.841   7.441  20.327  0.00  0.00    +0.000 C 
ATOM      4  S   UNL     1       3.516   6.783  18.231  0.00  0.00    +0.000 S 
ATOM      5  C   UNL     1       3.766   5.159  17.803  0.00  0.00    +0.000 A 
ATOM      6  C   UNL     1       2.897   4.309  18.450  0.00  0.00    +0.000 A 
ENDROOT
BRANCH   5   7
ATOM      7  N   UNL     1       4.775   4.980  16.870  0.00  0.00    +0.000 N 
ATOM      8  C   UNL     1       6.048   4.610  17.295  0.00  0.00    +0.000 C 
ATOM      9  O   UNL     1       6.344   4.380  18.467  0.00  0.00    +0.000 OA
ATOM     10  H   UNL     1       4.690   5.559  16.040  0.00  0.00    +0.000 HD
BRANCH   8  11
ATOM     11  C   UNL     1       7.095   4.463  16.204  0.00  0.00    +0.000 C 
BRANCH  11  12
ATOM     12  C   UNL     1       6.441   4.192  14.859  0.00  0.00    +0.000 C 
ATOM     13  N   UNL     1       5.899   3.967  13.743  0.00  0.00    +0.000 NA
ENDBRANCH  11  12
ENDBRANCH   8  11
ENDBRANCH   5   7
BRANCH   1  15
ATOM     14  C   UNL     1       1.958   3.520  21.543  0.00  0.00    +0.000 C 
ATOM     15  C   UNL     1       1.225   4.293  20.457  0.00  0.00    +0.000 C 
ENDBRANCH   1  15
BRANCH   6  16
ATOM     16  C   UNL     1       2.705   2.936  18.078  0.00  0.00    +0.000 C 
ATOM     17  N   UNL     1       2.634   1.804  17.828  0.00  0.00    +0.000 NA
ENDBRANCH   6  16
TORSDOF 5
ENDMDL
MODEL 2
REMARK VINA RESULT:      -5.8      2.701      5.804
REMARK  Name = 
REMARK  7 active torsions:
REMARK  status: ('A' for Active; 'I' for Inactive)
REMARK    1  A    between atoms: C_1  and  C_2
REMARK    2  A    between atoms: C_2  and  C_3
REMARK    3  A    between atoms: C_4  and  C_5
REMARK    4  A    between atoms: C_7  and  N_8
REMARK    5  A    between atoms: C_9  and  C_11
REMARK    6  A    between atoms: C_11  and  C_12
REMARK    7  A    between atoms: C_14  and  C_15
REMARK                            x       y       z     vdW  Elec       q    Type
REMARK                         _______ _______ _______ _____ _____    ______ ____
ROOT
ATOM      1  C   UNL     1       5.173   5.862  17.027  0.00  0.00    +0.000 A 
ATOM      2  C   UNL     1       5.572   4.605  16.586  0.00  0.00    +0.000 A 
ATOM      3  C   UNL     1       6.691   4.230  15.669  0.00  0.00    +0.000 C 
ATOM      4  S   UNL     1       4.570   3.356  17.207  0.00  0.00    +0.000 S 
ATOM      5  C   UNL     1       3.687   4.449  18.159  0.00  0.00    +0.000 A 
ATOM      6  C   UNL     1       4.011   5.759  17.887  0.00  0.00    +0.000 A 
ENDROOT
BRANCH   5   7
ATOM      7  N   UNL     1       2.788   3.836  19.018  0.00  0.00    +0.000 N 
ATOM      8  C   UNL     1       1.480   3.607  18.598  0.00  0.00    +0.000 C 
ATOM      9  O   UNL     1       1.061   3.874  17.473  0.00  0.00    +0.000 OA
ATOM     10  H   UNL     1       2.956   4.017  20.003  0.00  0.00    +0.000 HD
BRANCH   8  11
ATOM     11  C   UNL     1       0.561   2.955  19.617  0.00  0.00    +0.000 C 
BRANCH  11  12
ATOM     12  C   UNL     1       1.257   2.813  20.961  0.00  0.00    +0.000 C 
ATOM     13  N   UNL     1       1.834   2.694  22.076  0.00  0.00    +0.000 NA
ENDBRANCH  11  12
ENDBRANCH   8  11
ENDBRANCH   5   7
BRANCH   1  15
ATOM     14  C   UNL     1       7.143   7.401  17.424  0.00  0.00    +0.000 C 
ATOM     15  C   UNL     1       5.845   7.161  16.666  0.00  0.00    +0.000 C 
ENDBRANCH   1  15
BRANCH   6  16
ATOM     16  C   UNL     1       3.236   6.879  18.340  0.00  0.00    +0.000 C 
ATOM     17  N   UNL     1       2.552   7.774  18.623  0.00  0.00    +0.000 NA
ENDBRANCH   6  16
TORSDOF 5
ENDMDL
MODEL 3
REMARK VINA RESULT:      -5.7      2.060      2.975
REMARK  Name = 
REMARK  7 active torsions:
REMARK  status: ('A' for Active; 'I' for Inactive)
REMARK    1  A    between atoms: C_1  and  C_2
REMARK    2  A    between atoms: C_2  and  C_3
REMARK    3  A    between atoms: C_4  and  C_5
REMARK    4  A    between atoms: C_7  and  N_8
REMARK    5  A    between atoms: C_9  and  C_11
REMARK    6  A    between atoms: C_11  and  C_12
REMARK    7  A    between atoms: C_14  and  C_15
REMARK                            x       y       z     vdW  Elec       q    Type
REMARK                         _______ _______ _______ _____ _____    ______ ____
ROOT
ATOM      1  C   UNL     1       3.065   4.099  19.298  0.00  0.00    +0.000 A 
ATOM      2  C   UNL     1       2.258   3.220  18.585  0.00  0.00    +0.000 A 
ATOM      3  C   UNL     1       0.849   2.793  18.852  0.00  0.00    +0.000 C 
ATOM      4  S   UNL     1       3.072   2.549  17.231  0.00  0.00    +0.000 S 
ATOM      5  C   UNL     1       4.447   3.506  17.502  0.00  0.00    +0.000 A 
ATOM      6  C   UNL     1       4.379   4.192  18.693  0.00  0.00    +0.000 A 
ENDROOT
BRANCH   5   7
ATOM      7  N   UNL     1       5.396   3.412  16.496  0.00  0.00    +0.000 N 
ATOM      8  C   UNL     1       5.621   4.499  15.656  0.00  0.00    +0.000 C 
ATOM      9  O   UNL     1       5.056   5.586  15.770  0.00  0.00    +0.000 OA
ATOM     10  H   UNL     1       5.523   2.476  16.122  0.00  0.00    +0.000 HD
BRANCH   8  11
ATOM     11  C   UNL     1       6.660   4.293  14.568  0.00  0.00    +0.000 C 
BRANCH  11  12
ATOM     12  C   UNL     1       6.018   3.755  13.300  0.00  0.00    +0.000 C 
ATOM     13  N   UNL     1       5.485   3.308  12.248  0.00  0.00    +0.000 NA
ENDBRANCH  11  12
ENDBRANCH   8  11
ENDBRANCH   5   7
BRANCH   1  15
ATOM     14  C   UNL     1       2.038   6.215  20.231  0.00  0.00    +0.000 C 
ATOM     15  C   UNL     1       2.647   4.853  20.533  0.00  0.00    +0.000 C 
ENDBRANCH   1  15
BRANCH   6  16
ATOM     16  C   UNL     1       5.503   4.852  19.296  0.00  0.00    +0.000 C 
ATOM     17  N   UNL     1       6.466   5.359  19.700  0.00  0.00    +0.000 NA
ENDBRANCH   6  16
TORSDOF 5
ENDMDL
MODEL 4
REMARK VINA RESULT:      -5.6      1.771      2.082
REMARK  Name = 
REMARK  7 active torsions:
REMARK  status: ('A' for Active; 'I' for Inactive)
REMARK    1  A    between atoms: C_1  and  C_2
REMARK    2  A    between atoms: C_2  and  C_3
REMARK    3  A    between atoms: C_4  and  C_5
REMARK    4  A    between atoms: C_7  and  N_8
REMARK    5  A    between atoms: C_9  and  C_11
REMARK    6  A    between atoms: C_11  and  C_12
REMARK    7  A    between atoms: C_14  and  C_15
REMARK                            x       y       z     vdW  Elec       q    Type
REMARK                         _______ _______ _______ _____ _____    ______ ____
ROOT
ATOM      1  C   UNL     1       2.011   4.405  19.875  0.00  0.00    +0.000 A 
ATOM      2  C   UNL     1       1.940   5.774  20.105  0.00  0.00    +0.000 A 
ATOM      3  C   UNL     1       0.985   6.547  20.958  0.00  0.00    +0.000 C 
ATOM      4  S   UNL     1       3.140   6.638  19.231  0.00  0.00    +0.000 S 
ATOM      5  C   UNL     1       3.836   5.206  18.645  0.00  0.00    +0.000 A 
ATOM      6  C   UNL     1       3.081   4.095  18.948  0.00  0.00    +0.000 A 
ENDROOT
BRANCH   5   7
ATOM      7  N   UNL     1       5.020   5.407  17.953  0.00  0.00    +0.000 N 
ATOM      8  C   UNL     1       6.236   5.315  18.625  0.00  0.00    +0.000 C 
ATOM      9  O   UNL     1       6.345   5.015  19.814  0.00  0.00    +0.000 OA
ATOM     10  H   UNL     1       4.947   6.049  17.170  0.00  0.00    +0.000 HD
BRANCH   8  11
ATOM     11  C   UNL     1       7.478   5.577  17.791  0.00  0.00    +0.000 C 
BRANCH  11  12
ATOM     12  C   UNL     1       7.635   7.062  17.506  0.00  0.00    +0.000 C 
ATOM     13  N   UNL     1       7.766   8.294  17.269  0.00  0.00    +0.000 NA
ENDBRANCH  11  12
ENDBRANCH   8  11
ENDBRANCH   5   7
BRANCH   1  15
ATOM     14  C   UNL     1       1.694   2.715  21.731  0.00  0.00    +0.000 C 
ATOM     15  C   UNL     1       1.103   3.374  20.494  0.00  0.00    +0.000 C 
ENDBRANCH   1  15
BRANCH   6  16
ATOM     16  C   UNL     1       3.287   2.807  18.350  0.00  0.00    +0.000 C 
ATOM     17  N   UNL     1       3.372   1.733  17.916  0.00  0.00    +0.000 NA
ENDBRANCH   6  16
TORSDOF 5
ENDMDL
MODEL 5
REMARK VINA RESULT:      -5.6      2.819      3.206
REMARK  Name = 
REMARK  7 active torsions:
REMARK  status: ('A' for Active; 'I' for Inactive)
REMARK    1  A    between atoms: C_1  and  C_2
REMARK    2  A    between atoms: C_2  and  C_3
REMARK    3  A    between atoms: C_4  and  C_5
REMARK    4  A    between atoms: C_7  and  N_8
REMARK    5  A    between atoms: C_9  and  C_11
REMARK    6  A    between atoms: C_11  and  C_12
REMARK    7  A    between atoms: C_14  and  C_15
REMARK                            x       y       z     vdW  Elec       q    Type
REMARK                         _______ _______ _______ _____ _____    ______ ____
ROOT
ATOM      1  C   UNL     1       2.651   2.737  19.454  0.00  0.00    +0.000 A 
ATOM      2  C   UNL     1       2.233   3.425  18.321  0.00  0.00    +0.000 A 
ATOM      3  C   UNL     1       0.850   3.642  17.796  0.00  0.00    +0.000 C 
ATOM      4  S   UNL     1       3.554   4.070  17.434  0.00  0.00    +0.000 S 
ATOM      5  C   UNL     1       4.673   3.556  18.602  0.00  0.00    +0.000 A 
ATOM      6  C   UNL     1       4.097   2.752  19.559  0.00  0.00    +0.000 A 
ENDROOT
BRANCH   5   7
ATOM      7  N   UNL     1       5.962   4.012  18.375  0.00  0.00    +0.000 N 
ATOM      8  C   UNL     1       6.381   5.209  18.951  0.00  0.00    +0.000 C 
ATOM      9  O   UNL     1       5.688   5.890  19.705  0.00  0.00    +0.000 OA
ATOM     10  H   UNL     1       6.353   3.745  17.476  0.00  0.00    +0.000 HD
BRANCH   8  11
ATOM     11  C   UNL     1       7.800   5.642  18.624  0.00  0.00    +0.000 C 
BRANCH  11  12
ATOM     12  C   UNL     1       7.808   6.998  17.938  0.00  0.00    +0.000 C 
ATOM     13  N   UNL     1       7.815   8.123  17.368  0.00  0.00    +0.000 NA
ENDBRANCH  11  12
ENDBRANCH   8  11
ENDBRANCH   5   7
BRANCH   1  15
ATOM     14  C   UNL     1       1.498   2.877  21.702  0.00  0.00    +0.000 C 
ATOM     15  C   UNL     1       1.739   2.058  20.442  0.00  0.00    +0.000 C 
ENDBRANCH   1  15
BRANCH   6  16
ATOM     16  C   UNL     1       4.850   1.967  20.495  0.00  0.00    +0.000 C 
ATOM     17  N   UNL     1       5.374   1.324  21.308  0.00  0.00    +0.000 NA
ENDBRANCH   6  16
TORSDOF 5
ENDMDL
MODEL 6
REMARK VINA RESULT:      -5.6      1.337      1.344
REMARK  Name = 
REMARK  7 active torsions:
REMARK  status: ('A' for Active; 'I' for Inactive)
REMARK    1  A    between atoms: C_1  and  C_2
REMARK    2  A    between atoms: C_2  and  C_3
REMARK    3  A    between atoms: C_4  and  C_5
REMARK    4  A    between atoms: C_7  and  N_8
REMARK    5  A    between atoms: C_9  and  C_11
REMARK    6  A    between atoms: C_11  and  C_12
REMARK    7  A    between atoms: C_14  and  C_15
REMARK                            x       y       z     vdW  Elec       q    Type
REMARK                         _______ _______ _______ _____ _____    ______ ____
ROOT
ATOM      1  C   UNL     1       2.230   4.131  19.950  0.00  0.00    +0.000 A 
ATOM      2  C   UNL     1       2.345   5.513  20.048  0.00  0.00    +0.000 A 
ATOM      3  C   UNL     1       1.427   6.499  20.697  0.00  0.00    +0.000 C 
ATOM      4  S   UNL     1       3.756   6.101  19.267  0.00  0.00    +0.000 S 
ATOM      5  C   UNL     1       4.288   4.531  18.905  0.00  0.00    +0.000 A 
ATOM      6  C   UNL     1       3.341   3.577  19.202  0.00  0.00    +0.000 A 
ENDROOT
BRANCH   5   7
ATOM      7  N   UNL     1       5.561   4.488  18.359  0.00  0.00    +0.000 N 
ATOM      8  C   UNL     1       5.725   4.601  16.981  0.00  0.00    +0.000 C 
ATOM      9  O   UNL     1       4.801   4.786  16.190  0.00  0.00    +0.000 OA
ATOM     10  H   UNL     1       6.226   3.924  18.881  0.00  0.00    +0.000 HD
BRANCH   8  11
ATOM     11  C   UNL     1       7.154   4.516  16.473  0.00  0.00    +0.000 C 
BRANCH  11  12
ATOM     12  C   UNL     1       7.230   4.899  15.004  0.00  0.00    +0.000 C 
ATOM     13  N   UNL     1       7.294   5.217  13.785  0.00  0.00    +0.000 NA
ENDBRANCH  11  12
ENDBRANCH   8  11
ENDBRANCH   5   7
BRANCH   1  15
ATOM     14  C   UNL     1       1.484   2.615  21.833  0.00  0.00    +0.000 C 
ATOM     15  C   UNL     1       1.109   3.310  20.532  0.00  0.00    +0.000 C 
ENDBRANCH   1  15
BRANCH   6  16
ATOM     16  C   UNL     1       3.416   2.216  18.751  0.00  0.00    +0.000 C 
ATOM     17  N   UNL     1       3.574   1.133  18.363  0.00  0.00    +0.000 NA
ENDBRANCH   6  16
TORSDOF 5
ENDMDL
MODEL 7
REMARK VINA RESULT:      -5.5      2.123      3.005
REMARK  Name = 
REMARK  7 active torsions:
REMARK  status: ('A' for Active; 'I' for Inactive)
REMARK    1  A    between atoms: C_1  and  C_2
REMARK    2  A    between atoms: C_2  and  C_3
REMARK    3  A    between atoms: C_4  and  C_5
REMARK    4  A    between atoms: C_7  and  N_8
REMARK    5  A    between atoms: C_9  and  C_11
REMARK    6  A    between atoms: C_11  and  C_12
REMARK    7  A    between atoms: C_14  and  C_15
REMARK                            x       y       z     vdW  Elec       q    Type
REMARK                         _______ _______ _______ _____ _____    ______ ____
ROOT
ATOM      1  C   UNL     1       2.866   4.166  19.526  0.00  0.00    +0.000 A 
ATOM      2  C   UNL     1       1.990   3.217  19.012  0.00  0.00    +0.000 A 
ATOM      3  C   UNL     1       0.607   2.860  19.456  0.00  0.00    +0.000 C 
ATOM      4  S   UNL     1       2.675   2.353  17.695  0.00  0.00    +0.000 S 
ATOM      5  C   UNL     1       4.078   3.308  17.714  0.00  0.00    +0.000 A 
ATOM      6  C   UNL     1       4.122   4.149  18.803  0.00  0.00    +0.000 A 
ENDROOT
BRANCH   5   7
ATOM      7  N   UNL     1       4.933   3.060  16.652  0.00  0.00    +0.000 N 
ATOM      8  C   UNL     1       5.223   4.078  15.748  0.00  0.00    +0.000 C 
ATOM      9  O   UNL     1       4.802   5.230  15.849  0.00  0.00    +0.000 OA
ATOM     10  H   UNL     1       4.919   2.102  16.315  0.00  0.00    +0.000 HD
BRANCH   8  11
ATOM     11  C   UNL     1       6.148   3.705  14.603  0.00  0.00    +0.000 C 
BRANCH  11  12
ATOM     12  C   UNL     1       7.183   4.794  14.366  0.00  0.00    +0.000 C 
ATOM     13  N   UNL     1       8.041   5.696  14.169  0.00  0.00    +0.000 NA
ENDBRANCH  11  12
ENDBRANCH   8  11
ENDBRANCH   5   7
BRANCH   1  15
ATOM     14  C   UNL     1       2.061   6.455  20.243  0.00  0.00    +0.000 C 
ATOM     15  C   UNL     1       2.567   5.088  20.680  0.00  0.00    +0.000 C 
ENDBRANCH   1  15
BRANCH   6  16
ATOM     16  C   UNL     1       5.301   4.859  19.211  0.00  0.00    +0.000 C 
ATOM     17  N   UNL     1       6.194   5.499  19.588  0.00  0.00    +0.000 NA
ENDBRANCH   6  16
TORSDOF 5
ENDMDL
MODEL 8
REMARK VINA RESULT:      -5.4      2.531      5.843
REMARK  Name = 
REMARK  7 active torsions:
REMARK  status: ('A' for Active; 'I' for Inactive)
REMARK    1  A    between atoms: C_1  and  C_2
REMARK    2  A    between atoms: C_2  and  C_3
REMARK    3  A    between atoms: C_4  and  C_5
REMARK    4  A    between atoms: C_7  and  N_8
REMARK    5  A    between atoms: C_9  and  C_11
REMARK    6  A    between atoms: C_11  and  C_12
REMARK    7  A    between atoms: C_14  and  C_15
REMARK                            x       y       z     vdW  Elec       q    Type
REMARK                         _______ _______ _______ _____ _____    ______ ____
ROOT
ATOM      1  C   UNL     1       5.508   6.246  16.927  0.00  0.00    +0.000 A 
ATOM      2  C   UNL     1       5.863   4.962  16.530  0.00  0.00    +0.000 A 
ATOM      3  C   UNL     1       7.145   4.470  15.938  0.00  0.00    +0.000 C 
ATOM      4  S   UNL     1       4.585   3.839  16.759  0.00  0.00    +0.000 S 
ATOM      5  C   UNL     1       3.602   5.009  17.498  0.00  0.00    +0.000 A 
ATOM      6  C   UNL     1       4.144   6.272  17.418  0.00  0.00    +0.000 A 
ENDROOT
BRANCH   5   7
ATOM      7  N   UNL     1       2.429   4.495  18.028  0.00  0.00    +0.000 N 
ATOM      8  C   UNL     1       2.362   4.188  19.384  0.00  0.00    +0.000 C 
ATOM      9  O   UNL     1       3.278   4.385  20.182  0.00  0.00    +0.000 OA
ATOM     10  H   UNL     1       1.880   3.941  17.378  0.00  0.00    +0.000 HD
BRANCH   8  11
ATOM     11  C   UNL     1       1.046   3.605  19.868  0.00  0.00    +0.000 C 
BRANCH  11  12
ATOM     12  C   UNL     1       1.224   2.898  21.202  0.00  0.00    +0.000 C 
ATOM     13  N   UNL     1       1.372   2.311  22.309  0.00  0.00    +0.000 NA
ENDBRANCH  11  12
ENDBRANCH   8  11
ENDBRANCH   5   7
BRANCH   1  15
ATOM     14  C   UNL     1       7.611   7.364  17.779  0.00  0.00    +0.000 C 
ATOM     15  C   UNL     1       6.404   7.455  16.857  0.00  0.00    +0.000 C 
ENDBRANCH   1  15
BRANCH   6  16
ATOM     16  C   UNL     1       3.411   7.471  17.711  0.00  0.00    +0.000 C 
ATOM     17  N   UNL     1       2.797   8.400  18.040  0.00  0.00    +0.000 NA
ENDBRANCH   6  16
TORSDOF 5
ENDMDL
MODEL 9
REMARK VINA RESULT:      -5.3      1.296      1.340
REMARK  Name = 
REMARK  7 active torsions:
REMARK  status: ('A' for Active; 'I' for Inactive)
REMARK    1  A    between atoms: C_1  and  C_2
REMARK    2  A    between atoms: C_2  and  C_3
REMARK    3  A    between atoms: C_4  and  C_5
REMARK    4  A    between atoms: C_7  and  N_8
REMARK    5  A    between atoms: C_9  and  C_11
REMARK    6  A    between atoms: C_11  and  C_12
REMARK    7  A    between atoms: C_14  and  C_15
REMARK                            x       y       z     vdW  Elec       q    Type
REMARK                         _______ _______ _______ _____ _____    ______ ____
ROOT
ATOM      1  C   UNL     1       2.817   4.385  19.927  0.00  0.00    +0.000 A 
ATOM      2  C   UNL     1       2.584   5.700  19.542  0.00  0.00    +0.000 A 
ATOM      3  C   UNL     1       2.095   6.857  20.354  0.00  0.00    +0.000 C 
ATOM      4  S   UNL     1       2.904   5.950  17.873  0.00  0.00    +0.000 S 
ATOM      5  C   UNL     1       3.470   4.361  17.678  0.00  0.00    +0.000 A 
ATOM      6  C   UNL     1       3.258   3.590  18.799  0.00  0.00    +0.000 A 
ENDROOT
BRANCH   5   7
ATOM      7  N   UNL     1       4.019   4.117  16.429  0.00  0.00    +0.000 N 
ATOM      8  C   UNL     1       5.403   4.111  16.275  0.00  0.00    +0.000 C 
ATOM      9  O   UNL     1       6.200   4.265  17.199  0.00  0.00    +0.000 OA
ATOM     10  H   UNL     1       3.446   4.424  15.649  0.00  0.00    +0.000 HD
BRANCH   8  11
ATOM     11  C   UNL     1       5.912   3.861  14.865  0.00  0.00    +0.000 C 
BRANCH  11  12
ATOM     12  C   UNL     1       7.053   4.806  14.526  0.00  0.00    +0.000 C 
ATOM     13  N   UNL     1       8.000   5.590  14.244  0.00  0.00    +0.000 NA
ENDBRANCH  11  12
ENDBRANCH   8  11
ENDBRANCH   5   7
BRANCH   1  15
ATOM     14  C   UNL     1       1.431   2.922  21.458  0.00  0.00    +0.000 C 
ATOM     15  C   UNL     1       2.634   3.845  21.322  0.00  0.00    +0.000 C 
ENDBRANCH   1  15
BRANCH   6  16
ATOM     16  C   UNL     1       3.387   2.161  18.815  0.00  0.00    +0.000 C 
ATOM     17  N   UNL     1       3.578   1.016  18.778  0.00  0.00    +0.000 NA
ENDBRANCH   6  16
TORSDOF 5
ENDMDL
