MODEL 1
REMARK VINA RESULT:      -6.9      0.000      0.000
REMARK  Name = 
REMARK  14 active torsions:
REMARK  status: ('A' for Active; 'I' for Inactive)
REMARK    1  A    between atoms: C_2  and  C_3
REMARK    2  A    between atoms: C_3  and  O_4
REMARK    3  A    between atoms: O_4  and  C_5
REMARK    4  A    between atoms: C_5  and  C_6
REMARK    5  A    between atoms: C_6  and  O_7
REMARK    6  A    between atoms: C_6  and  C_8
REMARK    7  A    between atoms: C_8  and  N_9
REMARK    8  A    between atoms: N_9  and  C_10
REMARK    9  A    between atoms: N_9  and  C_18
REMARK   10  A    between atoms: C_10  and  C_11
REMARK   11  A    between atoms: C_15  and  C_16
REMARK   12  A    between atoms: C_18  and  C_19
REMARK   13  A    between atoms: C_18  and  C_20
REMARK   14  A    between atoms: C_20  and  C_21
REMARK                            x       y       z     vdW  Elec       q    Type
REMARK                         _______ _______ _______ _____ _____    ______ ____
ROOT
ATOM      1  N   UNL     1       6.237   5.119  17.358  0.00  0.00    +0.000 NA
ENDROOT
BRANCH   1   2
ATOM      2  C   UNL     1       6.819   6.235  18.151  0.00  0.00    +0.000 C 
ATOM      3  C   UNL     1       7.726   5.824  19.324  0.00  0.00    +0.000 C 
BRANCH   2   4
ATOM      4  C   UNL     1       7.635   7.243  17.293  0.00  0.00    +0.000 C 
ATOM      5  C   UNL     1       8.014   8.528  18.010  0.00  0.00    +0.000 C 
ENDBRANCH   2   4
ENDBRANCH   1   2
BRANCH   1   6
ATOM      6  C   UNL     1       7.030   4.740  16.178  0.00  0.00    +0.000 C 
BRANCH   6   7
ATOM      7  C   UNL     1       6.439   5.071  14.787  0.00  0.00    +0.000 C 
BRANCH   7   8
ATOM      8  O   UNL     1       5.394   6.043  14.979  0.00  0.00    +0.000 OA
ATOM      9  H   UNL     1       5.448   6.360  15.892  0.00  0.00    +0.000 HD
ENDBRANCH   7   8
BRANCH   7  10
ATOM     10  C   UNL     1       5.906   3.810  14.095  0.00  0.00    +0.000 C 
BRANCH  10  11
ATOM     11  O   UNL     1       6.500   3.693  12.799  0.00  0.00    +0.000 OA
BRANCH  11  12
ATOM     12  C   UNL     1       5.739   2.844  11.947  0.00  0.00    +0.000 C 
BRANCH  12  14
ATOM     13  C   UNL     1       3.544   3.128  10.763  0.00  0.00    +0.000 C 
ATOM     14  C   UNL     1       4.453   3.544  11.656  0.00  0.00    +0.000 C 
ENDBRANCH  12  14
ENDBRANCH  11  12
ENDBRANCH  10  11
ENDBRANCH   7  10
ENDBRANCH   6   7
ENDBRANCH   1   6
BRANCH   1  15
ATOM     15  C   UNL     1       5.723   3.982  18.168  0.00  0.00    +0.000 C 
BRANCH  15  16
ATOM     16  C   UNL     1       4.236   3.943  18.474  0.00  0.00    +0.000 A 
ATOM     17  C   UNL     1       3.308   4.474  17.565  0.00  0.00    +0.000 A 
ATOM     18  C   UNL     1       1.964   4.617  17.925  0.00  0.00    +0.000 A 
ATOM     19  C   UNL     1       1.532   4.244  19.199  0.00  0.00    +0.000 A 
ATOM     20  C   UNL     1       2.424   3.651  20.091  0.00  0.00    +0.000 A 
ATOM     21  C   UNL     1       2.043   3.327  21.505  0.00  0.00    +0.000 C 
ATOM     22  C   UNL     1       3.748   3.446  19.690  0.00  0.00    +0.000 A 
ENDBRANCH  15  16
ENDBRANCH   1  15
TORSDOF 11
ENDMDL
MODEL 2
REMARK VINA RESULT:      -6.8      1.263      1.949
REMARK  Name = 
REMARK  14 active torsions:
REMARK  status: ('A' for Active; 'I' for Inactive)
REMARK    1  A    between atoms: C_2  and  C_3
REMARK    2  A    between atoms: C_3  and  O_4
REMARK    3  A    between atoms: O_4  and  C_5
REMARK    4  A    between atoms: C_5  and  C_6
REMARK    5  A    between atoms: C_6  and  O_7
REMARK    6  A    between atoms: C_6  and  C_8
REMARK    7  A    between atoms: C_8  and  N_9
REMARK    8  A    between atoms: N_9  and  C_10
REMARK    9  A    between atoms: N_9  and  C_18
REMARK   10  A    between atoms: C_10  and  C_11
REMARK   11  A    between atoms: C_15  and  C_16
REMARK   12  A    between atoms: C_18  and  C_19
REMARK   13  A    between atoms: C_18  and  C_20
REMARK   14  A    between atoms: C_20  and  C_21
REMARK                            x       y       z     vdW  Elec       q    Type
REMARK                         _______ _______ _______ _____ _____    ______ ____
ROOT
ATOM      1  N   UNL     1       5.005   5.590  17.378  0.00  0.00    +0.000 NA
ENDROOT
BRANCH   1   2
ATOM      2  C   UNL     1       5.682   5.318  18.674  0.00  0.00    +0.000 C 
ATOM      3  C   UNL     1       5.416   3.935  19.294  0.00  0.00    +0.000 C 
BRANCH   2   4
ATOM      4  C   UNL     1       7.227   5.483  18.611  0.00  0.00    +0.000 C 
ATOM      5  C   UNL     1       7.704   6.876  18.232  0.00  0.00    +0.000 C 
ENDBRANCH   2   4
ENDBRANCH   1   2
BRANCH   1   6
ATOM      6  C   UNL     1       5.070   4.477  16.419  0.00  0.00    +0.000 C 
BRANCH   6   7
ATOM      7  C   UNL     1       6.067   4.607  15.243  0.00  0.00    +0.000 C 
BRANCH   7   8
ATOM      8  O   UNL     1       6.457   5.991  15.155  0.00  0.00    +0.000 OA
ATOM      9  H   UNL     1       7.311   6.030  14.700  0.00  0.00    +0.000 HD
ENDBRANCH   7   8
BRANCH   7  10
ATOM     10  C   UNL     1       5.444   4.120  13.928  0.00  0.00    +0.000 C 
BRANCH  10  11
ATOM     11  O   UNL     1       6.460   3.526  13.115  0.00  0.00    +0.000 OA
BRANCH  11  12
ATOM     12  C   UNL     1       5.919   2.977  11.918  0.00  0.00    +0.000 C 
BRANCH  12  14
ATOM     13  C   UNL     1       3.689   3.250  10.796  0.00  0.00    +0.000 C 
ATOM     14  C   UNL     1       4.467   3.327  11.885  0.00  0.00    +0.000 C 
ENDBRANCH  12  14
ENDBRANCH  11  12
ENDBRANCH  10  11
ENDBRANCH   7  10
ENDBRANCH   6   7
ENDBRANCH   1   6
BRANCH   1  15
ATOM     15  C   UNL     1       3.677   6.249  17.496  0.00  0.00    +0.000 C 
BRANCH  15  16
ATOM     16  C   UNL     1       2.669   5.646  18.459  0.00  0.00    +0.000 A 
ATOM     17  C   UNL     1       2.456   6.223  19.721  0.00  0.00    +0.000 A 
ATOM     18  C   UNL     1       1.679   5.566  20.680  0.00  0.00    +0.000 A 
ATOM     19  C   UNL     1       1.114   4.321  20.397  0.00  0.00    +0.000 A 
ATOM     20  C   UNL     1       1.257   3.764  19.127  0.00  0.00    +0.000 A 
ATOM     21  C   UNL     1       0.763   2.386  18.799  0.00  0.00    +0.000 C 
ATOM     22  C   UNL     1       1.973   4.469  18.155  0.00  0.00    +0.000 A 
ENDBRANCH  15  16
ENDBRANCH   1  15
TORSDOF 11
ENDMDL
MODEL 3
REMARK VINA RESULT:      -6.7      2.262      6.473
REMARK  Name = 
REMARK  14 active torsions:
REMARK  status: ('A' for Active; 'I' for Inactive)
REMARK    1  A    between atoms: C_2  and  C_3
REMARK    2  A    between atoms: C_3  and  O_4
REMARK    3  A    between atoms: O_4  and  C_5
REMARK    4  A    between atoms: C_5  and  C_6
REMARK    5  A    between atoms: C_6  and  O_7
REMARK    6  A    between atoms: C_6  and  C_8
REMARK    7  A    between atoms: C_8  and  N_9
REMARK    8  A    between atoms: N_9  and  C_10
REMARK    9  A    between atoms: N_9  and  C_18
REMARK   10  A    between atoms: C_10  and  C_11
REMARK   11  A    between atoms: C_15  and  C_16
REMARK   12  A    between atoms: C_18  and  C_19
REMARK   13  A    between atoms: C_18  and  C_20
REMARK   14  A    between atoms: C_20  and  C_21
REMARK                            x       y       z     vdW  Elec       q    Type
REMARK                         _______ _______ _______ _____ _____    ______ ____
ROOT
ATOM      1  N   UNL     1       5.820   4.753  17.003  0.00  0.00    +0.000 NA
ENDROOT
BRANCH   1   2
ATOM      2  C   UNL     1       6.415   5.754  17.929  0.00  0.00    +0.000 C 
ATOM      3  C   UNL     1       7.795   5.396  18.508  0.00  0.00    +0.000 C 
BRANCH   2   4
ATOM      4  C   UNL     1       6.553   7.170  17.303  0.00  0.00    +0.000 C 
ATOM      5  C   UNL     1       7.818   7.918  17.691  0.00  0.00    +0.000 C 
ENDBRANCH   2   4
ENDBRANCH   1   2
BRANCH   1   6
ATOM      6  C   UNL     1       4.859   3.840  17.640  0.00  0.00    +0.000 C 
BRANCH   6   7
ATOM      7  C   UNL     1       4.651   3.975  19.166  0.00  0.00    +0.000 C 
BRANCH   7   8
ATOM      8  O   UNL     1       5.012   2.716  19.767  0.00  0.00    +0.000 OA
ATOM      9  H   UNL     1       5.688   2.304  19.209  0.00  0.00    +0.000 HD
ENDBRANCH   7   8
BRANCH   7  10
ATOM     10  C   UNL     1       3.203   4.355  19.500  0.00  0.00    +0.000 C 
BRANCH  10  11
ATOM     11  O   UNL     1       2.312   3.594  18.681  0.00  0.00    +0.000 OA
BRANCH  11  12
ATOM     12  C   UNL     1       1.111   3.270  19.372  0.00  0.00    +0.000 C 
BRANCH  12  14
ATOM     13  C   UNL     1       1.311   2.552  21.769  0.00  0.00    +0.000 C 
ATOM     14  C   UNL     1       1.357   3.503  20.825  0.00  0.00    +0.000 C 
ENDBRANCH  12  14
ENDBRANCH  11  12
ENDBRANCH  10  11
ENDBRANCH   7  10
ENDBRANCH   6   7
ENDBRANCH   1   6
BRANCH   1  15
ATOM     15  C   UNL     1       5.400   5.298  15.685  0.00  0.00    +0.000 C 
BRANCH  15  16
ATOM     16  C   UNL     1       6.100   4.774  14.444  0.00  0.00    +0.000 A 
ATOM     17  C   UNL     1       7.273   5.386  13.976  0.00  0.00    +0.000 A 
ATOM     18  C   UNL     1       7.810   5.034  12.733  0.00  0.00    +0.000 A 
ATOM     19  C   UNL     1       7.178   4.077  11.938  0.00  0.00    +0.000 A 
ATOM     20  C   UNL     1       6.052   3.409  12.414  0.00  0.00    +0.000 A 
ATOM     21  C   UNL     1       5.273   2.450  11.564  0.00  0.00    +0.000 C 
ATOM     22  C   UNL     1       5.570   3.718  13.690  0.00  0.00    +0.000 A 
ENDBRANCH  15  16
ENDBRANCH   1  15
TORSDOF 11
ENDMDL
MODEL 4
REMARK VINA RESULT:      -6.7      1.384      2.095
REMARK  Name = 
REMARK  14 active torsions:
REMARK  status: ('A' for Active; 'I' for Inactive)
REMARK    1  A    between atoms: C_2  and  C_3
REMARK    2  A    between atoms: C_3  and  O_4
REMARK    3  A    between atoms: O_4  and  C_5
REMARK    4  A    between atoms: C_5  and  C_6
REMARK    5  A    between atoms: C_6  and  O_7
REMARK    6  A    between atoms: C_6  and  C_8
REMARK    7  A    between atoms: C_8  and  N_9
REMARK    8  A    between atoms: N_9  and  C_10
REMARK    9  A    between atoms: N_9  and  C_18
REMARK   10  A    between atoms: C_10  and  C_11
REMARK   11  A    between atoms: C_15  and  C_16
REMARK   12  A    between atoms: C_18  and  C_19
REMARK   13  A    between atoms: C_18  and  C_20
REMARK   14  A    between atoms: C_20  and  C_21
REMARK                            x       y       z     vdW  Elec       q    Type
REMARK                         _______ _______ _______ _____ _____    ______ ____
ROOT
ATOM      1  N   UNL     1       6.391   5.850  15.937  0.00  0.00    +0.000 NA
ENDROOT
BRANCH   1   2
ATOM      2  C   UNL     1       7.421   6.209  16.949  0.00  0.00    +0.000 C 
ATOM      3  C   UNL     1       7.255   7.586  17.616  0.00  0.00    +0.000 C 
BRANCH   2   4
ATOM      4  C   UNL     1       7.543   5.173  18.101  0.00  0.00    +0.000 C 
ATOM      5  C   UNL     1       7.674   5.777  19.490  0.00  0.00    +0.000 C 
ENDBRANCH   2   4
ENDBRANCH   1   2
BRANCH   1   6
ATOM      6  C   UNL     1       6.488   4.467  15.443  0.00  0.00    +0.000 C 
BRANCH   6   7
ATOM      7  C   UNL     1       7.006   4.262  14.000  0.00  0.00    +0.000 C 
BRANCH   7   8
ATOM      8  O   UNL     1       7.595   5.503  13.569  0.00  0.00    +0.000 OA
ATOM      9  H   UNL     1       8.557   5.391  13.568  0.00  0.00    +0.000 HD
ENDBRANCH   7   8
BRANCH   7  10
ATOM     10  C   UNL     1       5.875   3.826  13.059  0.00  0.00    +0.000 C 
BRANCH  10  11
ATOM     11  O   UNL     1       6.373   2.849  12.141  0.00  0.00    +0.000 OA
BRANCH  11  12
ATOM     12  C   UNL     1       5.331   2.305  11.339  0.00  0.00    +0.000 C 
BRANCH  12  14
ATOM     13  C   UNL     1       3.285   3.406  10.388  0.00  0.00    +0.000 C 
ATOM     14  C   UNL     1       4.198   3.277  11.360  0.00  0.00    +0.000 C 
ENDBRANCH  12  14
ENDBRANCH  11  12
ENDBRANCH  10  11
ENDBRANCH   7  10
ENDBRANCH   6   7
ENDBRANCH   1   6
BRANCH   1  15
ATOM     15  C   UNL     1       5.015   6.313  16.258  0.00  0.00    +0.000 C 
BRANCH  15  16
ATOM     16  C   UNL     1       4.237   5.550  17.316  0.00  0.00    +0.000 A 
ATOM     17  C   UNL     1       3.944   6.145  18.553  0.00  0.00    +0.000 A 
ATOM     18  C   UNL     1       3.403   5.386  19.595  0.00  0.00    +0.000 A 
ATOM     19  C   UNL     1       3.159   4.023  19.422  0.00  0.00    +0.000 A 
ATOM     20  C   UNL     1       3.379   3.429  18.180  0.00  0.00    +0.000 A 
ATOM     21  C   UNL     1       3.234   1.951  17.965  0.00  0.00    +0.000 C 
ATOM     22  C   UNL     1       3.849   4.217  17.125  0.00  0.00    +0.000 A 
ENDBRANCH  15  16
ENDBRANCH   1  15
TORSDOF 11
ENDMDL
MODEL 5
REMARK VINA RESULT:      -6.7      3.273      5.559
REMARK  Name = 
REMARK  14 active torsions:
REMARK  status: ('A' for Active; 'I' for Inactive)
REMARK    1  A    between atoms: C_2  and  C_3
REMARK    2  A    between atoms: C_3  and  O_4
REMARK    3  A    between atoms: O_4  and  C_5
REMARK    4  A    between atoms: C_5  and  C_6
REMARK    5  A    between atoms: C_6  and  O_7
REMARK    6  A    between atoms: C_6  and  C_8
REMARK    7  A    between atoms: C_8  and  N_9
REMARK    8  A    between atoms: N_9  and  C_10
REMARK    9  A    between atoms: N_9  and  C_18
REMARK   10  A    between atoms: C_10  and  C_11
REMARK   11  A    between atoms: C_15  and  C_16
REMARK   12  A    between atoms: C_18  and  C_19
REMARK   13  A    between atoms: C_18  and  C_20
REMARK   14  A    between atoms: C_20  and  C_21
REMARK                            x       y       z     vdW  Elec       q    Type
REMARK                         _______ _______ _______ _____ _____    ______ ____
ROOT
ATOM      1  N   UNL     1       3.944   5.642  17.303  0.00  0.00    +0.000 NA
ENDROOT
BRANCH   1   2
ATOM      2  C   UNL     1       5.206   6.177  16.725  0.00  0.00    +0.000 C 
ATOM      3  C   UNL     1       6.449   6.088  17.628  0.00  0.00    +0.000 C 
BRANCH   2   4
ATOM      4  C   UNL     1       5.594   5.517  15.372  0.00  0.00    +0.000 C 
ATOM      5  C   UNL     1       6.927   4.787  15.379  0.00  0.00    +0.000 C 
ENDBRANCH   2   4
ENDBRANCH   1   2
BRANCH   1   6
ATOM      6  C   UNL     1       3.729   4.208  17.059  0.00  0.00    +0.000 C 
BRANCH   6   7
ATOM      7  C   UNL     1       3.688   3.274  18.292  0.00  0.00    +0.000 C 
BRANCH   7   8
ATOM      8  O   UNL     1       5.043   2.887  18.589  0.00  0.00    +0.000 OA
ATOM      9  H   UNL     1       5.593   3.683  18.554  0.00  0.00    +0.000 HD
ENDBRANCH   7   8
BRANCH   7  10
ATOM     10  C   UNL     1       2.804   2.047  18.031  0.00  0.00    +0.000 C 
BRANCH  10  11
ATOM     11  O   UNL     1       1.875   1.895  19.108  0.00  0.00    +0.000 OA
BRANCH  11  12
ATOM     12  C   UNL     1       1.010   3.020  19.217  0.00  0.00    +0.000 C 
BRANCH  12  14
ATOM     13  C   UNL     1       1.905   3.048  21.562  0.00  0.00    +0.000 C 
ATOM     14  C   UNL     1       1.006   3.441  20.649  0.00  0.00    +0.000 C 
ENDBRANCH  12  14
ENDBRANCH  11  12
ENDBRANCH  10  11
ENDBRANCH   7  10
ENDBRANCH   6   7
ENDBRANCH   1   6
BRANCH   1  15
ATOM     15  C   UNL     1       3.651   6.101  18.688  0.00  0.00    +0.000 C 
BRANCH  15  16
ATOM     16  C   UNL     1       2.623   7.204  18.867  0.00  0.00    +0.000 A 
ATOM     17  C   UNL     1       2.316   8.072  17.808  0.00  0.00    +0.000 A 
ATOM     18  C   UNL     1       1.522   9.202  18.023  0.00  0.00    +0.000 A 
ATOM     19  C   UNL     1       1.032   9.487  19.299  0.00  0.00    +0.000 A 
ATOM     20  C   UNL     1       1.268   8.602  20.349  0.00  0.00    +0.000 A 
ATOM     21  C   UNL     1       0.858   8.908  21.759  0.00  0.00    +0.000 C 
ATOM     22  C   UNL     1       2.001   7.437  20.101  0.00  0.00    +0.000 A 
ENDBRANCH  15  16
ENDBRANCH   1  15
TORSDOF 11
ENDMDL
MODEL 6
REMARK VINA RESULT:      -6.6      3.011      5.316
REMARK  Name = 
REMARK  14 active torsions:
REMARK  status: ('A' for Active; 'I' for Inactive)
REMARK    1  A    between atoms: C_2  and  C_3
REMARK    2  A    between atoms: C_3  and  O_4
REMARK    3  A    between atoms: O_4  and  C_5
REMARK    4  A    between atoms: C_5  and  C_6
REMARK    5  A    between atoms: C_6  and  O_7
REMARK    6  A    between atoms: C_6  and  C_8
REMARK    7  A    between atoms: C_8  and  N_9
REMARK    8  A    between atoms: N_9  and  C_10
REMARK    9  A    between atoms: N_9  and  C_18
REMARK   10  A    between atoms: C_10  and  C_11
REMARK   11  A    between atoms: C_15  and  C_16
REMARK   12  A    between atoms: C_18  and  C_19
REMARK   13  A    between atoms: C_18  and  C_20
REMARK   14  A    between atoms: C_20  and  C_21
REMARK                            x       y       z     vdW  Elec       q    Type
REMARK                         _______ _______ _______ _____ _____    ______ ____
ROOT
ATOM      1  N   UNL     1       4.977   4.823  17.443  0.00  0.00    +0.000 NA
ENDROOT
BRANCH   1   2
ATOM      2  C   UNL     1       6.452   4.892  17.267  0.00  0.00    +0.000 C 
ATOM      3  C   UNL     1       6.971   4.653  15.838  0.00  0.00    +0.000 C 
BRANCH   2   4
ATOM      4  C   UNL     1       7.068   6.238  17.741  0.00  0.00    +0.000 C 
ATOM      5  C   UNL     1       7.953   6.135  18.974  0.00  0.00    +0.000 C 
ENDBRANCH   2   4
ENDBRANCH   1   2
BRANCH   1   6
ATOM      6  C   UNL     1       4.376   3.554  17.004  0.00  0.00    +0.000 C 
BRANCH   6   7
ATOM      7  C   UNL     1       3.655   2.699  18.073  0.00  0.00    +0.000 C 
BRANCH   7   8
ATOM      8  O   UNL     1       4.193   1.364  17.997  0.00  0.00    +0.000 OA
ATOM      9  H   UNL     1       5.067   1.373  18.413  0.00  0.00    +0.000 HD
ENDBRANCH   7   8
BRANCH   7  10
ATOM     10  C   UNL     1       2.137   2.700  17.856  0.00  0.00    +0.000 C 
BRANCH  10  11
ATOM     11  O   UNL     1       1.519   3.538  18.835  0.00  0.00    +0.000 OA
BRANCH  11  12
ATOM     12  C   UNL     1       0.707   2.787  19.732  0.00  0.00    +0.000 C 
BRANCH  12  14
ATOM     13  C   UNL     1       2.168   3.640  21.587  0.00  0.00    +0.000 C 
ATOM     14  C   UNL     1       1.463   2.655  21.012  0.00  0.00    +0.000 C 
ENDBRANCH  12  14
ENDBRANCH  11  12
ENDBRANCH  10  11
ENDBRANCH   7  10
ENDBRANCH   6   7
ENDBRANCH   1   6
BRANCH   1  15
ATOM     15  C   UNL     1       4.480   5.342  18.745  0.00  0.00    +0.000 C 
BRANCH  15  16
ATOM     16  C   UNL     1       3.436   6.444  18.718  0.00  0.00    +0.000 A 
ATOM     17  C   UNL     1       3.354   7.321  17.626  0.00  0.00    +0.000 A 
ATOM     18  C   UNL     1       2.530   8.450  17.682  0.00  0.00    +0.000 A 
ATOM     19  C   UNL     1       1.787   8.724  18.832  0.00  0.00    +0.000 A 
ATOM     20  C   UNL     1       1.802   7.829  19.900  0.00  0.00    +0.000 A 
ATOM     21  C   UNL     1       1.109   8.123  21.198  0.00  0.00    +0.000 C 
ATOM     22  C   UNL     1       2.572   6.666  19.799  0.00  0.00    +0.000 A 
ENDBRANCH  15  16
ENDBRANCH   1  15
TORSDOF 11
ENDMDL
MODEL 7
REMARK VINA RESULT:      -6.6      1.253      1.685
REMARK  Name = 
REMARK  14 active torsions:
REMARK  status: ('A' for Active; 'I' for Inactive)
REMARK    1  A    between atoms: C_2  and  C_3
REMARK    2  A    between atoms: C_3  and  O_4
REMARK    3  A    between atoms: O_4  and  C_5
REMARK    4  A    between atoms: C_5  and  C_6
REMARK    5  A    between atoms: C_6  and  O_7
REMARK    6  A    between atoms: C_6  and  C_8
REMARK    7  A    between atoms: C_8  and  N_9
REMARK    8  A    between atoms: N_9  and  C_10
REMARK    9  A    between atoms: N_9  and  C_18
REMARK   10  A    between atoms: C_10  and  C_11
REMARK   11  A    between atoms: C_15  and  C_16
REMARK   12  A    between atoms: C_18  and  C_19
REMARK   13  A    between atoms: C_18  and  C_20
REMARK   14  A    between atoms: C_20  and  C_21
REMARK                            x       y       z     vdW  Elec       q    Type
REMARK                         _______ _______ _______ _____ _____    ______ ____
ROOT
ATOM      1  N   UNL     1       5.629   5.723  16.945  0.00  0.00    +0.000 NA
ENDROOT
BRANCH   1   2
ATOM      2  C   UNL     1       6.919   5.991  17.636  0.00  0.00    +0.000 C 
ATOM      3  C   UNL     1       7.471   7.422  17.497  0.00  0.00    +0.000 C 
BRANCH   2   4
ATOM      4  C   UNL     1       6.882   5.678  19.158  0.00  0.00    +0.000 C 
ATOM      5  C   UNL     1       8.236   5.369  19.778  0.00  0.00    +0.000 C 
ENDBRANCH   2   4
ENDBRANCH   1   2
BRANCH   1   6
ATOM      6  C   UNL     1       5.728   5.682  15.478  0.00  0.00    +0.000 C 
BRANCH   6   7
ATOM      7  C   UNL     1       6.770   4.721  14.861  0.00  0.00    +0.000 C 
BRANCH   7   8
ATOM      8  O   UNL     1       7.685   5.514  14.080  0.00  0.00    +0.000 OA
ATOM      9  H   UNL     1       7.495   6.447  14.259  0.00  0.00    +0.000 HD
ENDBRANCH   7   8
BRANCH   7  10
ATOM     10  C   UNL     1       6.095   3.645  14.000  0.00  0.00    +0.000 C 
BRANCH  10  11
ATOM     11  O   UNL     1       6.509   3.797  12.640  0.00  0.00    +0.000 OA
BRANCH  11  12
ATOM     12  C   UNL     1       5.825   2.894  11.779  0.00  0.00    +0.000 C 
BRANCH  12  14
ATOM     13  C   UNL     1       3.642   3.414  10.654  0.00  0.00    +0.000 C 
ATOM     14  C   UNL     1       4.388   3.298  11.761  0.00  0.00    +0.000 C 
ENDBRANCH  12  14
ENDBRANCH  11  12
ENDBRANCH  10  11
ENDBRANCH   7  10
ENDBRANCH   6   7
ENDBRANCH   1   6
BRANCH   1  15
ATOM     15  C   UNL     1       4.810   4.643  17.556  0.00  0.00    +0.000 C 
BRANCH  15  16
ATOM     16  C   UNL     1       3.644   5.049  18.441  0.00  0.00    +0.000 A 
ATOM     17  C   UNL     1       3.346   6.405  18.647  0.00  0.00    +0.000 A 
ATOM     18  C   UNL     1       2.404   6.786  19.608  0.00  0.00    +0.000 A 
ATOM     19  C   UNL     1       1.757   5.822  20.382  0.00  0.00    +0.000 A 
ATOM     20  C   UNL     1       1.988   4.469  20.145  0.00  0.00    +0.000 A 
ATOM     21  C   UNL     1       1.403   3.394  21.013  0.00  0.00    +0.000 C 
ATOM     22  C   UNL     1       2.877   4.101  19.129  0.00  0.00    +0.000 A 
ENDBRANCH  15  16
ENDBRANCH   1  15
TORSDOF 11
ENDMDL
MODEL 8
REMARK VINA RESULT:      -6.6      1.468      1.781
REMARK  Name = 
REMARK  14 active torsions:
REMARK  status: ('A' for Active; 'I' for Inactive)
REMARK    1  A    between atoms: C_2  and  C_3
REMARK    2  A    between atoms: C_3  and  O_4
REMARK    3  A    between atoms: O_4  and  C_5
REMARK    4  A    between atoms: C_5  and  C_6
REMARK    5  A    between atoms: C_6  and  O_7
REMARK    6  A    between atoms: C_6  and  C_8
REMARK    7  A    between atoms: C_8  and  N_9
REMARK    8  A    between atoms: N_9  and  C_10
REMARK    9  A    between atoms: N_9  and  C_18
REMARK   10  A    between atoms: C_10  and  C_11
REMARK   11  A    between atoms: C_15  and  C_16
REMARK   12  A    between atoms: C_18  and  C_19
REMARK   13  A    between atoms: C_18  and  C_20
REMARK   14  A    between atoms: C_20  and  C_21
REMARK                            x       y       z     vdW  Elec       q    Type
REMARK                         _______ _______ _______ _____ _____    ______ ____
ROOT
ATOM      1  N   UNL     1       4.951   5.262  16.230  0.00  0.00    +0.000 NA
ENDROOT
BRANCH   1   2
ATOM      2  C   UNL     1       5.293   6.583  16.822  0.00  0.00    +0.000 C 
ATOM      3  C   UNL     1       4.144   7.318  17.535  0.00  0.00    +0.000 C 
BRANCH   2   4
ATOM      4  C   UNL     1       6.472   6.519  17.834  0.00  0.00    +0.000 C 
ATOM      5  C   UNL     1       7.580   7.530  17.585  0.00  0.00    +0.000 C 
ENDBRANCH   2   4
ENDBRANCH   1   2
BRANCH   1   6
ATOM      6  C   UNL     1       5.282   5.137  14.802  0.00  0.00    +0.000 C 
BRANCH   6   7
ATOM      7  C   UNL     1       6.573   4.367  14.435  0.00  0.00    +0.000 C 
BRANCH   7   8
ATOM      8  O   UNL     1       7.684   5.262  14.634  0.00  0.00    +0.000 OA
ATOM      9  H   UNL     1       7.907   5.253  15.577  0.00  0.00    +0.000 HD
ENDBRANCH   7   8
BRANCH   7  10
ATOM     10  C   UNL     1       6.524   3.855  12.990  0.00  0.00    +0.000 C 
BRANCH  10  11
ATOM     11  O   UNL     1       5.160   3.698  12.589  0.00  0.00    +0.000 OA
BRANCH  11  12
ATOM     12  C   UNL     1       5.011   2.654  11.633  0.00  0.00    +0.000 C 
BRANCH  12  14
ATOM     13  C   UNL     1       3.423   4.050  10.281  0.00  0.00    +0.000 C 
ATOM     14  C   UNL     1       3.736   2.902  10.898  0.00  0.00    +0.000 C 
ENDBRANCH  12  14
ENDBRANCH  11  12
ENDBRANCH  10  11
ENDBRANCH   7  10
ENDBRANCH   6   7
ENDBRANCH   1   6
BRANCH   1  15
ATOM     15  C   UNL     1       5.315   4.090  17.071  0.00  0.00    +0.000 C 
BRANCH  15  16
ATOM     16  C   UNL     1       4.247   3.510  17.981  0.00  0.00    +0.000 A 
ATOM     17  C   UNL     1       3.514   2.380  17.589  0.00  0.00    +0.000 A 
ATOM     18  C   UNL     1       2.404   1.961  18.330  0.00  0.00    +0.000 A 
ATOM     19  C   UNL     1       2.006   2.670  19.465  0.00  0.00    +0.000 A 
ATOM     20  C   UNL     1       2.762   3.753  19.909  0.00  0.00    +0.000 A 
ATOM     21  C   UNL     1       2.325   4.614  21.057  0.00  0.00    +0.000 C 
ATOM     22  C   UNL     1       3.912   4.114  19.200  0.00  0.00    +0.000 A 
ENDBRANCH  15  16
ENDBRANCH   1  15
TORSDOF 11
ENDMDL
MODEL 9
REMARK VINA RESULT:      -6.6      2.872      4.882
REMARK  Name = 
REMARK  14 active torsions:
REMARK  status: ('A' for Active; 'I' for Inactive)
REMARK    1  A    between atoms: C_2  and  C_3
REMARK    2  A    between atoms: C_3  and  O_4
REMARK    3  A    between atoms: O_4  and  C_5
REMARK    4  A    between atoms: C_5  and  C_6
REMARK    5  A    between atoms: C_6  and  O_7
REMARK    6  A    between atoms: C_6  and  C_8
REMARK    7  A    between atoms: C_8  and  N_9
REMARK    8  A    between atoms: N_9  and  C_10
REMARK    9  A    between atoms: N_9  and  C_18
REMARK   10  A    between atoms: C_10  and  C_11
REMARK   11  A    between atoms: C_15  and  C_16
REMARK   12  A    between atoms: C_18  and  C_19
REMARK   13  A    between atoms: C_18  and  C_20
REMARK   14  A    between atoms: C_20  and  C_21
REMARK                            x       y       z     vdW  Elec       q    Type
REMARK                         _______ _______ _______ _____ _____    ______ ____
ROOT
ATOM      1  N   UNL     1       2.964   4.166  19.119  0.00  0.00    +0.000 NA
ENDROOT
BRANCH   1   2
ATOM      2  C   UNL     1       1.539   3.874  19.428  0.00  0.00    +0.000 C 
ATOM      3  C   UNL     1       0.910   2.701  18.656  0.00  0.00    +0.000 C 
BRANCH   2   4
ATOM      4  C   UNL     1       1.277   3.601  20.936  0.00  0.00    +0.000 C 
ATOM      5  C   UNL     1       2.299   2.696  21.606  0.00  0.00    +0.000 C 
ENDBRANCH   2   4
ENDBRANCH   1   2
BRANCH   1   6
ATOM      6  C   UNL     1       3.360   3.844  17.739  0.00  0.00    +0.000 C 
BRANCH   6   7
ATOM      7  C   UNL     1       4.834   3.443  17.496  0.00  0.00    +0.000 C 
BRANCH   7   8
ATOM      8  O   UNL     1       5.432   3.183  18.781  0.00  0.00    +0.000 OA
ATOM      9  H   UNL     1       6.281   3.648  18.812  0.00  0.00    +0.000 HD
ENDBRANCH   7   8
BRANCH   7  10
ATOM     10  C   UNL     1       5.593   4.542  16.742  0.00  0.00    +0.000 C 
BRANCH  10  11
ATOM     11  O   UNL     1       6.544   3.942  15.859  0.00  0.00    +0.000 OA
BRANCH  11  12
ATOM     12  C   UNL     1       6.619   4.635  14.618  0.00  0.00    +0.000 C 
BRANCH  12  14
ATOM     13  C   UNL     1       6.385   3.533  12.375  0.00  0.00    +0.000 C 
ATOM     14  C   UNL     1       5.913   3.802  13.600  0.00  0.00    +0.000 C 
ENDBRANCH  12  14
ENDBRANCH  11  12
ENDBRANCH  10  11
ENDBRANCH   7  10
ENDBRANCH   6   7
ENDBRANCH   1   6
BRANCH   1  15
ATOM     15  C   UNL     1       3.458   5.472  19.632  0.00  0.00    +0.000 C 
BRANCH  15  16
ATOM     16  C   UNL     1       2.593   6.698  19.400  0.00  0.00    +0.000 A 
ATOM     17  C   UNL     1       2.549   7.312  18.139  0.00  0.00    +0.000 A 
ATOM     18  C   UNL     1       1.913   8.546  17.972  0.00  0.00    +0.000 A 
ATOM     19  C   UNL     1       1.322   9.188  19.061  0.00  0.00    +0.000 A 
ATOM     20  C   UNL     1       1.295   8.563  20.306  0.00  0.00    +0.000 A 
ATOM     21  C   UNL     1       0.769   9.249  21.533  0.00  0.00    +0.000 C 
ATOM     22  C   UNL     1       1.869   7.295  20.442  0.00  0.00    +0.000 A 
ENDBRANCH  15  16
ENDBRANCH   1  15
TORSDOF 11
ENDMDL
