MODEL 1
REMARK VINA RESULT:      -6.7      0.000      0.000
REMARK  Name = 
REMARK  4 active torsions:
REMARK  status: ('A' for Active; 'I' for Inactive)
REMARK    1  A    between atoms: C_1  and  N_2
REMARK    2  A    between atoms: C_3  and  O_4
REMARK    3  A    between atoms: O_4  and  C_5
REMARK    4  A    between atoms: C_5  and  C_6
REMARK                            x       y       z     vdW  Elec       q    Type
REMARK                         _______ _______ _______ _____ _____    ______ ____
ROOT
ATOM      1  C   UNL     1       4.850   3.254  19.189  0.00  0.00    +0.000 C 
ATOM      2  N   UNL     1       4.763   4.426  18.355  0.00  0.00    +0.000 N 
ATOM      3  C   UNL     1       4.257   5.660  18.680  0.00  0.00    +0.000 A 
ATOM      4  N   UNL     1       4.383   6.502  17.673  0.00  0.00    +0.000 NA
ATOM      5  C   UNL     1       4.958   5.786  16.660  0.00  0.00    +0.000 A 
ATOM      6  C   UNL     1       5.299   6.194  15.363  0.00  0.00    +0.000 A 
ATOM      7  C   UNL     1       5.873   5.264  14.485  0.00  0.00    +0.000 A 
ATOM      8  C   UNL     1       6.100   3.947  14.899  0.00  0.00    +0.000 A 
ATOM      9  C   UNL     1       5.775   3.524  16.193  0.00  0.00    +0.000 A 
ATOM     10  C   UNL     1       5.201   4.473  17.050  0.00  0.00    +0.000 A 
ENDROOT
BRANCH   3  11
ATOM     11  O   UNL     1       3.703   5.974  19.858  0.00  0.00    +0.000 OA
BRANCH  11  12
ATOM     12  C   UNL     1       2.276   6.140  19.768  0.00  0.00    +0.000 C 
BRANCH  12  13
ATOM     13  C   UNL     1       1.498   4.867  20.138  0.00  0.00    +0.000 C 
ATOM     14  C   UNL     1       2.160   4.073  21.273  0.00  0.00    +0.000 C 
ATOM     15  C   UNL     1       1.446   2.742  21.489  0.00  0.00    +0.000 C 
ATOM     16  O   UNL     1       1.426   1.974  20.286  0.00  0.00    +0.000 OA
ATOM     17  C   UNL     1       0.705   2.630  19.244  0.00  0.00    +0.000 C 
ATOM     18  C   UNL     1       1.361   3.963  18.898  0.00  0.00    +0.000 C 
ENDBRANCH  12  13
ENDBRANCH  11  12
ENDBRANCH   3  11
TORSDOF 3
ENDMDL
MODEL 2
REMARK VINA RESULT:      -6.6      2.098      5.550
REMARK  Name = 
REMARK  4 active torsions:
REMARK  status: ('A' for Active; 'I' for Inactive)
REMARK    1  A    between atoms: C_1  and  N_2
REMARK    2  A    between atoms: C_3  and  O_4
REMARK    3  A    between atoms: O_4  and  C_5
REMARK    4  A    between atoms: C_5  and  C_6
REMARK                            x       y       z     vdW  Elec       q    Type
REMARK                         _______ _______ _______ _____ _____    ______ ____
ROOT
ATOM      1  C   UNL     1       2.278   7.188  20.083  0.00  0.00    +0.000 C 
ATOM      2  N   UNL     1       2.372   6.019  19.246  0.00  0.00    +0.000 N 
ATOM      3  C   UNL     1       2.841   5.936  17.959  0.00  0.00    +0.000 A 
ATOM      4  N   UNL     1       2.817   4.690  17.527  0.00  0.00    +0.000 NA
ATOM      5  C   UNL     1       2.289   3.952  18.551  0.00  0.00    +0.000 A 
ATOM      6  C   UNL     1       2.030   2.576  18.616  0.00  0.00    +0.000 A 
ATOM      7  C   UNL     1       1.465   2.044  19.783  0.00  0.00    +0.000 A 
ATOM      8  C   UNL     1       1.164   2.876  20.866  0.00  0.00    +0.000 A 
ATOM      9  C   UNL     1       1.425   4.251  20.823  0.00  0.00    +0.000 A 
ATOM     10  C   UNL     1       1.988   4.757  19.644  0.00  0.00    +0.000 A 
ENDROOT
BRANCH   3  11
ATOM     11  O   UNL     1       3.265   6.976  17.229  0.00  0.00    +0.000 OA
BRANCH  11  12
ATOM     12  C   UNL     1       4.689   7.168  17.323  0.00  0.00    +0.000 C 
BRANCH  12  13
ATOM     13  C   UNL     1       5.483   5.861  17.169  0.00  0.00    +0.000 C 
ATOM     14  C   UNL     1       6.786   5.856  17.980  0.00  0.00    +0.000 C 
ATOM     15  C   UNL     1       7.614   4.613  17.666  0.00  0.00    +0.000 C 
ATOM     16  O   UNL     1       7.892   4.526  16.269  0.00  0.00    +0.000 OA
ATOM     17  C   UNL     1       6.702   4.400  15.493  0.00  0.00    +0.000 C 
ATOM     18  C   UNL     1       5.808   5.621  15.683  0.00  0.00    +0.000 C 
ENDBRANCH  12  13
ENDBRANCH  11  12
ENDBRANCH   3  11
TORSDOF 3
ENDMDL
MODEL 3
REMARK VINA RESULT:      -6.6      2.379      5.705
REMARK  Name = 
REMARK  4 active torsions:
REMARK  status: ('A' for Active; 'I' for Inactive)
REMARK    1  A    between atoms: C_1  and  N_2
REMARK    2  A    between atoms: C_3  and  O_4
REMARK    3  A    between atoms: O_4  and  C_5
REMARK    4  A    between atoms: C_5  and  C_6
REMARK                            x       y       z     vdW  Elec       q    Type
REMARK                         _______ _______ _______ _____ _____    ______ ____
ROOT
ATOM      1  C   UNL     1       2.187   4.710  21.104  0.00  0.00    +0.000 C 
ATOM      2  N   UNL     1       2.377   5.579  19.970  0.00  0.00    +0.000 N 
ATOM      3  C   UNL     1       2.971   5.284  18.768  0.00  0.00    +0.000 A 
ATOM      4  N   UNL     1       2.925   6.319  17.952  0.00  0.00    +0.000 NA
ATOM      5  C   UNL     1       2.313   7.319  18.655  0.00  0.00    +0.000 A 
ATOM      6  C   UNL     1       2.024   8.635  18.265  0.00  0.00    +0.000 A 
ATOM      7  C   UNL     1       1.394   9.492  19.178  0.00  0.00    +0.000 A 
ATOM      8  C   UNL     1       1.061   9.042  20.459  0.00  0.00    +0.000 A 
ATOM      9  C   UNL     1       1.332   7.729  20.863  0.00  0.00    +0.000 A 
ATOM     10  C   UNL     1       1.964   6.893  19.932  0.00  0.00    +0.000 A 
ENDROOT
BRANCH   3  11
ATOM     11  O   UNL     1       3.528   4.107  18.458  0.00  0.00    +0.000 OA
BRANCH  11  12
ATOM     12  C   UNL     1       3.727   3.949  17.040  0.00  0.00    +0.000 C 
BRANCH  12  13
ATOM     13  C   UNL     1       5.211   3.879  16.646  0.00  0.00    +0.000 C 
ATOM     14  C   UNL     1       6.135   4.527  17.686  0.00  0.00    +0.000 C 
ATOM     15  C   UNL     1       7.572   4.579  17.174  0.00  0.00    +0.000 C 
ATOM     16  O   UNL     1       7.644   5.280  15.932  0.00  0.00    +0.000 OA
ATOM     17  C   UNL     1       6.896   4.630  14.906  0.00  0.00    +0.000 C 
ATOM     18  C   UNL     1       5.419   4.565  15.283  0.00  0.00    +0.000 C 
ENDBRANCH  12  13
ENDBRANCH  11  12
ENDBRANCH   3  11
TORSDOF 3
ENDMDL
MODEL 4
REMARK VINA RESULT:      -6.5      2.097      3.114
REMARK  Name = 
REMARK  4 active torsions:
REMARK  status: ('A' for Active; 'I' for Inactive)
REMARK    1  A    between atoms: C_1  and  N_2
REMARK    2  A    between atoms: C_3  and  O_4
REMARK    3  A    between atoms: O_4  and  C_5
REMARK    4  A    between atoms: C_5  and  C_6
REMARK                            x       y       z     vdW  Elec       q    Type
REMARK                         _______ _______ _______ _____ _____    ______ ____
ROOT
ATOM      1  C   UNL     1       4.883   4.393  15.313  0.00  0.00    +0.000 C 
ATOM      2  N   UNL     1       5.272   4.421  16.701  0.00  0.00    +0.000 N 
ATOM      3  C   UNL     1       4.827   3.618  17.720  0.00  0.00    +0.000 A 
ATOM      4  N   UNL     1       5.442   3.906  18.852  0.00  0.00    +0.000 NA
ATOM      5  C   UNL     1       6.284   4.944  18.562  0.00  0.00    +0.000 A 
ATOM      6  C   UNL     1       7.158   5.644  19.405  0.00  0.00    +0.000 A 
ATOM      7  C   UNL     1       7.920   6.694  18.876  0.00  0.00    +0.000 A 
ATOM      8  C   UNL     1       7.808   7.039  17.525  0.00  0.00    +0.000 A 
ATOM      9  C   UNL     1       6.948   6.345  16.666  0.00  0.00    +0.000 A 
ATOM     10  C   UNL     1       6.196   5.301  17.221  0.00  0.00    +0.000 A 
ENDROOT
BRANCH   3  11
ATOM     11  O   UNL     1       3.892   2.668  17.594  0.00  0.00    +0.000 OA
BRANCH  11  12
ATOM     12  C   UNL     1       2.573   3.216  17.412  0.00  0.00    +0.000 C 
BRANCH  12  13
ATOM     13  C   UNL     1       1.829   3.445  18.738  0.00  0.00    +0.000 C 
ATOM     14  C   UNL     1       2.107   4.827  19.345  0.00  0.00    +0.000 C 
ATOM     15  C   UNL     1       1.483   4.943  20.733  0.00  0.00    +0.000 C 
ATOM     16  O   UNL     1       1.960   3.910  21.594  0.00  0.00    +0.000 OA
ATOM     17  C   UNL     1       1.606   2.612  21.122  0.00  0.00    +0.000 C 
ATOM     18  C   UNL     1       2.224   2.355  19.751  0.00  0.00    +0.000 C 
ENDBRANCH  12  13
ENDBRANCH  11  12
ENDBRANCH   3  11
TORSDOF 3
ENDMDL
MODEL 5
REMARK VINA RESULT:      -6.5      2.790      6.649
REMARK  Name = 
REMARK  4 active torsions:
REMARK  status: ('A' for Active; 'I' for Inactive)
REMARK    1  A    between atoms: C_1  and  N_2
REMARK    2  A    between atoms: C_3  and  O_4
REMARK    3  A    between atoms: O_4  and  C_5
REMARK    4  A    between atoms: C_5  and  C_6
REMARK                            x       y       z     vdW  Elec       q    Type
REMARK                         _______ _______ _______ _____ _____    ______ ____
ROOT
ATOM      1  C   UNL     1       5.644   5.193  19.437  0.00  0.00    +0.000 C 
ATOM      2  N   UNL     1       4.559   4.540  18.748  0.00  0.00    +0.000 N 
ATOM      3  C   UNL     1       4.533   4.082  17.454  0.00  0.00    +0.000 A 
ATOM      4  N   UNL     1       3.381   3.499  17.183  0.00  0.00    +0.000 NA
ATOM      5  C   UNL     1       2.631   3.611  18.322  0.00  0.00    +0.000 A 
ATOM      6  C   UNL     1       1.323   3.175  18.574  0.00  0.00    +0.000 A 
ATOM      7  C   UNL     1       0.754   3.420  19.830  0.00  0.00    +0.000 A 
ATOM      8  C   UNL     1       1.481   4.091  20.818  0.00  0.00    +0.000 A 
ATOM      9  C   UNL     1       2.792   4.526  20.589  0.00  0.00    +0.000 A 
ATOM     10  C   UNL     1       3.336   4.270  19.323  0.00  0.00    +0.000 A 
ENDROOT
BRANCH   3  11
ATOM     11  O   UNL     1       5.536   4.208  16.577  0.00  0.00    +0.000 OA
BRANCH  11  12
ATOM     12  C   UNL     1       5.115   3.961  15.222  0.00  0.00    +0.000 C 
BRANCH  12  13
ATOM     13  C   UNL     1       6.288   3.897  14.231  0.00  0.00    +0.000 C 
ATOM     14  C   UNL     1       7.049   5.226  14.123  0.00  0.00    +0.000 C 
ATOM     15  C   UNL     1       8.094   5.162  13.012  0.00  0.00    +0.000 C 
ATOM     16  O   UNL     1       7.489   4.827  11.763  0.00  0.00    +0.000 OA
ATOM     17  C   UNL     1       6.880   3.538  11.791  0.00  0.00    +0.000 C 
ATOM     18  C   UNL     1       5.771   3.493  12.837  0.00  0.00    +0.000 C 
ENDBRANCH  12  13
ENDBRANCH  11  12
ENDBRANCH   3  11
TORSDOF 3
ENDMDL
MODEL 6
REMARK VINA RESULT:      -6.5      1.953      2.553
REMARK  Name = 
REMARK  4 active torsions:
REMARK  status: ('A' for Active; 'I' for Inactive)
REMARK    1  A    between atoms: C_1  and  N_2
REMARK    2  A    between atoms: C_3  and  O_4
REMARK    3  A    between atoms: O_4  and  C_5
REMARK    4  A    between atoms: C_5  and  C_6
REMARK                            x       y       z     vdW  Elec       q    Type
REMARK                         _______ _______ _______ _____ _____    ______ ____
ROOT
ATOM      1  C   UNL     1       5.134   3.094  19.567  0.00  0.00    +0.000 C 
ATOM      2  N   UNL     1       5.129   4.062  18.499  0.00  0.00    +0.000 N 
ATOM      3  C   UNL     1       4.244   4.165  17.455  0.00  0.00    +0.000 A 
ATOM      4  N   UNL     1       4.529   5.204  16.694  0.00  0.00    +0.000 NA
ATOM      5  C   UNL     1       5.647   5.770  17.243  0.00  0.00    +0.000 A 
ATOM      6  C   UNL     1       6.377   6.890  16.822  0.00  0.00    +0.000 A 
ATOM      7  C   UNL     1       7.512   7.276  17.549  0.00  0.00    +0.000 A 
ATOM      8  C   UNL     1       7.909   6.552  18.678  0.00  0.00    +0.000 A 
ATOM      9  C   UNL     1       7.187   5.437  19.119  0.00  0.00    +0.000 A 
ATOM     10  C   UNL     1       6.058   5.072  18.373  0.00  0.00    +0.000 A 
ENDROOT
BRANCH   3  11
ATOM     11  O   UNL     1       3.226   3.325  17.228  0.00  0.00    +0.000 OA
BRANCH  11  12
ATOM     12  C   UNL     1       1.944   3.971  17.348  0.00  0.00    +0.000 C 
BRANCH  12  13
ATOM     13  C   UNL     1       1.446   4.051  18.800  0.00  0.00    +0.000 C 
ATOM     14  C   UNL     1       2.123   5.173  19.601  0.00  0.00    +0.000 C 
ATOM     15  C   UNL     1       1.719   5.106  21.071  0.00  0.00    +0.000 C 
ATOM     16  O   UNL     1       2.035   3.830  21.629  0.00  0.00    +0.000 OA
ATOM     17  C   UNL     1       1.322   2.774  20.988  0.00  0.00    +0.000 C 
ATOM     18  C   UNL     1       1.686   2.705  19.508  0.00  0.00    +0.000 C 
ENDBRANCH  12  13
ENDBRANCH  11  12
ENDBRANCH   3  11
TORSDOF 3
ENDMDL
MODEL 7
REMARK VINA RESULT:      -6.4      2.305      5.865
REMARK  Name = 
REMARK  4 active torsions:
REMARK  status: ('A' for Active; 'I' for Inactive)
REMARK    1  A    between atoms: C_1  and  N_2
REMARK    2  A    between atoms: C_3  and  O_4
REMARK    3  A    between atoms: O_4  and  C_5
REMARK    4  A    between atoms: C_5  and  C_6
REMARK                            x       y       z     vdW  Elec       q    Type
REMARK                         _______ _______ _______ _____ _____    ______ ____
ROOT
ATOM      1  C   UNL     1       2.986   6.805  17.940  0.00  0.00    +0.000 C 
ATOM      2  N   UNL     1       3.128   5.372  17.989  0.00  0.00    +0.000 N 
ATOM      3  C   UNL     1       3.901   4.570  17.188  0.00  0.00    +0.000 A 
ATOM      4  N   UNL     1       3.813   3.307  17.557  0.00  0.00    +0.000 NA
ATOM      5  C   UNL     1       2.934   3.287  18.605  0.00  0.00    +0.000 A 
ATOM      6  C   UNL     1       2.472   2.200  19.360  0.00  0.00    +0.000 A 
ATOM      7  C   UNL     1       1.550   2.430  20.390  0.00  0.00    +0.000 A 
ATOM      8  C   UNL     1       1.098   3.726  20.660  0.00  0.00    +0.000 A 
ATOM      9  C   UNL     1       1.556   4.825  19.924  0.00  0.00    +0.000 A 
ATOM     10  C   UNL     1       2.476   4.567  18.898  0.00  0.00    +0.000 A 
ENDROOT
BRANCH   3  11
ATOM     11  O   UNL     1       4.647   5.002  16.163  0.00  0.00    +0.000 OA
BRANCH  11  12
ATOM     12  C   UNL     1       5.924   4.340  16.094  0.00  0.00    +0.000 C 
BRANCH  12  13
ATOM     13  C   UNL     1       7.041   5.113  16.812  0.00  0.00    +0.000 C 
ATOM     14  C   UNL     1       7.247   4.653  18.262  0.00  0.00    +0.000 C 
ATOM     15  C   UNL     1       8.247   5.557  18.979  0.00  0.00    +0.000 C 
ATOM     16  O   UNL     1       7.821   6.919  18.940  0.00  0.00    +0.000 OA
ATOM     17  C   UNL     1       7.742   7.417  17.606  0.00  0.00    +0.000 C 
ATOM     18  C   UNL     1       6.724   6.620  16.797  0.00  0.00    +0.000 C 
ENDBRANCH  12  13
ENDBRANCH  11  12
ENDBRANCH   3  11
TORSDOF 3
ENDMDL
MODEL 8
REMARK VINA RESULT:      -6.4      3.687      6.516
REMARK  Name = 
REMARK  4 active torsions:
REMARK  status: ('A' for Active; 'I' for Inactive)
REMARK    1  A    between atoms: C_1  and  N_2
REMARK    2  A    between atoms: C_3  and  O_4
REMARK    3  A    between atoms: O_4  and  C_5
REMARK    4  A    between atoms: C_5  and  C_6
REMARK                            x       y       z     vdW  Elec       q    Type
REMARK                         _______ _______ _______ _____ _____    ______ ____
ROOT
ATOM      1  C   UNL     1       1.374   9.836  18.150  0.00  0.00    +0.000 C 
ATOM      2  N   UNL     1       1.227   9.257  19.462  0.00  0.00    +0.000 N 
ATOM      3  C   UNL     1       1.736   8.069  19.924  0.00  0.00    +0.000 A 
ATOM      4  N   UNL     1       1.432   7.887  21.195  0.00  0.00    +0.000 NA
ATOM      5  C   UNL     1       0.680   8.972  21.555  0.00  0.00    +0.000 A 
ATOM      6  C   UNL     1       0.087   9.274  22.789  0.00  0.00    +0.000 A 
ATOM      7  C   UNL     1      -0.658  10.454  22.915  0.00  0.00    +0.000 A 
ATOM      8  C   UNL     1      -0.809  11.316  21.824  0.00  0.00    +0.000 A 
ATOM      9  C   UNL     1      -0.216  11.036  20.587  0.00  0.00    +0.000 A 
ATOM     10  C   UNL     1       0.522   9.849  20.488  0.00  0.00    +0.000 A 
ENDROOT
BRANCH   3  11
ATOM     11  O   UNL     1       2.444   7.202  19.190  0.00  0.00    +0.000 OA
BRANCH  11  12
ATOM     12  C   UNL     1       2.618   5.935  19.851  0.00  0.00    +0.000 C 
BRANCH  12  13
ATOM     13  C   UNL     1       1.958   4.769  19.098  0.00  0.00    +0.000 C 
ATOM     14  C   UNL     1       1.251   3.779  20.034  0.00  0.00    +0.000 C 
ATOM     15  C   UNL     1       0.758   2.560  19.259  0.00  0.00    +0.000 C 
ATOM     16  O   UNL     1       1.835   1.922  18.573  0.00  0.00    +0.000 OA
ATOM     17  C   UNL     1       2.433   2.778  17.601  0.00  0.00    +0.000 C 
ATOM     18  C   UNL     1       3.017   4.018  18.269  0.00  0.00    +0.000 C 
ENDBRANCH  12  13
ENDBRANCH  11  12
ENDBRANCH   3  11
TORSDOF 3
ENDMDL
MODEL 9
REMARK VINA RESULT:      -6.4      2.158      3.341
REMARK  Name = 
REMARK  4 active torsions:
REMARK  status: ('A' for Active; 'I' for Inactive)
REMARK    1  A    between atoms: C_1  and  N_2
REMARK    2  A    between atoms: C_3  and  O_4
REMARK    3  A    between atoms: O_4  and  C_5
REMARK    4  A    between atoms: C_5  and  C_6
REMARK                            x       y       z     vdW  Elec       q    Type
REMARK                         _______ _______ _______ _____ _____    ______ ____
ROOT
ATOM      1  C   UNL     1       5.025   4.439  15.201  0.00  0.00    +0.000 C 
ATOM      2  N   UNL     1       5.383   4.443  16.597  0.00  0.00    +0.000 N 
ATOM      3  C   UNL     1       4.930   3.609  17.589  0.00  0.00    +0.000 A 
ATOM      4  N   UNL     1       5.514   3.884  18.740  0.00  0.00    +0.000 NA
ATOM      5  C   UNL     1       6.343   4.943  18.492  0.00  0.00    +0.000 A 
ATOM      6  C   UNL     1       7.185   5.640  19.370  0.00  0.00    +0.000 A 
ATOM      7  C   UNL     1       7.939   6.715  18.880  0.00  0.00    +0.000 A 
ATOM      8  C   UNL     1       7.851   7.087  17.535  0.00  0.00    +0.000 A 
ATOM      9  C   UNL     1       7.023   6.397  16.641  0.00  0.00    +0.000 A 
ATOM     10  C   UNL     1       6.278   5.328  17.157  0.00  0.00    +0.000 A 
ENDROOT
BRANCH   3  11
ATOM     11  O   UNL     1       4.015   2.646  17.422  0.00  0.00    +0.000 OA
BRANCH  11  12
ATOM     12  C   UNL     1       3.893   1.798  18.579  0.00  0.00    +0.000 C 
BRANCH  12  13
ATOM     13  C   UNL     1       2.611   2.065  19.386  0.00  0.00    +0.000 C 
ATOM     14  C   UNL     1       1.636   3.003  18.662  0.00  0.00    +0.000 C 
ATOM     15  C   UNL     1       0.463   3.367  19.568  0.00  0.00    +0.000 C 
ATOM     16  O   UNL     1       0.922   3.960  20.782  0.00  0.00    +0.000 OA
ATOM     17  C   UNL     1       1.731   3.066  21.543  0.00  0.00    +0.000 C 
ATOM     18  C   UNL     1       2.975   2.669  20.756  0.00  0.00    +0.000 C 
ENDBRANCH  12  13
ENDBRANCH  11  12
ENDBRANCH   3  11
TORSDOF 3
ENDMDL
