MODEL 1
REMARK VINA RESULT:      -5.4      0.000      0.000
REMARK  Name = 
REMARK  9 active torsions:
REMARK  status: ('A' for Active; 'I' for Inactive)
REMARK    1  A    between atoms: C_1  and  C_2
REMARK    2  A    between atoms: C_2  and  C_3
REMARK    3  A    between atoms: C_2  and  C_4
REMARK    4  A    between atoms: N_6  and  C_7
REMARK    5  A    between atoms: C_8  and  C_9
REMARK    6  A    between atoms: C_12  and  S_13
REMARK    7  A    between atoms: S_13  and  C_14
REMARK    8  A    between atoms: C_14  and  C_15
REMARK    9  A    between atoms: C_17  and  C_18
REMARK                            x       y       z     vdW  Elec       q    Type
REMARK                         _______ _______ _______ _____ _____    ______ ____
ROOT
ATOM      1  C   UNL     1      -2.474  11.580  18.388  0.00  0.00    +0.000 A 
ATOM      2  C   UNL     1      -2.113  10.860  17.259  0.00  0.00    +0.000 A 
ATOM      3  S   UNL     1      -0.726   9.915  17.530  0.00  0.00    +0.000 S 
ATOM      4  C   UNL     1      -0.548  10.476  19.140  0.00  0.00    +0.000 A 
ATOM      5  C   UNL     1      -1.494  11.455  19.462  0.00  0.00    +0.000 A 
ENDROOT
BRANCH   5   6
ATOM      6  C   UNL     1      -1.519  12.180  20.754  0.00  0.00    +0.000 A 
ATOM      7  C   UNL     1      -0.486  13.075  21.087  0.00  0.00    +0.000 A 
ATOM      8  C   UNL     1      -0.463  13.729  22.323  0.00  0.00    +0.000 A 
ATOM      9  C   UNL     1      -1.436  13.451  23.277  0.00  0.00    +0.000 A 
ATOM     10  C   UNL     1      -2.473  12.579  22.966  0.00  0.00    +0.000 A 
ATOM     11  C   UNL     1      -2.538  11.992  21.698  0.00  0.00    +0.000 A 
ENDBRANCH   5   6
BRANCH   1  14
ATOM     12  C   UNL     1      -4.887  11.753  18.542  0.00  0.00    +0.000 C 
ATOM     13  O   UNL     1      -5.064  10.538  18.533  0.00  0.00    +0.000 OA
ATOM     14  N   UNL     1      -3.637  12.360  18.480  0.00  0.00    +0.000 N 
ATOM     15  H   UNL     1      -3.576  13.212  19.018  0.00  0.00    +0.000 HD
BRANCH  12  17
ATOM     16  C   UNL     1      -6.448  13.269  17.306  0.00  0.00    +0.000 C 
ATOM     17  C   UNL     1      -6.027  12.758  18.682  0.00  0.00    +0.000 C 
ATOM     18  C   UNL     1      -7.217  12.135  19.407  0.00  0.00    +0.000 C 
ENDBRANCH  12  17
ENDBRANCH   1  14
BRANCH   2  19
ATOM     19  C   UNL     1      -2.747  10.900  15.974  0.00  0.00    +0.000 C 
ATOM     20  N   UNL     1      -3.270  10.865  14.936  0.00  0.00    +0.000 NA
ENDBRANCH   2  19
BRANCH   4  21
ATOM     21  S   UNL     1       0.688   9.724  20.169  0.00  0.00    +0.000 S 
BRANCH  21  22
ATOM     22  C   UNL     1      -0.267   8.862  21.435  0.00  0.00    +0.000 C 
BRANCH  22  23
ATOM     23  C   UNL     1      -0.084   9.406  22.782  0.00  0.00    +0.000 C 
ATOM     24  N   UNL     1       0.054   9.842  23.844  0.00  0.00    +0.000 NA
ENDBRANCH  22  23
ENDBRANCH  21  22
ENDBRANCH   4  21
TORSDOF 7
ENDMDL
MODEL 2
REMARK VINA RESULT:      -5.3      5.957      8.268
REMARK  Name = 
REMARK  9 active torsions:
REMARK  status: ('A' for Active; 'I' for Inactive)
REMARK    1  A    between atoms: C_1  and  C_2
REMARK    2  A    between atoms: C_2  and  C_3
REMARK    3  A    between atoms: C_2  and  C_4
REMARK    4  A    between atoms: N_6  and  C_7
REMARK    5  A    between atoms: C_8  and  C_9
REMARK    6  A    between atoms: C_12  and  S_13
REMARK    7  A    between atoms: S_13  and  C_14
REMARK    8  A    between atoms: C_14  and  C_15
REMARK    9  A    between atoms: C_17  and  C_18
REMARK                            x       y       z     vdW  Elec       q    Type
REMARK                         _______ _______ _______ _____ _____    ______ ____
ROOT
ATOM      1  C   UNL     1       2.050   7.407  18.780  0.00  0.00    +0.000 A 
ATOM      2  C   UNL     1       2.785   8.247  17.956  0.00  0.00    +0.000 A 
ATOM      3  S   UNL     1       3.981   7.399  17.096  0.00  0.00    +0.000 S 
ATOM      4  C   UNL     1       3.580   5.904  17.834  0.00  0.00    +0.000 A 
ATOM      5  C   UNL     1       2.585   6.050  18.807  0.00  0.00    +0.000 A 
ENDROOT
BRANCH   5   6
ATOM      6  C   UNL     1       2.107   4.941  19.667  0.00  0.00    +0.000 A 
ATOM      7  C   UNL     1       2.593   4.799  20.978  0.00  0.00    +0.000 A 
ATOM      8  C   UNL     1       2.195   3.730  21.787  0.00  0.00    +0.000 A 
ATOM      9  C   UNL     1       1.356   2.745  21.278  0.00  0.00    +0.000 A 
ATOM     10  C   UNL     1       0.854   2.871  19.988  0.00  0.00    +0.000 A 
ATOM     11  C   UNL     1       1.188   3.986  19.212  0.00  0.00    +0.000 A 
ENDBRANCH   5   6
BRANCH   1  14
ATOM     12  C   UNL     1       1.093   8.333  20.806  0.00  0.00    +0.000 C 
ATOM     13  O   UNL     1       2.179   8.468  21.363  0.00  0.00    +0.000 OA
ATOM     14  N   UNL     1       0.933   7.821  19.522  0.00  0.00    +0.000 N 
ATOM     15  H   UNL     1       0.174   8.248  19.010  0.00  0.00    +0.000 HD
BRANCH  12  17
ATOM     16  C   UNL     1      -0.007   9.147  22.901  0.00  0.00    +0.000 C 
ATOM     17  C   UNL     1      -0.226   8.768  21.438  0.00  0.00    +0.000 C 
ATOM     18  C   UNL     1      -0.839   9.937  20.669  0.00  0.00    +0.000 C 
ENDBRANCH  12  17
ENDBRANCH   1  14
BRANCH   2  19
ATOM     19  C   UNL     1       2.647   9.669  17.833  0.00  0.00    +0.000 C 
ATOM     20  N   UNL     1       2.495  10.820  17.789  0.00  0.00    +0.000 NA
ENDBRANCH   2  19
BRANCH   4  21
ATOM     21  S   UNL     1       4.368   4.427  17.244  0.00  0.00    +0.000 S 
BRANCH  21  22
ATOM     22  C   UNL     1       6.128   4.750  17.483  0.00  0.00    +0.000 C 
BRANCH  22  23
ATOM     23  C   UNL     1       6.846   5.040  16.240  0.00  0.00    +0.000 C 
ATOM     24  N   UNL     1       7.411   5.278  15.260  0.00  0.00    +0.000 NA
ENDBRANCH  22  23
ENDBRANCH  21  22
ENDBRANCH   4  21
TORSDOF 7
ENDMDL
MODEL 3
REMARK VINA RESULT:      -5.3      5.634      8.020
REMARK  Name = 
REMARK  9 active torsions:
REMARK  status: ('A' for Active; 'I' for Inactive)
REMARK    1  A    between atoms: C_1  and  C_2
REMARK    2  A    between atoms: C_2  and  C_3
REMARK    3  A    between atoms: C_2  and  C_4
REMARK    4  A    between atoms: N_6  and  C_7
REMARK    5  A    between atoms: C_8  and  C_9
REMARK    6  A    between atoms: C_12  and  S_13
REMARK    7  A    between atoms: S_13  and  C_14
REMARK    8  A    between atoms: C_14  and  C_15
REMARK    9  A    between atoms: C_17  and  C_18
REMARK                            x       y       z     vdW  Elec       q    Type
REMARK                         _______ _______ _______ _____ _____    ______ ____
ROOT
ATOM      1  C   UNL     1       2.033   7.406  18.822  0.00  0.00    +0.000 A 
ATOM      2  C   UNL     1       2.760   8.250  17.995  0.00  0.00    +0.000 A 
ATOM      3  S   UNL     1       3.949   7.406  17.120  0.00  0.00    +0.000 S 
ATOM      4  C   UNL     1       3.556   5.908  17.855  0.00  0.00    +0.000 A 
ATOM      5  C   UNL     1       2.570   6.048  18.838  0.00  0.00    +0.000 A 
ENDROOT
BRANCH   5   6
ATOM      6  C   UNL     1       2.101   4.935  19.696  0.00  0.00    +0.000 A 
ATOM      7  C   UNL     1       2.615   4.774  20.995  0.00  0.00    +0.000 A 
ATOM      8  C   UNL     1       2.225   3.701  21.801  0.00  0.00    +0.000 A 
ATOM      9  C   UNL     1       1.364   2.730  21.302  0.00  0.00    +0.000 A 
ATOM     10  C   UNL     1       0.834   2.874  20.025  0.00  0.00    +0.000 A 
ATOM     11  C   UNL     1       1.162   3.994  19.253  0.00  0.00    +0.000 A 
ENDBRANCH   5   6
BRANCH   1  14
ATOM     12  C   UNL     1       1.092   8.289  20.874  0.00  0.00    +0.000 C 
ATOM     13  O   UNL     1       2.180   8.394  21.432  0.00  0.00    +0.000 OA
ATOM     14  N   UNL     1       0.924   7.815  19.577  0.00  0.00    +0.000 N 
ATOM     15  H   UNL     1       0.171   8.267  19.077  0.00  0.00    +0.000 HD
BRANCH  12  17
ATOM     16  C   UNL     1       0.031   9.205  22.947  0.00  0.00    +0.000 C 
ATOM     17  C   UNL     1      -0.220   8.727  21.519  0.00  0.00    +0.000 C 
ATOM     18  C   UNL     1      -0.891   9.825  20.698  0.00  0.00    +0.000 C 
ENDBRANCH  12  17
ENDBRANCH   1  14
BRANCH   2  19
ATOM     19  C   UNL     1       2.621   9.672  17.881  0.00  0.00    +0.000 C 
ATOM     20  N   UNL     1       2.514  10.818  17.721  0.00  0.00    +0.000 NA
ENDBRANCH   2  19
BRANCH   4  21
ATOM     21  S   UNL     1       4.339   4.434  17.250  0.00  0.00    +0.000 S 
BRANCH  21  22
ATOM     22  C   UNL     1       6.102   4.813  17.339  0.00  0.00    +0.000 C 
BRANCH  22  23
ATOM     23  C   UNL     1       6.570   5.116  18.692  0.00  0.00    +0.000 C 
ATOM     24  N   UNL     1       6.948   5.356  19.759  0.00  0.00    +0.000 NA
ENDBRANCH  22  23
ENDBRANCH  21  22
ENDBRANCH   4  21
TORSDOF 7
ENDMDL
MODEL 4
REMARK VINA RESULT:      -5.3      2.228      2.644
REMARK  Name = 
REMARK  9 active torsions:
REMARK  status: ('A' for Active; 'I' for Inactive)
REMARK    1  A    between atoms: C_1  and  C_2
REMARK    2  A    between atoms: C_2  and  C_3
REMARK    3  A    between atoms: C_2  and  C_4
REMARK    4  A    between atoms: N_6  and  C_7
REMARK    5  A    between atoms: C_8  and  C_9
REMARK    6  A    between atoms: C_12  and  S_13
REMARK    7  A    between atoms: S_13  and  C_14
REMARK    8  A    between atoms: C_14  and  C_15
REMARK    9  A    between atoms: C_17  and  C_18
REMARK                            x       y       z     vdW  Elec       q    Type
REMARK                         _______ _______ _______ _____ _____    ______ ____
ROOT
ATOM      1  C   UNL     1      -3.574  11.544  17.639  0.00  0.00    +0.000 A 
ATOM      2  C   UNL     1      -3.084  10.652  16.696  0.00  0.00    +0.000 A 
ATOM      3  S   UNL     1      -1.673   9.873  17.237  0.00  0.00    +0.000 S 
ATOM      4  C   UNL     1      -1.655  10.736  18.718  0.00  0.00    +0.000 A 
ATOM      5  C   UNL     1      -2.677  11.690  18.781  0.00  0.00    +0.000 A 
ENDROOT
BRANCH   5   6
ATOM      6  C   UNL     1      -2.845  12.641  19.905  0.00  0.00    +0.000 A 
ATOM      7  C   UNL     1      -3.961  12.546  20.755  0.00  0.00    +0.000 A 
ATOM      8  C   UNL     1      -4.166  13.466  21.788  0.00  0.00    +0.000 A 
ATOM      9  C   UNL     1      -3.296  14.538  21.951  0.00  0.00    +0.000 A 
ATOM     10  C   UNL     1      -2.180  14.646  21.129  0.00  0.00    +0.000 A 
ATOM     11  C   UNL     1      -1.934  13.677  20.151  0.00  0.00    +0.000 A 
ENDBRANCH   5   6
BRANCH   1  14
ATOM     12  C   UNL     1      -5.977  11.675  17.926  0.00  0.00    +0.000 C 
ATOM     13  O   UNL     1      -6.065  10.567  18.446  0.00  0.00    +0.000 OA
ATOM     14  N   UNL     1      -4.781  12.244  17.500  0.00  0.00    +0.000 N 
ATOM     15  H   UNL     1      -4.747  13.246  17.620  0.00  0.00    +0.000 HD
BRANCH  12  17
ATOM     16  C   UNL     1      -7.654  13.128  19.084  0.00  0.00    +0.000 C 
ATOM     17  C   UNL     1      -7.175  12.601  17.733  0.00  0.00    +0.000 C 
ATOM     18  C   UNL     1      -6.824  13.759  16.802  0.00  0.00    +0.000 C 
ENDBRANCH  12  17
ENDBRANCH   1  14
BRANCH   2  19
ATOM     19  C   UNL     1      -3.614  10.406  15.387  0.00  0.00    +0.000 C 
ATOM     20  N   UNL     1      -4.003  10.256  14.302  0.00  0.00    +0.000 NA
ENDBRANCH   2  19
BRANCH   4  21
ATOM     21  S   UNL     1      -0.466  10.278  19.954  0.00  0.00    +0.000 S 
BRANCH  21  22
ATOM     22  C   UNL     1       1.105  10.859  19.279  0.00  0.00    +0.000 C 
BRANCH  22  23
ATOM     23  C   UNL     1       1.697   9.946  18.301  0.00  0.00    +0.000 C 
ATOM     24  N   UNL     1       2.161   9.217  17.532  0.00  0.00    +0.000 NA
ENDBRANCH  22  23
ENDBRANCH  21  22
ENDBRANCH   4  21
TORSDOF 7
ENDMDL
MODEL 5
REMARK VINA RESULT:      -5.2      2.142      2.391
REMARK  Name = 
REMARK  9 active torsions:
REMARK  status: ('A' for Active; 'I' for Inactive)
REMARK    1  A    between atoms: C_1  and  C_2
REMARK    2  A    between atoms: C_2  and  C_3
REMARK    3  A    between atoms: C_2  and  C_4
REMARK    4  A    between atoms: N_6  and  C_7
REMARK    5  A    between atoms: C_8  and  C_9
REMARK    6  A    between atoms: C_12  and  S_13
REMARK    7  A    between atoms: S_13  and  C_14
REMARK    8  A    between atoms: C_14  and  C_15
REMARK    9  A    between atoms: C_17  and  C_18
REMARK                            x       y       z     vdW  Elec       q    Type
REMARK                         _______ _______ _______ _____ _____    ______ ____
ROOT
ATOM      1  C   UNL     1      -3.389  11.725  18.012  0.00  0.00    +0.000 A 
ATOM      2  C   UNL     1      -2.694  10.917  17.125  0.00  0.00    +0.000 A 
ATOM      3  S   UNL     1      -1.270  10.298  17.818  0.00  0.00    +0.000 S 
ATOM      4  C   UNL     1      -1.522  11.126  19.297  0.00  0.00    +0.000 A 
ATOM      5  C   UNL     1      -2.651  11.952  19.250  0.00  0.00    +0.000 A 
ENDROOT
BRANCH   5   6
ATOM      6  C   UNL     1      -3.056  12.853  20.355  0.00  0.00    +0.000 A 
ATOM      7  C   UNL     1      -2.337  14.035  20.608  0.00  0.00    +0.000 A 
ATOM      8  C   UNL     1      -2.671  14.871  21.678  0.00  0.00    +0.000 A 
ATOM      9  C   UNL     1      -3.687  14.510  22.555  0.00  0.00    +0.000 A 
ATOM     10  C   UNL     1      -4.418  13.353  22.318  0.00  0.00    +0.000 A 
ATOM     11  C   UNL     1      -4.136  12.562  21.199  0.00  0.00    +0.000 A 
ENDBRANCH   5   6
BRANCH   1  14
ATOM     12  C   UNL     1      -5.809  11.578  18.048  0.00  0.00    +0.000 C 
ATOM     13  O   UNL     1      -5.822  10.467  18.569  0.00  0.00    +0.000 OA
ATOM     14  N   UNL     1      -4.648  12.282  17.741  0.00  0.00    +0.000 N 
ATOM     15  H   UNL     1      -4.741  13.281  17.854  0.00  0.00    +0.000 HD
BRANCH  12  17
ATOM     16  C   UNL     1      -7.704  12.903  19.005  0.00  0.00    +0.000 C 
ATOM     17  C   UNL     1      -7.079  12.360  17.722  0.00  0.00    +0.000 C 
ATOM     18  C   UNL     1      -6.783  13.498  16.749  0.00  0.00    +0.000 C 
ENDBRANCH  12  17
ENDBRANCH   1  14
BRANCH   2  19
ATOM     19  C   UNL     1      -3.041  10.638  15.762  0.00  0.00    +0.000 C 
ATOM     20  N   UNL     1      -3.378  10.380  14.680  0.00  0.00    +0.000 NA
ENDBRANCH   2  19
BRANCH   4  21
ATOM     21  S   UNL     1      -0.433  10.785  20.657  0.00  0.00    +0.000 S 
BRANCH  21  22
ATOM     22  C   UNL     1       1.134  11.527  20.153  0.00  0.00    +0.000 C 
BRANCH  22  23
ATOM     23  C   UNL     1       0.981  12.796  19.441  0.00  0.00    +0.000 C 
ATOM     24  N   UNL     1       0.862  13.795  18.870  0.00  0.00    +0.000 NA
ENDBRANCH  22  23
ENDBRANCH  21  22
ENDBRANCH   4  21
TORSDOF 7
ENDMDL
MODEL 6
REMARK VINA RESULT:      -5.2      5.660      8.072
REMARK  Name = 
REMARK  9 active torsions:
REMARK  status: ('A' for Active; 'I' for Inactive)
REMARK    1  A    between atoms: C_1  and  C_2
REMARK    2  A    between atoms: C_2  and  C_3
REMARK    3  A    between atoms: C_2  and  C_4
REMARK    4  A    between atoms: N_6  and  C_7
REMARK    5  A    between atoms: C_8  and  C_9
REMARK    6  A    between atoms: C_12  and  S_13
REMARK    7  A    between atoms: S_13  and  C_14
REMARK    8  A    between atoms: C_14  and  C_15
REMARK    9  A    between atoms: C_17  and  C_18
REMARK                            x       y       z     vdW  Elec       q    Type
REMARK                         _______ _______ _______ _____ _____    ______ ____
ROOT
ATOM      1  C   UNL     1       2.087   7.371  18.773  0.00  0.00    +0.000 A 
ATOM      2  C   UNL     1       2.790   8.244  17.955  0.00  0.00    +0.000 A 
ATOM      3  S   UNL     1       3.995   7.441  17.063  0.00  0.00    +0.000 S 
ATOM      4  C   UNL     1       3.640   5.924  17.777  0.00  0.00    +0.000 A 
ATOM      5  C   UNL     1       2.656   6.027  18.767  0.00  0.00    +0.000 A 
ENDROOT
BRANCH   5   6
ATOM      6  C   UNL     1       2.216   4.891  19.611  0.00  0.00    +0.000 A 
ATOM      7  C   UNL     1       1.264   3.975  19.130  0.00  0.00    +0.000 A 
ATOM      8  C   UNL     1       0.797   2.927  19.930  0.00  0.00    +0.000 A 
ATOM      9  C   UNL     1       1.223   2.813  21.249  0.00  0.00    +0.000 A 
ATOM     10  C   UNL     1       2.173   3.700  21.742  0.00  0.00    +0.000 A 
ATOM     11  C   UNL     1       2.699   4.696  20.912  0.00  0.00    +0.000 A 
ENDBRANCH   5   6
BRANCH   1  14
ATOM     12  C   UNL     1       1.141   8.306  20.799  0.00  0.00    +0.000 C 
ATOM     13  O   UNL     1       2.233   8.523  21.316  0.00  0.00    +0.000 OA
ATOM     14  N   UNL     1       0.972   7.743  19.538  0.00  0.00    +0.000 N 
ATOM     15  H   UNL     1       0.174   8.108  19.038  0.00  0.00    +0.000 HD
BRANCH  12  17
ATOM     16  C   UNL     1       0.059   9.116  22.906  0.00  0.00    +0.000 C 
ATOM     17  C   UNL     1      -0.182   8.685  21.461  0.00  0.00    +0.000 C 
ATOM     18  C   UNL     1      -0.882   9.795  20.681  0.00  0.00    +0.000 C 
ENDBRANCH  12  17
ENDBRANCH   1  14
BRANCH   2  19
ATOM     19  C   UNL     1       2.617   9.664  17.863  0.00  0.00    +0.000 C 
ATOM     20  N   UNL     1       2.410  10.805  17.786  0.00  0.00    +0.000 NA
ENDBRANCH   2  19
BRANCH   4  21
ATOM     21  S   UNL     1       4.455   4.478  17.148  0.00  0.00    +0.000 S 
BRANCH  21  22
ATOM     22  C   UNL     1       6.211   4.867  17.304  0.00  0.00    +0.000 C 
BRANCH  22  23
ATOM     23  C   UNL     1       6.627   5.162  18.676  0.00  0.00    +0.000 C 
ATOM     24  N   UNL     1       6.963   5.389  19.759  0.00  0.00    +0.000 NA
ENDBRANCH  22  23
ENDBRANCH  21  22
ENDBRANCH   4  21
TORSDOF 7
ENDMDL
MODEL 7
REMARK VINA RESULT:      -5.1      3.226      6.525
REMARK  Name = 
REMARK  9 active torsions:
REMARK  status: ('A' for Active; 'I' for Inactive)
REMARK    1  A    between atoms: C_1  and  C_2
REMARK    2  A    between atoms: C_2  and  C_3
REMARK    3  A    between atoms: C_2  and  C_4
REMARK    4  A    between atoms: N_6  and  C_7
REMARK    5  A    between atoms: C_8  and  C_9
REMARK    6  A    between atoms: C_12  and  S_13
REMARK    7  A    between atoms: S_13  and  C_14
REMARK    8  A    between atoms: C_14  and  C_15
REMARK    9  A    between atoms: C_17  and  C_18
REMARK                            x       y       z     vdW  Elec       q    Type
REMARK                         _______ _______ _______ _____ _____    ______ ____
ROOT
ATOM      1  C   UNL     1      -2.535  12.254  19.940  0.00  0.00    +0.000 A 
ATOM      2  C   UNL     1      -3.062  13.033  20.959  0.00  0.00    +0.000 A 
ATOM      3  S   UNL     1      -4.744  13.219  20.807  0.00  0.00    +0.000 S 
ATOM      4  C   UNL     1      -4.805  12.307  19.357  0.00  0.00    +0.000 A 
ATOM      5  C   UNL     1      -3.531  11.921  18.926  0.00  0.00    +0.000 A 
ENDROOT
BRANCH   5   6
ATOM      6  C   UNL     1      -3.275  11.202  17.656  0.00  0.00    +0.000 A 
ATOM      7  C   UNL     1      -3.911  11.608  16.469  0.00  0.00    +0.000 A 
ATOM      8  C   UNL     1      -3.724  10.910  15.271  0.00  0.00    +0.000 A 
ATOM      9  C   UNL     1      -2.952   9.754  15.250  0.00  0.00    +0.000 A 
ATOM     10  C   UNL     1      -2.305   9.341  16.409  0.00  0.00    +0.000 A 
ATOM     11  C   UNL     1      -2.427  10.089  17.584  0.00  0.00    +0.000 A 
ENDBRANCH   5   6
BRANCH   1  14
ATOM     12  C   UNL     1      -0.276  12.578  19.122  0.00  0.00    +0.000 C 
ATOM     13  O   UNL     1      -0.555  13.593  18.489  0.00  0.00    +0.000 OA
ATOM     14  N   UNL     1      -1.192  11.852  19.876  0.00  0.00    +0.000 N 
ATOM     15  H   UNL     1      -0.795  11.446  20.711  0.00  0.00    +0.000 HD
BRANCH  12  17
ATOM     16  C   UNL     1       1.154  10.558  18.755  0.00  0.00    +0.000 C 
ATOM     17  C   UNL     1       1.141  12.015  19.209  0.00  0.00    +0.000 C 
ATOM     18  C   UNL     1       2.109  12.846  18.370  0.00  0.00    +0.000 C 
ENDBRANCH  12  17
ENDBRANCH   1  14
BRANCH   2  19
ATOM     19  C   UNL     1      -2.333  13.680  22.012  0.00  0.00    +0.000 C 
ATOM     20  N   UNL     1      -1.695  14.220  22.819  0.00  0.00    +0.000 NA
ENDBRANCH   2  19
BRANCH   4  21
ATOM     21  S   UNL     1      -6.393  11.912  18.668  0.00  0.00    +0.000 S 
BRANCH  21  22
ATOM     22  C   UNL     1      -6.629  10.173  19.094  0.00  0.00    +0.000 C 
BRANCH  22  23
ATOM     23  C   UNL     1      -7.343   9.970  20.356  0.00  0.00    +0.000 C 
ATOM     24  N   UNL     1      -7.900   9.807  21.357  0.00  0.00    +0.000 NA
ENDBRANCH  22  23
ENDBRANCH  21  22
ENDBRANCH   4  21
TORSDOF 7
ENDMDL
MODEL 8
REMARK VINA RESULT:      -5.1      3.069      6.763
REMARK  Name = 
REMARK  9 active torsions:
REMARK  status: ('A' for Active; 'I' for Inactive)
REMARK    1  A    between atoms: C_1  and  C_2
REMARK    2  A    between atoms: C_2  and  C_3
REMARK    3  A    between atoms: C_2  and  C_4
REMARK    4  A    between atoms: N_6  and  C_7
REMARK    5  A    between atoms: C_8  and  C_9
REMARK    6  A    between atoms: C_12  and  S_13
REMARK    7  A    between atoms: S_13  and  C_14
REMARK    8  A    between atoms: C_14  and  C_15
REMARK    9  A    between atoms: C_17  and  C_18
REMARK                            x       y       z     vdW  Elec       q    Type
REMARK                         _______ _______ _______ _____ _____    ______ ____
ROOT
ATOM      1  C   UNL     1      -2.595  12.569  19.693  0.00  0.00    +0.000 A 
ATOM      2  C   UNL     1      -3.112  13.290  20.760  0.00  0.00    +0.000 A 
ATOM      3  S   UNL     1      -4.788  13.061  20.922  0.00  0.00    +0.000 S 
ATOM      4  C   UNL     1      -4.873  12.035  19.552  0.00  0.00    +0.000 A 
ATOM      5  C   UNL     1      -3.638  11.922  18.903  0.00  0.00    +0.000 A 
ENDROOT
BRANCH   5   6
ATOM      6  C   UNL     1      -3.438  11.173  17.641  0.00  0.00    +0.000 A 
ATOM      7  C   UNL     1      -2.612  10.036  17.613  0.00  0.00    +0.000 A 
ATOM      8  C   UNL     1      -2.368   9.346  16.421  0.00  0.00    +0.000 A 
ATOM      9  C   UNL     1      -2.890   9.819  15.222  0.00  0.00    +0.000 A 
ATOM     10  C   UNL     1      -3.718  10.935  15.227  0.00  0.00    +0.000 A 
ATOM     11  C   UNL     1      -4.027  11.572  16.433  0.00  0.00    +0.000 A 
ENDBRANCH   5   6
BRANCH   1  14
ATOM     12  C   UNL     1      -0.438  11.497  19.965  0.00  0.00    +0.000 C 
ATOM     13  O   UNL     1      -0.860  10.641  20.737  0.00  0.00    +0.000 OA
ATOM     14  N   UNL     1      -1.226  12.489  19.393  0.00  0.00    +0.000 N 
ATOM     15  H   UNL     1      -0.949  12.733  18.452  0.00  0.00    +0.000 HD
BRANCH  12  17
ATOM     16  C   UNL     1       1.298  10.360  18.565  0.00  0.00    +0.000 C 
ATOM     17  C   UNL     1       1.012  11.543  19.487  0.00  0.00    +0.000 C 
ATOM     18  C   UNL     1       1.308  12.861  18.775  0.00  0.00    +0.000 C 
ENDBRANCH  12  17
ENDBRANCH   1  14
BRANCH   2  19
ATOM     19  C   UNL     1      -2.394  14.180  21.625  0.00  0.00    +0.000 C 
ATOM     20  N   UNL     1      -1.763  14.855  22.329  0.00  0.00    +0.000 NA
ENDBRANCH   2  19
BRANCH   4  21
ATOM     21  S   UNL     1      -6.408  11.218  19.196  0.00  0.00    +0.000 S 
BRANCH  21  22
ATOM     22  C   UNL     1      -7.531  12.568  18.777  0.00  0.00    +0.000 C 
BRANCH  22  23
ATOM     23  C   UNL     1      -7.070  13.387  17.654  0.00  0.00    +0.000 C 
ATOM     24  N   UNL     1      -6.700  14.037  16.772  0.00  0.00    +0.000 NA
ENDBRANCH  22  23
ENDBRANCH  21  22
ENDBRANCH   4  21
TORSDOF 7
ENDMDL
MODEL 9
REMARK VINA RESULT:      -5.1      2.558      5.551
REMARK  Name = 
REMARK  9 active torsions:
REMARK  status: ('A' for Active; 'I' for Inactive)
REMARK    1  A    between atoms: C_1  and  C_2
REMARK    2  A    between atoms: C_2  and  C_3
REMARK    3  A    between atoms: C_2  and  C_4
REMARK    4  A    between atoms: N_6  and  C_7
REMARK    5  A    between atoms: C_8  and  C_9
REMARK    6  A    between atoms: C_12  and  S_13
REMARK    7  A    between atoms: S_13  and  C_14
REMARK    8  A    between atoms: C_14  and  C_15
REMARK    9  A    between atoms: C_17  and  C_18
REMARK                            x       y       z     vdW  Elec       q    Type
REMARK                         _______ _______ _______ _____ _____    ______ ____
ROOT
ATOM      1  C   UNL     1      -3.850  13.032  20.175  0.00  0.00    +0.000 A 
ATOM      2  C   UNL     1      -5.179  12.960  19.782  0.00  0.00    +0.000 A 
ATOM      3  S   UNL     1      -5.414  11.805  18.557  0.00  0.00    +0.000 S 
ATOM      4  C   UNL     1      -3.748  11.406  18.489  0.00  0.00    +0.000 A 
ATOM      5  C   UNL     1      -2.981  12.209  19.340  0.00  0.00    +0.000 A 
ENDROOT
BRANCH   5   6
ATOM      6  C   UNL     1      -1.502  12.147  19.418  0.00  0.00    +0.000 A 
ATOM      7  C   UNL     1      -0.711  12.910  18.541  0.00  0.00    +0.000 A 
ATOM      8  C   UNL     1       0.684  12.825  18.563  0.00  0.00    +0.000 A 
ATOM      9  C   UNL     1       1.315  11.926  19.415  0.00  0.00    +0.000 A 
ATOM     10  C   UNL     1       0.554  11.169  20.299  0.00  0.00    +0.000 A 
ATOM     11  C   UNL     1      -0.836  11.319  20.332  0.00  0.00    +0.000 A 
ENDBRANCH   5   6
BRANCH   1  14
ATOM     12  C   UNL     1      -3.349  13.309  22.530  0.00  0.00    +0.000 C 
ATOM     13  O   UNL     1      -3.685  12.166  22.828  0.00  0.00    +0.000 OA
ATOM     14  N   UNL     1      -3.390  13.823  21.238  0.00  0.00    +0.000 N 
ATOM     15  H   UNL     1      -2.641  14.470  21.038  0.00  0.00    +0.000 HD
BRANCH  12  17
ATOM     16  C   UNL     1      -3.402  14.059  24.917  0.00  0.00    +0.000 C 
ATOM     17  C   UNL     1      -2.780  14.300  23.544  0.00  0.00    +0.000 C 
ATOM     18  C   UNL     1      -1.259  14.190  23.619  0.00  0.00    +0.000 C 
ENDBRANCH  12  17
ENDBRANCH   1  14
BRANCH   2  19
ATOM     19  C   UNL     1      -6.263  13.766  20.263  0.00  0.00    +0.000 C 
ATOM     20  N   UNL     1      -7.096  14.463  20.679  0.00  0.00    +0.000 NA
ENDBRANCH   2  19
BRANCH   4  21
ATOM     21  S   UNL     1      -3.243  10.042  17.472  0.00  0.00    +0.000 S 
BRANCH  21  22
ATOM     22  C   UNL     1      -2.594  10.829  15.982  0.00  0.00    +0.000 C 
BRANCH  22  23
ATOM     23  C   UNL     1      -3.207  10.339  14.746  0.00  0.00    +0.000 C 
ATOM     24  N   UNL     1      -3.696   9.960  13.769  0.00  0.00    +0.000 NA
ENDBRANCH  22  23
ENDBRANCH  21  22
ENDBRANCH   4  21
TORSDOF 7
ENDMDL
