MODEL 1
REMARK VINA RESULT:      -7.6      0.000      0.000
REMARK  Name = 
REMARK  4 active torsions:
REMARK  status: ('A' for Active; 'I' for Inactive)
REMARK    1  A    between atoms: C_7  and  O_8
REMARK    2  A    between atoms: O_8  and  C_9
REMARK    3  A    between atoms: C_9  and  C_10
REMARK    4  A    between atoms: C_10  and  C_13
REMARK                            x       y       z     vdW  Elec       q    Type
REMARK                         _______ _______ _______ _____ _____    ______ ____
ROOT
ATOM      1  N   UNL     1       7.552   5.476  14.523  0.00  0.00    +0.000 N 
ATOM      2  C   UNL     1       6.715   5.512  15.571  0.00  0.00    +0.000 A 
ATOM      3  N   UNL     1       5.721   6.356  15.670  0.00  0.00    +0.000 NA
ATOM      4  C   UNL     1       5.017   6.128  16.840  0.00  0.00    +0.000 A 
ATOM      5  C   UNL     1       3.869   6.818  17.274  0.00  0.00    +0.000 A 
ATOM      6  C   UNL     1       3.254   6.457  18.480  0.00  0.00    +0.000 A 
ATOM      7  C   UNL     1       3.767   5.427  19.268  0.00  0.00    +0.000 A 
ATOM      8  C   UNL     1       4.914   4.736  18.859  0.00  0.00    +0.000 A 
ATOM      9  C   UNL     1       5.516   5.103  17.642  0.00  0.00    +0.000 A 
ATOM     10  S   UNL     1       6.910   4.432  16.887  0.00  0.00    +0.000 S 
ATOM     11  H   UNL     1       7.549   6.286  13.915  0.00  0.00    +0.000 HD
ATOM     12  H   UNL     1       8.451   5.023  14.630  0.00  0.00    +0.000 HD
ENDROOT
BRANCH   7  13
ATOM     13  O   UNL     1       3.064   5.176  20.418  0.00  0.00    +0.000 OA
BRANCH  13  14
ATOM     14  C   UNL     1       2.735   3.804  20.676  0.00  0.00    +0.000 C 
BRANCH  14  15
ATOM     15  C   UNL     1       1.287   3.511  20.306  0.00  0.00    +0.000 C 
ATOM     16  F   UNL     1       0.767   2.602  21.180  0.00  0.00    +0.000 F 
ATOM     17  F   UNL     1       0.541   4.643  20.450  0.00  0.00    +0.000 F 
BRANCH  15  18
ATOM     18  C   UNL     1       1.206   2.987  18.867  0.00  0.00    +0.000 C 
ATOM     19  F   UNL     1       2.337   2.336  18.491  0.00  0.00    +0.000 F 
ATOM     20  F   UNL     1       0.184   2.113  18.699  0.00  0.00    +0.000 F 
ATOM     21  F   UNL     1       1.019   3.986  17.971  0.00  0.00    +0.000 F 
ENDBRANCH  15  18
ENDBRANCH  14  15
ENDBRANCH  13  14
ENDBRANCH   7  13
TORSDOF 4
ENDMDL
MODEL 2
REMARK VINA RESULT:      -7.3      1.147      1.686
REMARK  Name = 
REMARK  4 active torsions:
REMARK  status: ('A' for Active; 'I' for Inactive)
REMARK    1  A    between atoms: C_7  and  O_8
REMARK    2  A    between atoms: O_8  and  C_9
REMARK    3  A    between atoms: C_9  and  C_10
REMARK    4  A    between atoms: C_10  and  C_13
REMARK                            x       y       z     vdW  Elec       q    Type
REMARK                         _______ _______ _______ _____ _____    ______ ____
ROOT
ATOM      1  N   UNL     1       7.727   5.318  13.810  0.00  0.00    +0.000 N 
ATOM      2  C   UNL     1       7.017   5.228  14.945  0.00  0.00    +0.000 A 
ATOM      3  N   UNL     1       7.522   5.462  16.129  0.00  0.00    +0.000 NA
ATOM      4  C   UNL     1       6.543   5.326  17.099  0.00  0.00    +0.000 A 
ATOM      5  C   UNL     1       6.704   5.528  18.484  0.00  0.00    +0.000 A 
ATOM      6  C   UNL     1       5.607   5.370  19.342  0.00  0.00    +0.000 A 
ATOM      7  C   UNL     1       4.355   5.005  18.848  0.00  0.00    +0.000 A 
ATOM      8  C   UNL     1       4.178   4.790  17.476  0.00  0.00    +0.000 A 
ATOM      9  C   UNL     1       5.285   4.960  16.625  0.00  0.00    +0.000 A 
ATOM     10  S   UNL     1       5.365   4.780  14.915  0.00  0.00    +0.000 S 
ATOM     11  H   UNL     1       8.735   5.331  13.907  0.00  0.00    +0.000 HD
ATOM     12  H   UNL     1       7.381   4.853  12.980  0.00  0.00    +0.000 HD
ENDROOT
BRANCH   7  13
ATOM     13  O   UNL     1       3.373   4.891  19.796  0.00  0.00    +0.000 OA
BRANCH  13  14
ATOM     14  C   UNL     1       3.053   3.560  20.225  0.00  0.00    +0.000 C 
BRANCH  14  15
ATOM     15  C   UNL     1       1.560   3.288  20.094  0.00  0.00    +0.000 C 
ATOM     16  F   UNL     1       1.188   2.336  20.996  0.00  0.00    +0.000 F 
ATOM     17  F   UNL     1       0.861   4.411  20.422  0.00  0.00    +0.000 F 
BRANCH  15  18
ATOM     18  C   UNL     1       1.229   2.841  18.665  0.00  0.00    +0.000 C 
ATOM     19  F   UNL     1       0.105   2.081  18.609  0.00  0.00    +0.000 F 
ATOM     20  F   UNL     1       1.026   3.893  17.835  0.00  0.00    +0.000 F 
ATOM     21  F   UNL     1       2.224   2.099  18.120  0.00  0.00    +0.000 F 
ENDBRANCH  15  18
ENDBRANCH  14  15
ENDBRANCH  13  14
ENDBRANCH   7  13
TORSDOF 4
ENDMDL
MODEL 3
REMARK VINA RESULT:      -7.3      1.737      2.676
REMARK  Name = 
REMARK  4 active torsions:
REMARK  status: ('A' for Active; 'I' for Inactive)
REMARK    1  A    between atoms: C_7  and  O_8
REMARK    2  A    between atoms: O_8  and  C_9
REMARK    3  A    between atoms: C_9  and  C_10
REMARK    4  A    between atoms: C_10  and  C_13
REMARK                            x       y       z     vdW  Elec       q    Type
REMARK                         _______ _______ _______ _____ _____    ______ ____
ROOT
ATOM      1  N   UNL     1       7.706   5.378  12.952  0.00  0.00    +0.000 N 
ATOM      2  C   UNL     1       7.154   5.089  14.140  0.00  0.00    +0.000 A 
ATOM      3  N   UNL     1       7.601   5.562  15.275  0.00  0.00    +0.000 NA
ATOM      4  C   UNL     1       6.808   5.119  16.321  0.00  0.00    +0.000 A 
ATOM      5  C   UNL     1       6.962   5.444  17.683  0.00  0.00    +0.000 A 
ATOM      6  C   UNL     1       6.062   4.929  18.626  0.00  0.00    +0.000 A 
ATOM      7  C   UNL     1       5.018   4.090  18.240  0.00  0.00    +0.000 A 
ATOM      8  C   UNL     1       4.855   3.747  16.892  0.00  0.00    +0.000 A 
ATOM      9  C   UNL     1       5.760   4.277  15.954  0.00  0.00    +0.000 A 
ATOM     10  S   UNL     1       5.800   4.046  14.249  0.00  0.00    +0.000 S 
ATOM     11  H   UNL     1       8.636   5.778  12.971  0.00  0.00    +0.000 HD
ATOM     12  H   UNL     1       7.515   4.772  12.164  0.00  0.00    +0.000 HD
ENDROOT
BRANCH   7  13
ATOM     13  O   UNL     1       4.212   3.664  19.264  0.00  0.00    +0.000 OA
BRANCH  13  14
ATOM     14  C   UNL     1       2.849   4.106  19.226  0.00  0.00    +0.000 C 
BRANCH  14  15
ATOM     15  C   UNL     1       1.921   3.071  19.851  0.00  0.00    +0.000 C 
ATOM     16  F   UNL     1       0.634   3.330  19.485  0.00  0.00    +0.000 F 
ATOM     17  F   UNL     1       2.214   1.836  19.353  0.00  0.00    +0.000 F 
BRANCH  15  18
ATOM     18  C   UNL     1       2.065   3.089  21.378  0.00  0.00    +0.000 C 
ATOM     19  F   UNL     1       3.075   2.290  21.811  0.00  0.00    +0.000 F 
ATOM     20  F   UNL     1       2.326   4.332  21.851  0.00  0.00    +0.000 F 
ATOM     21  F   UNL     1       0.940   2.661  22.000  0.00  0.00    +0.000 F 
ENDBRANCH  15  18
ENDBRANCH  14  15
ENDBRANCH  13  14
ENDBRANCH   7  13
TORSDOF 4
ENDMDL
MODEL 4
REMARK VINA RESULT:      -7.2      1.644      2.418
REMARK  Name = 
REMARK  4 active torsions:
REMARK  status: ('A' for Active; 'I' for Inactive)
REMARK    1  A    between atoms: C_7  and  O_8
REMARK    2  A    between atoms: O_8  and  C_9
REMARK    3  A    between atoms: C_9  and  C_10
REMARK    4  A    between atoms: C_10  and  C_13
REMARK                            x       y       z     vdW  Elec       q    Type
REMARK                         _______ _______ _______ _____ _____    ______ ____
ROOT
ATOM      1  N   UNL     1       7.553   5.257  13.028  0.00  0.00    +0.000 N 
ATOM      2  C   UNL     1       7.112   5.085  14.284  0.00  0.00    +0.000 A 
ATOM      3  N   UNL     1       7.593   5.737  15.311  0.00  0.00    +0.000 NA
ATOM      4  C   UNL     1       6.916   5.376  16.464  0.00  0.00    +0.000 A 
ATOM      5  C   UNL     1       7.134   5.888  17.758  0.00  0.00    +0.000 A 
ATOM      6  C   UNL     1       6.350   5.433  18.827  0.00  0.00    +0.000 A 
ATOM      7  C   UNL     1       5.359   4.471  18.634  0.00  0.00    +0.000 A 
ATOM      8  C   UNL     1       5.135   3.942  17.357  0.00  0.00    +0.000 A 
ATOM      9  C   UNL     1       5.922   4.413  16.291  0.00  0.00    +0.000 A 
ATOM     10  S   UNL     1       5.865   3.963  14.631  0.00  0.00    +0.000 S 
ATOM     11  H   UNL     1       8.444   5.728  12.923  0.00  0.00    +0.000 HD
ATOM     12  H   UNL     1       7.363   4.539  12.341  0.00  0.00    +0.000 HD
ENDROOT
BRANCH   7  13
ATOM     13  O   UNL     1       4.667   4.123  19.764  0.00  0.00    +0.000 OA
BRANCH  13  14
ATOM     14  C   UNL     1       3.239   4.233  19.694  0.00  0.00    +0.000 C 
BRANCH  14  15
ATOM     15  C   UNL     1       2.569   2.932  20.119  0.00  0.00    +0.000 C 
ATOM     16  F   UNL     1       2.622   2.035  19.093  0.00  0.00    +0.000 F 
ATOM     17  F   UNL     1       3.270   2.372  21.145  0.00  0.00    +0.000 F 
BRANCH  15  18
ATOM     18  C   UNL     1       1.117   3.197  20.533  0.00  0.00    +0.000 C 
ATOM     19  F   UNL     1       0.832   4.524  20.596  0.00  0.00    +0.000 F 
ATOM     20  F   UNL     1       0.231   2.653  19.664  0.00  0.00    +0.000 F 
ATOM     21  F   UNL     1       0.834   2.683  21.755  0.00  0.00    +0.000 F 
ENDBRANCH  15  18
ENDBRANCH  14  15
ENDBRANCH  13  14
ENDBRANCH   7  13
TORSDOF 4
ENDMDL
MODEL 5
REMARK VINA RESULT:      -7.0      1.616      2.033
REMARK  Name = 
REMARK  4 active torsions:
REMARK  status: ('A' for Active; 'I' for Inactive)
REMARK    1  A    between atoms: C_7  and  O_8
REMARK    2  A    between atoms: O_8  and  C_9
REMARK    3  A    between atoms: C_9  and  C_10
REMARK    4  A    between atoms: C_10  and  C_13
REMARK                            x       y       z     vdW  Elec       q    Type
REMARK                         _______ _______ _______ _____ _____    ______ ____
ROOT
ATOM      1  N   UNL     1       7.596   5.052  12.684  0.00  0.00    +0.000 N 
ATOM      2  C   UNL     1       7.086   4.858  13.910  0.00  0.00    +0.000 A 
ATOM      3  N   UNL     1       7.650   5.305  15.003  0.00  0.00    +0.000 NA
ATOM      4  C   UNL     1       6.875   4.981  16.105  0.00  0.00    +0.000 A 
ATOM      5  C   UNL     1       7.145   5.320  17.445  0.00  0.00    +0.000 A 
ATOM      6  C   UNL     1       6.250   4.933  18.453  0.00  0.00    +0.000 A 
ATOM      7  C   UNL     1       5.097   4.209  18.152  0.00  0.00    +0.000 A 
ATOM      8  C   UNL     1       4.818   3.854  16.827  0.00  0.00    +0.000 A 
ATOM      9  C   UNL     1       5.719   4.255  15.824  0.00  0.00    +0.000 A 
ATOM     10  S   UNL     1       5.633   3.979  14.127  0.00  0.00    +0.000 S 
ATOM     11  H   UNL     1       8.566   5.345  12.640  0.00  0.00    +0.000 HD
ATOM     12  H   UNL     1       7.293   4.452  11.928  0.00  0.00    +0.000 HD
ENDROOT
BRANCH   7  13
ATOM     13  O   UNL     1       4.311   3.903  19.232  0.00  0.00    +0.000 OA
BRANCH  13  14
ATOM     14  C   UNL     1       2.993   4.469  19.239  0.00  0.00    +0.000 C 
BRANCH  14  15
ATOM     15  C   UNL     1       1.954   3.427  19.638  0.00  0.00    +0.000 C 
ATOM     16  F   UNL     1       2.550   2.450  20.380  0.00  0.00    +0.000 F 
ATOM     17  F   UNL     1       1.021   4.001  20.450  0.00  0.00    +0.000 F 
BRANCH  15  18
ATOM     18  C   UNL     1       1.295   2.834  18.388  0.00  0.00    +0.000 C 
ATOM     19  F   UNL     1       2.134   2.016  17.701  0.00  0.00    +0.000 F 
ATOM     20  F   UNL     1       0.199   2.097  18.690  0.00  0.00    +0.000 F 
ATOM     21  F   UNL     1       0.894   3.794  17.519  0.00  0.00    +0.000 F 
ENDBRANCH  15  18
ENDBRANCH  14  15
ENDBRANCH  13  14
ENDBRANCH   7  13
TORSDOF 4
ENDMDL
MODEL 6
REMARK VINA RESULT:      -7.0      1.763      2.576
REMARK  Name = 
REMARK  4 active torsions:
REMARK  status: ('A' for Active; 'I' for Inactive)
REMARK    1  A    between atoms: C_7  and  O_8
REMARK    2  A    between atoms: O_8  and  C_9
REMARK    3  A    between atoms: C_9  and  C_10
REMARK    4  A    between atoms: C_10  and  C_13
REMARK                            x       y       z     vdW  Elec       q    Type
REMARK                         _______ _______ _______ _____ _____    ______ ____
ROOT
ATOM      1  N   UNL     1       7.788   5.425  13.161  0.00  0.00    +0.000 N 
ATOM      2  C   UNL     1       7.164   5.065  14.293  0.00  0.00    +0.000 A 
ATOM      3  N   UNL     1       7.567   5.428  15.484  0.00  0.00    +0.000 NA
ATOM      4  C   UNL     1       6.704   4.935  16.449  0.00  0.00    +0.000 A 
ATOM      5  C   UNL     1       6.798   5.143  17.839  0.00  0.00    +0.000 A 
ATOM      6  C   UNL     1       5.831   4.591  18.690  0.00  0.00    +0.000 A 
ATOM      7  C   UNL     1       4.779   3.828  18.186  0.00  0.00    +0.000 A 
ATOM      8  C   UNL     1       4.676   3.601  16.808  0.00  0.00    +0.000 A 
ATOM      9  C   UNL     1       5.647   4.167  15.963  0.00  0.00    +0.000 A 
ATOM     10  S   UNL     1       5.769   4.072  14.249  0.00  0.00    +0.000 S 
ATOM     11  H   UNL     1       8.730   5.785  13.260  0.00  0.00    +0.000 HD
ATOM     12  H   UNL     1       7.618   4.892  12.318  0.00  0.00    +0.000 HD
ENDROOT
BRANCH   7  13
ATOM     13  O   UNL     1       3.906   3.355  19.130  0.00  0.00    +0.000 OA
BRANCH  13  14
ATOM     14  C   UNL     1       2.803   2.577  18.643  0.00  0.00    +0.000 C 
BRANCH  14  15
ATOM     15  C   UNL     1       1.485   3.317  18.835  0.00  0.00    +0.000 C 
ATOM     16  F   UNL     1       1.404   4.344  17.943  0.00  0.00    +0.000 F 
ATOM     17  F   UNL     1       0.447   2.483  18.546  0.00  0.00    +0.000 F 
BRANCH  15  18
ATOM     18  C   UNL     1       1.379   3.838  20.273  0.00  0.00    +0.000 C 
ATOM     19  F   UNL     1       0.180   4.427  20.522  0.00  0.00    +0.000 F 
ATOM     20  F   UNL     1       1.519   2.847  21.187  0.00  0.00    +0.000 F 
ATOM     21  F   UNL     1       2.329   4.764  20.552  0.00  0.00    +0.000 F 
ENDBRANCH  15  18
ENDBRANCH  14  15
ENDBRANCH  13  14
ENDBRANCH   7  13
TORSDOF 4
ENDMDL
MODEL 7
REMARK VINA RESULT:      -7.0      1.761      2.559
REMARK  Name = 
REMARK  4 active torsions:
REMARK  status: ('A' for Active; 'I' for Inactive)
REMARK    1  A    between atoms: C_7  and  O_8
REMARK    2  A    between atoms: O_8  and  C_9
REMARK    3  A    between atoms: C_9  and  C_10
REMARK    4  A    between atoms: C_10  and  C_13
REMARK                            x       y       z     vdW  Elec       q    Type
REMARK                         _______ _______ _______ _____ _____    ______ ____
ROOT
ATOM      1  N   UNL     1       7.648   5.031  12.458  0.00  0.00    +0.000 N 
ATOM      2  C   UNL     1       7.155   4.895  13.699  0.00  0.00    +0.000 A 
ATOM      3  N   UNL     1       7.697   5.447  14.754  0.00  0.00    +0.000 NA
ATOM      4  C   UNL     1       6.946   5.159  15.881  0.00  0.00    +0.000 A 
ATOM      5  C   UNL     1       7.201   5.605  17.192  0.00  0.00    +0.000 A 
ATOM      6  C   UNL     1       6.334   5.241  18.231  0.00  0.00    +0.000 A 
ATOM      7  C   UNL     1       5.222   4.435  17.991  0.00  0.00    +0.000 A 
ATOM      8  C   UNL     1       4.957   3.973  16.695  0.00  0.00    +0.000 A 
ATOM      9  C   UNL     1       5.831   4.352  15.660  0.00  0.00    +0.000 A 
ATOM     10  S   UNL     1       5.753   3.953  13.988  0.00  0.00    +0.000 S 
ATOM     11  H   UNL     1       8.599   5.373  12.386  0.00  0.00    +0.000 HD
ATOM     12  H   UNL     1       7.376   4.364  11.748  0.00  0.00    +0.000 HD
ENDROOT
BRANCH   7  13
ATOM     13  O   UNL     1       4.458   4.162  19.095  0.00  0.00    +0.000 OA
BRANCH  13  14
ATOM     14  C   UNL     1       3.442   3.162  18.935  0.00  0.00    +0.000 C 
BRANCH  14  15
ATOM     15  C   UNL     1       2.067   3.801  18.778  0.00  0.00    +0.000 C 
ATOM     16  F   UNL     1       2.141   5.126  19.093  0.00  0.00    +0.000 F 
ATOM     17  F   UNL     1       1.685   3.745  17.471  0.00  0.00    +0.000 F 
BRANCH  15  18
ATOM     18  C   UNL     1       1.048   3.086  19.673  0.00  0.00    +0.000 C 
ATOM     19  F   UNL     1       0.371   3.948  20.475  0.00  0.00    +0.000 F 
ATOM     20  F   UNL     1       0.116   2.417  18.951  0.00  0.00    +0.000 F 
ATOM     21  F   UNL     1       1.636   2.179  20.490  0.00  0.00    +0.000 F 
ENDBRANCH  15  18
ENDBRANCH  14  15
ENDBRANCH  13  14
ENDBRANCH   7  13
TORSDOF 4
ENDMDL
MODEL 8
REMARK VINA RESULT:      -7.0      1.785      2.208
REMARK  Name = 
REMARK  4 active torsions:
REMARK  status: ('A' for Active; 'I' for Inactive)
REMARK    1  A    between atoms: C_7  and  O_8
REMARK    2  A    between atoms: O_8  and  C_9
REMARK    3  A    between atoms: C_9  and  C_10
REMARK    4  A    between atoms: C_10  and  C_13
REMARK                            x       y       z     vdW  Elec       q    Type
REMARK                         _______ _______ _______ _____ _____    ______ ____
ROOT
ATOM      1  N   UNL     1       7.525   5.247  13.277  0.00  0.00    +0.000 N 
ATOM      2  C   UNL     1       7.047   5.047  14.515  0.00  0.00    +0.000 A 
ATOM      3  N   UNL     1       7.580   5.576  15.586  0.00  0.00    +0.000 NA
ATOM      4  C   UNL     1       6.848   5.221  16.707  0.00  0.00    +0.000 A 
ATOM      5  C   UNL     1       7.101   5.624  18.033  0.00  0.00    +0.000 A 
ATOM      6  C   UNL     1       6.254   5.192  19.063  0.00  0.00    +0.000 A 
ATOM      7  C   UNL     1       5.166   4.361  18.800  0.00  0.00    +0.000 A 
ATOM      8  C   UNL     1       4.906   3.941  17.490  0.00  0.00    +0.000 A 
ATOM      9  C   UNL     1       5.758   4.387  16.464  0.00  0.00    +0.000 A 
ATOM     10  S   UNL     1       5.678   4.051  14.777  0.00  0.00    +0.000 S 
ATOM     11  H   UNL     1       8.464   5.621  13.211  0.00  0.00    +0.000 HD
ATOM     12  H   UNL     1       7.268   4.599  12.543  0.00  0.00    +0.000 HD
ENDROOT
BRANCH   7  13
ATOM     13  O   UNL     1       4.421   4.021  19.899  0.00  0.00    +0.000 OA
BRANCH  13  14
ATOM     14  C   UNL     1       3.538   2.901  19.748  0.00  0.00    +0.000 C 
BRANCH  14  15
ATOM     15  C   UNL     1       2.278   3.082  20.585  0.00  0.00    +0.000 C 
ATOM     16  F   UNL     1       1.494   1.973  20.475  0.00  0.00    +0.000 F 
ATOM     17  F   UNL     1       2.615   3.177  21.902  0.00  0.00    +0.000 F 
BRANCH  15  18
ATOM     18  C   UNL     1       1.517   4.332  20.127  0.00  0.00    +0.000 C 
ATOM     19  F   UNL     1       1.662   4.568  18.798  0.00  0.00    +0.000 F 
ATOM     20  F   UNL     1       0.185   4.232  20.358  0.00  0.00    +0.000 F 
ATOM     21  F   UNL     1       1.942   5.450  20.767  0.00  0.00    +0.000 F 
ENDBRANCH  15  18
ENDBRANCH  14  15
ENDBRANCH  13  14
ENDBRANCH   7  13
TORSDOF 4
ENDMDL
MODEL 9
REMARK VINA RESULT:      -6.9      1.637      2.249
REMARK  Name = 
REMARK  4 active torsions:
REMARK  status: ('A' for Active; 'I' for Inactive)
REMARK    1  A    between atoms: C_7  and  O_8
REMARK    2  A    between atoms: O_8  and  C_9
REMARK    3  A    between atoms: C_9  and  C_10
REMARK    4  A    between atoms: C_10  and  C_13
REMARK                            x       y       z     vdW  Elec       q    Type
REMARK                         _______ _______ _______ _____ _____    ______ ____
ROOT
ATOM      1  N   UNL     1       7.688   5.440  13.336  0.00  0.00    +0.000 N 
ATOM      2  C   UNL     1       7.102   5.111  14.498  0.00  0.00    +0.000 A 
ATOM      3  N   UNL     1       7.537   5.518  15.663  0.00  0.00    +0.000 NA
ATOM      4  C   UNL     1       6.709   5.049  16.669  0.00  0.00    +0.000 A 
ATOM      5  C   UNL     1       6.841   5.305  18.048  0.00  0.00    +0.000 A 
ATOM      6  C   UNL     1       5.907   4.771  18.946  0.00  0.00    +0.000 A 
ATOM      7  C   UNL     1       4.850   3.980  18.500  0.00  0.00    +0.000 A 
ATOM      8  C   UNL     1       4.708   3.706  17.134  0.00  0.00    +0.000 A 
ATOM      9  C   UNL     1       5.647   4.254  16.241  0.00  0.00    +0.000 A 
ATOM     10  S   UNL     1       5.719   4.102  14.529  0.00  0.00    +0.000 S 
ATOM     11  H   UNL     1       8.628   5.813  13.394  0.00  0.00    +0.000 HD
ATOM     12  H   UNL     1       7.499   4.877  12.517  0.00  0.00    +0.000 HD
ENDROOT
BRANCH   7  13
ATOM     13  O   UNL     1       4.011   3.530  19.485  0.00  0.00    +0.000 OA
BRANCH  13  14
ATOM     14  C   UNL     1       3.201   4.520  20.133  0.00  0.00    +0.000 C 
BRANCH  14  15
ATOM     15  C   UNL     1       1.733   4.357  19.757  0.00  0.00    +0.000 C 
ATOM     16  F   UNL     1       0.986   5.287  20.418  0.00  0.00    +0.000 F 
ATOM     17  F   UNL     1       1.571   4.618  18.429  0.00  0.00    +0.000 F 
BRANCH  15  18
ATOM     18  C   UNL     1       1.257   2.939  20.094  0.00  0.00    +0.000 C 
ATOM     19  F   UNL     1       0.100   2.619  19.460  0.00  0.00    +0.000 F 
ATOM     20  F   UNL     1       2.165   1.998  19.737  0.00  0.00    +0.000 F 
ATOM     21  F   UNL     1       1.029   2.780  21.420  0.00  0.00    +0.000 F 
ENDBRANCH  15  18
ENDBRANCH  14  15
ENDBRANCH  13  14
ENDBRANCH   7  13
TORSDOF 4
ENDMDL
