MODEL 1
REMARK VINA RESULT:      -7.5      0.000      0.000
REMARK  Name = 
REMARK  4 active torsions:
REMARK  status: ('A' for Active; 'I' for Inactive)
REMARK    1  A    between atoms: C_1  and  O_2
REMARK    2  A    between atoms: O_2  and  C_3
REMARK    3  A    between atoms: C_7  and  C_8
REMARK    4  A    between atoms: C_21  and  N_22
REMARK                            x       y       z     vdW  Elec       q    Type
REMARK                         _______ _______ _______ _____ _____    ______ ____
ROOT
ATOM      1  C   UNL     1      -2.678  11.557  18.191  0.00  0.00    +0.000 A 
ATOM      2  C   UNL     1      -3.509  11.838  19.276  0.00  0.00    +0.000 A 
ATOM      3  C   UNL     1      -4.885  11.913  19.021  0.00  0.00    +0.000 A 
ATOM      4  C   UNL     1      -5.384  11.716  17.737  0.00  0.00    +0.000 A 
ATOM      5  C   UNL     1      -4.495  11.485  16.688  0.00  0.00    +0.000 A 
ATOM      6  N   UNL     1      -3.163  11.408  16.924  0.00  0.00    +0.000 NA
ATOM      7  C   UNL     1      -6.779  11.792  17.875  0.00  0.00    +0.000 A 
ATOM      8  N   UNL     1      -7.164  12.009  19.131  0.00  0.00    +0.000 NA
ATOM      9  N   UNL     1      -5.996  12.123  19.834  0.00  0.00    +0.000 N 
ATOM     10  C   UNL     1      -6.013  12.397  21.241  0.00  0.00    +0.000 A 
ATOM     11  C   UNL     1      -7.225  12.353  21.914  0.00  0.00    +0.000 A 
ATOM     12  C   UNL     1      -7.218  12.547  23.284  0.00  0.00    +0.000 A 
ATOM     13  C   UNL     1      -6.011  12.810  23.931  0.00  0.00    +0.000 A 
ATOM     14  C   UNL     1      -4.825  12.901  23.204  0.00  0.00    +0.000 A 
ATOM     15  N   UNL     1      -4.839  12.678  21.871  0.00  0.00    +0.000 NA
ENDROOT
BRANCH  14  16
ATOM     16  N   UNL     1      -3.629  13.221  23.794  0.00  0.00    +0.000 N 
ATOM     17  C   UNL     1      -2.374  12.499  23.583  0.00  0.00    +0.000 C 
ATOM     18  C   UNL     1      -1.251  13.492  23.199  0.00  0.00    +0.000 C 
ATOM     19  N   UNL     1      -1.086  14.602  24.157  0.00  0.00    +0.000 NA
ATOM     20  C   UNL     1      -2.384  15.298  24.316  0.00  0.00    +0.000 C 
ATOM     21  C   UNL     1      -3.538  14.356  24.723  0.00  0.00    +0.000 C 
ATOM     22  H   UNL     1      -0.415  15.267  23.773  0.00  0.00    +0.000 HD
ENDBRANCH  14  16
BRANCH   1  27
ATOM     23  C   UNL     1       0.625   9.970  18.148  0.00  0.00    +0.000 A 
ATOM     24  C   UNL     1       1.446  11.018  18.548  0.00  0.00    +0.000 A 
ATOM     25  N   UNL     1       0.972  12.243  18.879  0.00  0.00    +0.000 NA
ATOM     26  C   UNL     1      -0.373  12.383  18.769  0.00  0.00    +0.000 A 
ATOM     27  C   UNL     1      -1.222  11.357  18.357  0.00  0.00    +0.000 A 
ATOM     28  N   UNL     1      -0.713  10.128  18.047  0.00  0.00    +0.000 NA
BRANCH  23  30
ATOM     29  C   UNL     1       2.454   8.515  17.817  0.00  0.00    +0.000 C 
ATOM     30  O   UNL     1       1.050   8.728  17.776  0.00  0.00    +0.000 OA
ENDBRANCH  23  30
ENDBRANCH   1  27
TORSDOF 3
ENDMDL
MODEL 2
REMARK VINA RESULT:      -7.4      1.153      1.613
REMARK  Name = 
REMARK  4 active torsions:
REMARK  status: ('A' for Active; 'I' for Inactive)
REMARK    1  A    between atoms: C_1  and  O_2
REMARK    2  A    between atoms: O_2  and  C_3
REMARK    3  A    between atoms: C_7  and  C_8
REMARK    4  A    between atoms: C_21  and  N_22
REMARK                            x       y       z     vdW  Elec       q    Type
REMARK                         _______ _______ _______ _____ _____    ______ ____
ROOT
ATOM      1  C   UNL     1      -2.782  11.521  18.119  0.00  0.00    +0.000 A 
ATOM      2  C   UNL     1      -3.580  11.817  19.225  0.00  0.00    +0.000 A 
ATOM      3  C   UNL     1      -4.957  11.936  19.002  0.00  0.00    +0.000 A 
ATOM      4  C   UNL     1      -5.491  11.766  17.728  0.00  0.00    +0.000 A 
ATOM      5  C   UNL     1      -4.634  11.518  16.657  0.00  0.00    +0.000 A 
ATOM      6  N   UNL     1      -3.300  11.398  16.863  0.00  0.00    +0.000 NA
ATOM      7  C   UNL     1      -6.880  11.883  17.898  0.00  0.00    +0.000 A 
ATOM      8  N   UNL     1      -7.230  12.100  19.164  0.00  0.00    +0.000 NA
ATOM      9  N   UNL     1      -6.043  12.172  19.842  0.00  0.00    +0.000 N 
ATOM     10  C   UNL     1      -6.020  12.433  21.251  0.00  0.00    +0.000 A 
ATOM     11  C   UNL     1      -7.218  12.421  21.951  0.00  0.00    +0.000 A 
ATOM     12  C   UNL     1      -7.174  12.601  23.323  0.00  0.00    +0.000 A 
ATOM     13  C   UNL     1      -5.945  12.822  23.944  0.00  0.00    +0.000 A 
ATOM     14  C   UNL     1      -4.774  12.883  23.191  0.00  0.00    +0.000 A 
ATOM     15  N   UNL     1      -4.824  12.673  21.856  0.00  0.00    +0.000 NA
ENDROOT
BRANCH  14  16
ATOM     16  N   UNL     1      -3.555  13.161  23.756  0.00  0.00    +0.000 N 
ATOM     17  C   UNL     1      -2.305  12.476  23.426  0.00  0.00    +0.000 C 
ATOM     18  C   UNL     1      -1.208  13.513  23.087  0.00  0.00    +0.000 C 
ATOM     19  N   UNL     1      -1.009  14.532  24.136  0.00  0.00    +0.000 NA
ATOM     20  C   UNL     1      -2.304  15.195  24.414  0.00  0.00    +0.000 C 
ATOM     21  C   UNL     1      -3.432  14.207  24.782  0.00  0.00    +0.000 C 
ATOM     22  H   UNL     1      -0.360  15.237  23.787  0.00  0.00    +0.000 HD
ENDBRANCH  14  16
BRANCH   1  27
ATOM     23  C   UNL     1       0.764  12.052  18.879  0.00  0.00    +0.000 A 
ATOM     24  C   UNL     1       1.302  10.801  18.600  0.00  0.00    +0.000 A 
ATOM     25  N   UNL     1       0.564   9.769  18.128  0.00  0.00    +0.000 NA
ATOM     26  C   UNL     1      -0.756  10.037  17.966  0.00  0.00    +0.000 A 
ATOM     27  C   UNL     1      -1.330  11.275  18.250  0.00  0.00    +0.000 A 
ATOM     28  N   UNL     1      -0.554  12.302  18.709  0.00  0.00    +0.000 NA
BRANCH  23  30
ATOM     29  C   UNL     1       2.112  13.936  18.428  0.00  0.00    +0.000 C 
ATOM     30  O   UNL     1       1.453  13.117  19.383  0.00  0.00    +0.000 OA
ENDBRANCH  23  30
ENDBRANCH   1  27
TORSDOF 3
ENDMDL
MODEL 3
REMARK VINA RESULT:      -7.2      2.327      3.501
REMARK  Name = 
REMARK  4 active torsions:
REMARK  status: ('A' for Active; 'I' for Inactive)
REMARK    1  A    between atoms: C_1  and  O_2
REMARK    2  A    between atoms: O_2  and  C_3
REMARK    3  A    between atoms: C_7  and  C_8
REMARK    4  A    between atoms: C_21  and  N_22
REMARK                            x       y       z     vdW  Elec       q    Type
REMARK                         _______ _______ _______ _____ _____    ______ ____
ROOT
ATOM      1  C   UNL     1      -4.937  11.740  17.978  0.00  0.00    +0.000 A 
ATOM      2  C   UNL     1      -4.815  12.000  19.344  0.00  0.00    +0.000 A 
ATOM      3  C   UNL     1      -5.896  12.634  19.970  0.00  0.00    +0.000 A 
ATOM      4  C   UNL     1      -7.034  12.984  19.248  0.00  0.00    +0.000 A 
ATOM      5  C   UNL     1      -7.074  12.737  17.877  0.00  0.00    +0.000 A 
ATOM      6  N   UNL     1      -6.034  12.122  17.262  0.00  0.00    +0.000 NA
ATOM      7  C   UNL     1      -7.916  13.520  20.199  0.00  0.00    +0.000 A 
ATOM      8  N   UNL     1      -7.413  13.516  21.432  0.00  0.00    +0.000 NA
ATOM      9  N   UNL     1      -6.152  13.006  21.288  0.00  0.00    +0.000 N 
ATOM     10  C   UNL     1      -5.280  12.878  22.418  0.00  0.00    +0.000 A 
ATOM     11  C   UNL     1      -5.797  13.099  23.687  0.00  0.00    +0.000 A 
ATOM     12  C   UNL     1      -4.964  12.900  24.774  0.00  0.00    +0.000 A 
ATOM     13  C   UNL     1      -3.639  12.525  24.560  0.00  0.00    +0.000 A 
ATOM     14  C   UNL     1      -3.148  12.372  23.265  0.00  0.00    +0.000 A 
ATOM     15  N   UNL     1      -3.979  12.536  22.211  0.00  0.00    +0.000 NA
ENDROOT
BRANCH  14  16
ATOM     16  N   UNL     1      -1.835  12.066  23.011  0.00  0.00    +0.000 N 
ATOM     17  C   UNL     1      -1.250  10.730  23.132  0.00  0.00    +0.000 C 
ATOM     18  C   UNL     1      -0.493  10.366  21.832  0.00  0.00    +0.000 C 
ATOM     19  N   UNL     1       0.514  11.367  21.430  0.00  0.00    +0.000 NA
ATOM     20  C   UNL     1      -0.142  12.690  21.315  0.00  0.00    +0.000 C 
ATOM     21  C   UNL     1      -0.895  13.116  22.594  0.00  0.00    +0.000 C 
ATOM     22  H   UNL     1       0.879  11.113  20.513  0.00  0.00    +0.000 HD
ENDBRANCH  14  16
BRANCH   1  27
ATOM     23  C   UNL     1      -2.990  10.366  15.194  0.00  0.00    +0.000 A 
ATOM     24  C   UNL     1      -1.958   9.719  15.865  0.00  0.00    +0.000 A 
ATOM     25  N   UNL     1      -1.873   9.668  17.215  0.00  0.00    +0.000 NA
ATOM     26  C   UNL     1      -2.864  10.320  17.875  0.00  0.00    +0.000 A 
ATOM     27  C   UNL     1      -3.904  10.990  17.233  0.00  0.00    +0.000 A 
ATOM     28  N   UNL     1      -3.970  11.007  15.869  0.00  0.00    +0.000 NA
BRANCH  23  30
ATOM     29  C   UNL     1      -4.239   9.832  13.264  0.00  0.00    +0.000 C 
ATOM     30  O   UNL     1      -3.109  10.474  13.839  0.00  0.00    +0.000 OA
ENDBRANCH  23  30
ENDBRANCH   1  27
TORSDOF 3
ENDMDL
MODEL 4
REMARK VINA RESULT:      -7.1      0.839      1.209
REMARK  Name = 
REMARK  4 active torsions:
REMARK  status: ('A' for Active; 'I' for Inactive)
REMARK    1  A    between atoms: C_1  and  O_2
REMARK    2  A    between atoms: O_2  and  C_3
REMARK    3  A    between atoms: C_7  and  C_8
REMARK    4  A    between atoms: C_21  and  N_22
REMARK                            x       y       z     vdW  Elec       q    Type
REMARK                         _______ _______ _______ _____ _____    ______ ____
ROOT
ATOM      1  C   UNL     1      -2.669  11.704  18.399  0.00  0.00    +0.000 A 
ATOM      2  C   UNL     1      -3.529  12.137  19.410  0.00  0.00    +0.000 A 
ATOM      3  C   UNL     1      -4.901  11.952  19.200  0.00  0.00    +0.000 A 
ATOM      4  C   UNL     1      -5.371  11.363  18.029  0.00  0.00    +0.000 A 
ATOM      5  C   UNL     1      -4.462  10.995  17.039  0.00  0.00    +0.000 A 
ATOM      6  N   UNL     1      -3.132  11.167  17.233  0.00  0.00    +0.000 NA
ATOM      7  C   UNL     1      -6.762  11.277  18.200  0.00  0.00    +0.000 A 
ATOM      8  N   UNL     1      -7.170  11.754  19.374  0.00  0.00    +0.000 NA
ATOM      9  N   UNL     1      -6.028  12.207  19.977  0.00  0.00    +0.000 N 
ATOM     10  C   UNL     1      -6.080  12.829  21.268  0.00  0.00    +0.000 A 
ATOM     11  C   UNL     1      -7.271  12.793  21.978  0.00  0.00    +0.000 A 
ATOM     12  C   UNL     1      -7.287  13.332  23.253  0.00  0.00    +0.000 A 
ATOM     13  C   UNL     1      -6.128  13.918  23.761  0.00  0.00    +0.000 A 
ATOM     14  C   UNL     1      -4.971  13.982  22.988  0.00  0.00    +0.000 A 
ATOM     15  N   UNL     1      -4.957  13.424  21.757  0.00  0.00    +0.000 NA
ENDROOT
BRANCH  14  16
ATOM     16  N   UNL     1      -3.831  14.607  23.427  0.00  0.00    +0.000 N 
ATOM     17  C   UNL     1      -3.725  15.375  24.668  0.00  0.00    +0.000 C 
ATOM     18  C   UNL     1      -2.512  14.880  25.492  0.00  0.00    +0.000 C 
ATOM     19  N   UNL     1      -1.242  14.881  24.740  0.00  0.00    +0.000 NA
ATOM     20  C   UNL     1      -1.413  14.080  23.506  0.00  0.00    +0.000 C 
ATOM     21  C   UNL     1      -2.597  14.546  22.631  0.00  0.00    +0.000 C 
ATOM     22  H   UNL     1      -0.525  14.435  25.311  0.00  0.00    +0.000 HD
ENDBRANCH  14  16
BRANCH   1  27
ATOM     23  C   UNL     1       0.811  10.628  18.807  0.00  0.00    +0.000 A 
ATOM     24  C   UNL     1       1.492  11.837  18.715  0.00  0.00    +0.000 A 
ATOM     25  N   UNL     1       0.865  13.027  18.560  0.00  0.00    +0.000 NA
ATOM     26  C   UNL     1      -0.487  12.954  18.477  0.00  0.00    +0.000 A 
ATOM     27  C   UNL     1      -1.199  11.758  18.551  0.00  0.00    +0.000 A 
ATOM     28  N   UNL     1      -0.538  10.576  18.725  0.00  0.00    +0.000 NA
BRANCH  23  30
ATOM     29  C   UNL     1       2.162   8.961  17.824  0.00  0.00    +0.000 C 
ATOM     30  O   UNL     1       1.391   9.399  18.934  0.00  0.00    +0.000 OA
ENDBRANCH  23  30
ENDBRANCH   1  27
TORSDOF 3
ENDMDL
MODEL 5
REMARK VINA RESULT:      -7.1      1.701      1.764
REMARK  Name = 
REMARK  4 active torsions:
REMARK  status: ('A' for Active; 'I' for Inactive)
REMARK    1  A    between atoms: C_1  and  O_2
REMARK    2  A    between atoms: O_2  and  C_3
REMARK    3  A    between atoms: C_7  and  C_8
REMARK    4  A    between atoms: C_21  and  N_22
REMARK                            x       y       z     vdW  Elec       q    Type
REMARK                         _______ _______ _______ _____ _____    ______ ____
ROOT
ATOM      1  C   UNL     1      -2.691  12.058  18.813  0.00  0.00    +0.000 A 
ATOM      2  C   UNL     1      -3.693  12.258  19.764  0.00  0.00    +0.000 A 
ATOM      3  C   UNL     1      -4.998  11.905  19.397  0.00  0.00    +0.000 A 
ATOM      4  C   UNL     1      -5.267  11.381  18.136  0.00  0.00    +0.000 A 
ATOM      5  C   UNL     1      -4.229  11.249  17.216  0.00  0.00    +0.000 A 
ATOM      6  N   UNL     1      -2.962  11.586  17.561  0.00  0.00    +0.000 NA
ATOM      7  C   UNL     1      -6.639  11.084  18.152  0.00  0.00    +0.000 A 
ATOM      8  N   UNL     1      -7.218  11.375  19.316  0.00  0.00    +0.000 NA
ATOM      9  N   UNL     1      -6.216  11.918  20.073  0.00  0.00    +0.000 N 
ATOM     10  C   UNL     1      -6.475  12.389  21.401  0.00  0.00    +0.000 A 
ATOM     11  C   UNL     1      -7.706  12.112  21.978  0.00  0.00    +0.000 A 
ATOM     12  C   UNL     1      -7.917  12.508  23.287  0.00  0.00    +0.000 A 
ATOM     13  C   UNL     1      -6.909  13.195  23.964  0.00  0.00    +0.000 A 
ATOM     14  C   UNL     1      -5.710  13.501  23.324  0.00  0.00    +0.000 A 
ATOM     15  N   UNL     1      -5.502  13.081  22.056  0.00  0.00    +0.000 NA
ENDROOT
BRANCH  14  16
ATOM     16  N   UNL     1      -4.720  14.230  23.934  0.00  0.00    +0.000 N 
ATOM     17  C   UNL     1      -3.526  13.659  24.557  0.00  0.00    +0.000 C 
ATOM     18  C   UNL     1      -2.260  14.363  24.014  0.00  0.00    +0.000 C 
ATOM     19  N   UNL     1      -2.293  15.833  24.146  0.00  0.00    +0.000 NA
ATOM     20  C   UNL     1      -3.516  16.347  23.486  0.00  0.00    +0.000 C 
ATOM     21  C   UNL     1      -4.815  15.695  24.008  0.00  0.00    +0.000 C 
ATOM     22  H   UNL     1      -1.485  16.223  23.663  0.00  0.00    +0.000 HD
ENDBRANCH  14  16
BRANCH   1  27
ATOM     23  C   UNL     1       0.587  11.831  20.436  0.00  0.00    +0.000 A 
ATOM     24  C   UNL     1       1.361  12.651  19.622  0.00  0.00    +0.000 A 
ATOM     25  N   UNL     1       0.858  13.325  18.562  0.00  0.00    +0.000 NA
ATOM     26  C   UNL     1      -0.464  13.126  18.333  0.00  0.00    +0.000 A 
ATOM     27  C   UNL     1      -1.266  12.301  19.121  0.00  0.00    +0.000 A 
ATOM     28  N   UNL     1      -0.730  11.648  20.194  0.00  0.00    +0.000 NA
BRANCH  23  30
ATOM     29  C   UNL     1       0.335   9.911  21.785  0.00  0.00    +0.000 C 
ATOM     30  O   UNL     1       1.046  11.107  21.497  0.00  0.00    +0.000 OA
ENDBRANCH  23  30
ENDBRANCH   1  27
TORSDOF 3
ENDMDL
MODEL 6
REMARK VINA RESULT:      -7.1      2.285      5.945
REMARK  Name = 
REMARK  4 active torsions:
REMARK  status: ('A' for Active; 'I' for Inactive)
REMARK    1  A    between atoms: C_1  and  O_2
REMARK    2  A    between atoms: O_2  and  C_3
REMARK    3  A    between atoms: C_7  and  C_8
REMARK    4  A    between atoms: C_21  and  N_22
REMARK                            x       y       z     vdW  Elec       q    Type
REMARK                         _______ _______ _______ _____ _____    ______ ____
ROOT
ATOM      1  C   UNL     1      -4.991  13.568  21.833  0.00  0.00    +0.000 A 
ATOM      2  C   UNL     1      -4.437  12.833  20.783  0.00  0.00    +0.000 A 
ATOM      3  C   UNL     1      -5.320  12.353  19.808  0.00  0.00    +0.000 A 
ATOM      4  C   UNL     1      -6.687  12.603  19.897  0.00  0.00    +0.000 A 
ATOM      5  C   UNL     1      -7.182  13.304  20.995  0.00  0.00    +0.000 A 
ATOM      6  N   UNL     1      -6.335  13.775  21.944  0.00  0.00    +0.000 NA
ATOM      7  C   UNL     1      -7.234  12.044  18.732  0.00  0.00    +0.000 A 
ATOM      8  N   UNL     1      -6.317  11.486  17.944  0.00  0.00    +0.000 NA
ATOM      9  N   UNL     1      -5.140  11.641  18.625  0.00  0.00    +0.000 N 
ATOM     10  C   UNL     1      -3.913  11.125  18.091  0.00  0.00    +0.000 A 
ATOM     11  C   UNL     1      -3.904  10.639  16.792  0.00  0.00    +0.000 A 
ATOM     12  C   UNL     1      -2.697  10.213  16.264  0.00  0.00    +0.000 A 
ATOM     13  C   UNL     1      -1.552  10.253  17.058  0.00  0.00    +0.000 A 
ATOM     14  C   UNL     1      -1.621  10.696  18.377  0.00  0.00    +0.000 A 
ATOM     15  N   UNL     1      -2.798  11.140  18.872  0.00  0.00    +0.000 NA
ENDROOT
BRANCH  14  16
ATOM     16  N   UNL     1      -0.531  10.690  19.210  0.00  0.00    +0.000 N 
ATOM     17  C   UNL     1       0.773  11.269  18.883  0.00  0.00    +0.000 C 
ATOM     18  C   UNL     1       1.228  12.218  20.017  0.00  0.00    +0.000 C 
ATOM     19  N   UNL     1       1.231  11.590  21.353  0.00  0.00    +0.000 NA
ATOM     20  C   UNL     1      -0.116  11.036  21.626  0.00  0.00    +0.000 C 
ATOM     21  C   UNL     1      -0.612  10.062  20.536  0.00  0.00    +0.000 C 
ATOM     22  H   UNL     1       1.426  12.307  22.050  0.00  0.00    +0.000 HD
ENDBRANCH  14  16
BRANCH   1  27
ATOM     23  C   UNL     1      -2.036  14.573  23.753  0.00  0.00    +0.000 A 
ATOM     24  C   UNL     1      -2.586  15.456  24.675  0.00  0.00    +0.000 A 
ATOM     25  N   UNL     1      -3.912  15.727  24.738  0.00  0.00    +0.000 NA
ATOM     26  C   UNL     1      -4.670  15.086  23.813  0.00  0.00    +0.000 A 
ATOM     27  C   UNL     1      -4.148  14.206  22.866  0.00  0.00    +0.000 A 
ATOM     28  N   UNL     1      -2.808  13.941  22.841  0.00  0.00    +0.000 NA
BRANCH  23  30
ATOM     29  C   UNL     1      -0.069  14.806  22.470  0.00  0.00    +0.000 C 
ATOM     30  O   UNL     1      -0.708  14.285  23.627  0.00  0.00    +0.000 OA
ENDBRANCH  23  30
ENDBRANCH   1  27
TORSDOF 3
ENDMDL
MODEL 7
REMARK VINA RESULT:      -7.0      1.372      1.718
REMARK  Name = 
REMARK  4 active torsions:
REMARK  status: ('A' for Active; 'I' for Inactive)
REMARK    1  A    between atoms: C_1  and  O_2
REMARK    2  A    between atoms: O_2  and  C_3
REMARK    3  A    between atoms: C_7  and  C_8
REMARK    4  A    between atoms: C_21  and  N_22
REMARK                            x       y       z     vdW  Elec       q    Type
REMARK                         _______ _______ _______ _____ _____    ______ ____
ROOT
ATOM      1  C   UNL     1      -2.707  11.279  18.352  0.00  0.00    +0.000 A 
ATOM      2  C   UNL     1      -3.558  11.842  19.305  0.00  0.00    +0.000 A 
ATOM      3  C   UNL     1      -4.852  12.175  18.885  0.00  0.00    +0.000 A 
ATOM      4  C   UNL     1      -5.255  11.951  17.572  0.00  0.00    +0.000 A 
ATOM      5  C   UNL     1      -4.342  11.429  16.657  0.00  0.00    +0.000 A 
ATOM      6  N   UNL     1      -3.088  11.100  17.054  0.00  0.00    +0.000 NA
ATOM      7  C   UNL     1      -6.606  12.331  17.537  0.00  0.00    +0.000 A 
ATOM      8  N   UNL     1      -7.054  12.757  18.717  0.00  0.00    +0.000 NA
ATOM      9  N   UNL     1      -5.963  12.698  19.541  0.00  0.00    +0.000 N 
ATOM     10  C   UNL     1      -6.056  13.118  20.909  0.00  0.00    +0.000 A 
ATOM     11  C   UNL     1      -7.308  13.401  21.435  0.00  0.00    +0.000 A 
ATOM     12  C   UNL     1      -7.391  13.733  22.776  0.00  0.00    +0.000 A 
ATOM     13  C   UNL     1      -6.224  13.806  23.536  0.00  0.00    +0.000 A 
ATOM     14  C   UNL     1      -4.983  13.569  22.949  0.00  0.00    +0.000 A 
ATOM     15  N   UNL     1      -4.916  13.213  21.646  0.00  0.00    +0.000 NA
ENDROOT
BRANCH  14  16
ATOM     16  N   UNL     1      -3.808  13.692  23.647  0.00  0.00    +0.000 N 
ATOM     17  C   UNL     1      -2.685  12.758  23.565  0.00  0.00    +0.000 C 
ATOM     18  C   UNL     1      -1.375  13.530  23.278  0.00  0.00    +0.000 C 
ATOM     19  N   UNL     1      -1.106  14.621  24.235  0.00  0.00    +0.000 NA
ATOM     20  C   UNL     1      -2.272  15.535  24.262  0.00  0.00    +0.000 C 
ATOM     21  C   UNL     1      -3.606  14.820  24.568  0.00  0.00    +0.000 C 
ATOM     22  H   UNL     1      -0.297  15.148  23.910  0.00  0.00    +0.000 HD
ENDBRANCH  14  16
BRANCH   1  27
ATOM     23  C   UNL     1       0.294  10.516  20.313  0.00  0.00    +0.000 A 
ATOM     24  C   UNL     1       1.066   9.824  19.387  0.00  0.00    +0.000 A 
ATOM     25  N   UNL     1       0.674   9.614  18.108  0.00  0.00    +0.000 NA
ATOM     26  C   UNL     1      -0.549  10.112  17.797  0.00  0.00    +0.000 A 
ATOM     27  C   UNL     1      -1.354  10.798  18.705  0.00  0.00    +0.000 A 
ATOM     28  N   UNL     1      -0.921  11.008  19.983  0.00  0.00    +0.000 NA
BRANCH  23  30
ATOM     29  C   UNL     1      -0.169  10.052  22.580  0.00  0.00    +0.000 C 
ATOM     30  O   UNL     1       0.626  10.731  21.619  0.00  0.00    +0.000 OA
ENDBRANCH  23  30
ENDBRANCH   1  27
TORSDOF 3
ENDMDL
MODEL 8
REMARK VINA RESULT:      -7.0      1.569      2.284
REMARK  Name = 
REMARK  4 active torsions:
REMARK  status: ('A' for Active; 'I' for Inactive)
REMARK    1  A    between atoms: C_1  and  O_2
REMARK    2  A    between atoms: O_2  and  C_3
REMARK    3  A    between atoms: C_7  and  C_8
REMARK    4  A    between atoms: C_21  and  N_22
REMARK                            x       y       z     vdW  Elec       q    Type
REMARK                         _______ _______ _______ _____ _____    ______ ____
ROOT
ATOM      1  C   UNL     1      -2.645  11.774  18.305  0.00  0.00    +0.000 A 
ATOM      2  C   UNL     1      -3.485  12.163  19.350  0.00  0.00    +0.000 A 
ATOM      3  C   UNL     1      -4.857  11.933  19.182  0.00  0.00    +0.000 A 
ATOM      4  C   UNL     1      -5.344  11.343  18.019  0.00  0.00    +0.000 A 
ATOM      5  C   UNL     1      -4.456  11.020  16.994  0.00  0.00    +0.000 A 
ATOM      6  N   UNL     1      -3.127  11.237  17.148  0.00  0.00    +0.000 NA
ATOM      7  C   UNL     1      -6.725  11.206  18.233  0.00  0.00    +0.000 A 
ATOM      8  N   UNL     1      -7.111  11.654  19.427  0.00  0.00    +0.000 NA
ATOM      9  N   UNL     1      -5.966  12.138  19.999  0.00  0.00    +0.000 N 
ATOM     10  C   UNL     1      -5.996  12.741  21.299  0.00  0.00    +0.000 A 
ATOM     11  C   UNL     1      -7.162  12.654  22.047  0.00  0.00    +0.000 A 
ATOM     12  C   UNL     1      -7.154  13.175  23.329  0.00  0.00    +0.000 A 
ATOM     13  C   UNL     1      -6.001  13.795  23.808  0.00  0.00    +0.000 A 
ATOM     14  C   UNL     1      -4.872  13.910  22.999  0.00  0.00    +0.000 A 
ATOM     15  N   UNL     1      -4.879  13.368  21.760  0.00  0.00    +0.000 NA
ENDROOT
BRANCH  14  16
ATOM     16  N   UNL     1      -3.741  14.568  23.410  0.00  0.00    +0.000 N 
ATOM     17  C   UNL     1      -3.665  15.453  24.573  0.00  0.00    +0.000 C 
ATOM     18  C   UNL     1      -2.482  15.034  25.478  0.00  0.00    +0.000 C 
ATOM     19  N   UNL     1      -1.190  14.955  24.769  0.00  0.00    +0.000 NA
ATOM     20  C   UNL     1      -1.330  14.039  23.614  0.00  0.00    +0.000 C 
ATOM     21  C   UNL     1      -2.484  14.423  22.662  0.00  0.00    +0.000 C 
ATOM     22  H   UNL     1      -0.494  14.563  25.402  0.00  0.00    +0.000 HD
ENDBRANCH  14  16
BRANCH   1  27
ATOM     23  C   UNL     1       0.714  13.218  18.559  0.00  0.00    +0.000 A 
ATOM     24  C   UNL     1       1.498  12.081  18.716  0.00  0.00    +0.000 A 
ATOM     25  N   UNL     1       0.989  10.826  18.708  0.00  0.00    +0.000 NA
ATOM     26  C   UNL     1      -0.357  10.758  18.557  0.00  0.00    +0.000 A 
ATOM     27  C   UNL     1      -1.174  11.878  18.411  0.00  0.00    +0.000 A 
ATOM     28  N   UNL     1      -0.626  13.129  18.405  0.00  0.00    +0.000 NA
BRANCH  23  30
ATOM     29  C   UNL     1       0.218  15.489  18.968  0.00  0.00    +0.000 C 
ATOM     30  O   UNL     1       1.169  14.504  18.588  0.00  0.00    +0.000 OA
ENDBRANCH  23  30
ENDBRANCH   1  27
TORSDOF 3
ENDMDL
MODEL 9
REMARK VINA RESULT:      -7.0      2.772      7.732
REMARK  Name = 
REMARK  4 active torsions:
REMARK  status: ('A' for Active; 'I' for Inactive)
REMARK    1  A    between atoms: C_1  and  O_2
REMARK    2  A    between atoms: O_2  and  C_3
REMARK    3  A    between atoms: C_7  and  C_8
REMARK    4  A    between atoms: C_21  and  N_22
REMARK                            x       y       z     vdW  Elec       q    Type
REMARK                         _______ _______ _______ _____ _____    ______ ____
ROOT
ATOM      1  C   UNL     1      -3.624  13.838  22.859  0.00  0.00    +0.000 A 
ATOM      2  C   UNL     1      -3.296  13.116  21.711  0.00  0.00    +0.000 A 
ATOM      3  C   UNL     1      -1.933  12.930  21.444  0.00  0.00    +0.000 A 
ATOM      4  C   UNL     1      -0.963  13.452  22.295  0.00  0.00    +0.000 A 
ATOM      5  C   UNL     1      -1.357  14.204  23.400  0.00  0.00    +0.000 A 
ATOM      6  N   UNL     1      -2.673  14.387  23.668  0.00  0.00    +0.000 NA
ATOM      7  C   UNL     1       0.260  13.014  21.761  0.00  0.00    +0.000 A 
ATOM      8  N   UNL     1       0.111  12.267  20.668  0.00  0.00    +0.000 NA
ATOM      9  N   UNL     1      -1.240  12.247  20.448  0.00  0.00    +0.000 N 
ATOM     10  C   UNL     1      -1.787  11.553  19.319  0.00  0.00    +0.000 A 
ATOM     11  C   UNL     1      -0.949  10.746  18.563  0.00  0.00    +0.000 A 
ATOM     12  C   UNL     1      -1.504  10.025  17.520  0.00  0.00    +0.000 A 
ATOM     13  C   UNL     1      -2.865  10.159  17.245  0.00  0.00    +0.000 A 
ATOM     14  C   UNL     1      -3.655  11.027  17.996  0.00  0.00    +0.000 A 
ATOM     15  N   UNL     1      -3.109  11.701  19.033  0.00  0.00    +0.000 NA
ENDROOT
BRANCH  14  16
ATOM     16  N   UNL     1      -4.982  11.235  17.717  0.00  0.00    +0.000 N 
ATOM     17  C   UNL     1      -6.087  10.462  18.285  0.00  0.00    +0.000 C 
ATOM     18  C   UNL     1      -7.145  11.417  18.886  0.00  0.00    +0.000 C 
ATOM     19  N   UNL     1      -7.628  12.441  17.939  0.00  0.00    +0.000 NA
ATOM     20  C   UNL     1      -6.466  13.193  17.411  0.00  0.00    +0.000 C 
ATOM     21  C   UNL     1      -5.387  12.289  16.777  0.00  0.00    +0.000 C 
ATOM     22  H   UNL     1      -8.227  13.095  18.443  0.00  0.00    +0.000 HD
ENDBRANCH  14  16
BRANCH   1  27
ATOM     23  C   UNL     1      -7.080  13.059  23.799  0.00  0.00    +0.000 A 
ATOM     24  C   UNL     1      -7.552  14.305  24.193  0.00  0.00    +0.000 A 
ATOM     25  N   UNL     1      -6.802  15.431  24.136  0.00  0.00    +0.000 NA
ATOM     26  C   UNL     1      -5.536  15.251  23.684  0.00  0.00    +0.000 A 
ATOM     27  C   UNL     1      -5.027  14.013  23.293  0.00  0.00    +0.000 A 
ATOM     28  N   UNL     1      -5.816  12.899  23.347  0.00  0.00    +0.000 NA
BRANCH  23  30
ATOM     29  C   UNL     1      -7.916  11.181  22.638  0.00  0.00    +0.000 C 
ATOM     30  O   UNL     1      -7.780  11.889  23.862  0.00  0.00    +0.000 OA
ENDBRANCH  23  30
ENDBRANCH   1  27
TORSDOF 3
ENDMDL
