MODEL 1
REMARK VINA RESULT:      -8.4      0.000      0.000
REMARK  Name = 
REMARK  5 active torsions:
REMARK  status: ('A' for Active; 'I' for Inactive)
REMARK    1  A    between atoms: C_2  and  C_3
REMARK    2  A    between atoms: C_5  and  N_6
REMARK    3  A    between atoms: N_6  and  C_7
REMARK    4  A    between atoms: C_12  and  C_13
REMARK    5  A    between atoms: C_21  and  N_22
REMARK                            x       y       z     vdW  Elec       q    Type
REMARK                         _______ _______ _______ _____ _____    ______ ____
ROOT
ATOM      1  N   UNL     1       2.916   6.293  19.851  0.00  0.00    +0.000 N 
ATOM      2  H   UNL     1       3.807   6.370  20.337  0.00  0.00    +0.000 HD
ENDROOT
BRANCH   1   5
ATOM      3  C   UNL     1       0.753   9.233  20.632  0.00  0.00    +0.000 A 
ATOM      4  C   UNL     1       1.461   8.023  20.766  0.00  0.00    +0.000 A 
ATOM      5  C   UNL     1       2.189   7.489  19.694  0.00  0.00    +0.000 A 
ATOM      6  C   UNL     1       2.170   8.169  18.464  0.00  0.00    +0.000 A 
ATOM      7  C   UNL     1       1.477   9.370  18.310  0.00  0.00    +0.000 A 
ATOM      8  C   UNL     1       0.778   9.891  19.400  0.00  0.00    +0.000 A 
BRANCH   8   9
ATOM      9  N   UNL     1       0.071  11.143  19.208  0.00  0.00    +0.000 N 
ATOM     10  O   UNL     1       0.693  12.184  19.452  0.00  0.00    +0.000 OA
ATOM     11  O   UNL     1      -1.086  11.072  18.774  0.00  0.00    +0.000 OA
ENDBRANCH   8   9
BRANCH   3  13
ATOM     12  N   UNL     1      -0.562  10.161  22.664  0.00  0.00    +0.000 NA
ATOM     13  C   UNL     1       0.017   9.724  21.757  0.00  0.00    +0.000 C 
ENDBRANCH   3  13
ENDBRANCH   1   5
BRANCH   1  14
ATOM     14  C   UNL     1       2.888   5.140  19.018  0.00  0.00    +0.000 A 
ATOM     15  C   UNL     1       1.705   4.365  18.985  0.00  0.00    +0.000 A 
ATOM     16  C   UNL     1       1.586   3.237  18.184  0.00  0.00    +0.000 A 
ATOM     17  C   UNL     1       2.650   2.862  17.388  0.00  0.00    +0.000 A 
ATOM     18  C   UNL     1       3.831   3.611  17.401  0.00  0.00    +0.000 A 
ATOM     19  C   UNL     1       3.991   4.772  18.198  0.00  0.00    +0.000 A 
BRANCH  19  20
ATOM     20  C   UNL     1       5.300   5.499  18.150  0.00  0.00    +0.000 A 
ATOM     21  C   UNL     1       6.354   5.158  19.027  0.00  0.00    +0.000 A 
ATOM     22  C   UNL     1       7.565   5.861  19.046  0.00  0.00    +0.000 A 
ATOM     23  C   UNL     1       7.771   6.912  18.163  0.00  0.00    +0.000 A 
ATOM     24  C   UNL     1       6.761   7.267  17.275  0.00  0.00    +0.000 A 
ATOM     25  C   UNL     1       5.538   6.583  17.286  0.00  0.00    +0.000 A 
ENDBRANCH  19  20
ENDBRANCH   1  14
TORSDOF 5
ENDMDL
MODEL 2
REMARK VINA RESULT:      -8.4      0.433      1.068
REMARK  Name = 
REMARK  5 active torsions:
REMARK  status: ('A' for Active; 'I' for Inactive)
REMARK    1  A    between atoms: C_2  and  C_3
REMARK    2  A    between atoms: C_5  and  N_6
REMARK    3  A    between atoms: N_6  and  C_7
REMARK    4  A    between atoms: C_12  and  C_13
REMARK    5  A    between atoms: C_21  and  N_22
REMARK                            x       y       z     vdW  Elec       q    Type
REMARK                         _______ _______ _______ _____ _____    ______ ____
ROOT
ATOM      1  N   UNL     1       2.703   6.134  19.968  0.00  0.00    +0.000 N 
ATOM      2  H   UNL     1       3.493   6.129  20.609  0.00  0.00    +0.000 HD
ENDROOT
BRANCH   1   5
ATOM      3  C   UNL     1       1.033   9.443  20.415  0.00  0.00    +0.000 A 
ATOM      4  C   UNL     1       1.563   8.167  20.688  0.00  0.00    +0.000 A 
ATOM      5  C   UNL     1       2.150   7.397  19.675  0.00  0.00    +0.000 A 
ATOM      6  C   UNL     1       2.167   7.909  18.366  0.00  0.00    +0.000 A 
ATOM      7  C   UNL     1       1.650   9.171  18.074  0.00  0.00    +0.000 A 
ATOM      8  C   UNL     1       1.090   9.926  19.105  0.00  0.00    +0.000 A 
BRANCH   8   9
ATOM      9  N   UNL     1       0.564  11.236  18.770  0.00  0.00    +0.000 N 
ATOM     10  O   UNL     1       1.354  12.187  18.806  0.00  0.00    +0.000 OA
ATOM     11  O   UNL     1      -0.625  11.292  18.432  0.00  0.00    +0.000 OA
ENDBRANCH   8   9
BRANCH   3  13
ATOM     12  N   UNL     1      -0.045  10.813  22.334  0.00  0.00    +0.000 NA
ATOM     13  C   UNL     1       0.434  10.179  21.487  0.00  0.00    +0.000 C 
ENDBRANCH   3  13
ENDBRANCH   1   5
BRANCH   1  14
ATOM     14  C   UNL     1       2.703   4.972  19.148  0.00  0.00    +0.000 A 
ATOM     15  C   UNL     1       1.537   4.170  19.120  0.00  0.00    +0.000 A 
ATOM     16  C   UNL     1       1.446   3.031  18.332  0.00  0.00    +0.000 A 
ATOM     17  C   UNL     1       2.521   2.670  17.544  0.00  0.00    +0.000 A 
ATOM     18  C   UNL     1       3.685   3.445  17.552  0.00  0.00    +0.000 A 
ATOM     19  C   UNL     1       3.817   4.619  18.336  0.00  0.00    +0.000 A 
BRANCH  19  20
ATOM     20  C   UNL     1       5.109   5.374  18.284  0.00  0.00    +0.000 A 
ATOM     21  C   UNL     1       5.339   6.355  17.294  0.00  0.00    +0.000 A 
ATOM     22  C   UNL     1       6.560   7.032  17.184  0.00  0.00    +0.000 A 
ATOM     23  C   UNL     1       7.583   6.769  18.085  0.00  0.00    +0.000 A 
ATOM     24  C   UNL     1       7.388   5.819  19.082  0.00  0.00    +0.000 A 
ATOM     25  C   UNL     1       6.176   5.120  19.165  0.00  0.00    +0.000 A 
ENDBRANCH  19  20
ENDBRANCH   1  14
TORSDOF 5
ENDMDL
MODEL 3
REMARK VINA RESULT:      -8.2      0.761      1.125
REMARK  Name = 
REMARK  5 active torsions:
REMARK  status: ('A' for Active; 'I' for Inactive)
REMARK    1  A    between atoms: C_2  and  C_3
REMARK    2  A    between atoms: C_5  and  N_6
REMARK    3  A    between atoms: N_6  and  C_7
REMARK    4  A    between atoms: C_12  and  C_13
REMARK    5  A    between atoms: C_21  and  N_22
REMARK                            x       y       z     vdW  Elec       q    Type
REMARK                         _______ _______ _______ _____ _____    ______ ____
ROOT
ATOM      1  N   UNL     1       2.581   6.206  20.404  0.00  0.00    +0.000 N 
ATOM      2  H   UNL     1       3.536   6.228  20.753  0.00  0.00    +0.000 HD
ENDROOT
BRANCH   1   5
ATOM      3  C   UNL     1       0.775   9.403  21.081  0.00  0.00    +0.000 A 
ATOM      4  C   UNL     1       1.368   8.139  21.266  0.00  0.00    +0.000 A 
ATOM      5  C   UNL     1       1.966   7.456  20.198  0.00  0.00    +0.000 A 
ATOM      6  C   UNL     1       1.931   8.045  18.922  0.00  0.00    +0.000 A 
ATOM      7  C   UNL     1       1.351   9.296  18.715  0.00  0.00    +0.000 A 
ATOM      8  C   UNL     1       0.782   9.964  19.801  0.00  0.00    +0.000 A 
BRANCH   8   9
ATOM      9  N   UNL     1       0.191  11.266  19.555  0.00  0.00    +0.000 N 
ATOM     10  O   UNL     1      -1.020  11.297  19.307  0.00  0.00    +0.000 OA
ATOM     11  O   UNL     1       0.937  12.248  19.655  0.00  0.00    +0.000 OA
ENDBRANCH   8   9
BRANCH   3  13
ATOM     12  N   UNL     1      -0.357  10.544  23.114  0.00  0.00    +0.000 NA
ATOM     13  C   UNL     1       0.169  10.047  22.206  0.00  0.00    +0.000 C 
ENDBRANCH   3  13
ENDBRANCH   1   5
BRANCH   1  14
ATOM     14  C   UNL     1       2.311   4.981  19.733  0.00  0.00    +0.000 A 
ATOM     15  C   UNL     1       1.152   4.256  20.100  0.00  0.00    +0.000 A 
ATOM     16  C   UNL     1       0.804   3.063  19.481  0.00  0.00    +0.000 A 
ATOM     17  C   UNL     1       1.606   2.569  18.472  0.00  0.00    +0.000 A 
ATOM     18  C   UNL     1       2.757   3.266  18.089  0.00  0.00    +0.000 A 
ATOM     19  C   UNL     1       3.144   4.491  18.689  0.00  0.00    +0.000 A 
BRANCH  19  20
ATOM     20  C   UNL     1       4.401   5.154  18.217  0.00  0.00    +0.000 A 
ATOM     21  C   UNL     1       5.619   4.984  18.910  0.00  0.00    +0.000 A 
ATOM     22  C   UNL     1       6.795   5.641  18.527  0.00  0.00    +0.000 A 
ATOM     23  C   UNL     1       6.794   6.469  17.413  0.00  0.00    +0.000 A 
ATOM     24  C   UNL     1       5.616   6.651  16.696  0.00  0.00    +0.000 A 
ATOM     25  C   UNL     1       4.435   6.018  17.106  0.00  0.00    +0.000 A 
ENDBRANCH  19  20
ENDBRANCH   1  14
TORSDOF 5
ENDMDL
MODEL 4
REMARK VINA RESULT:      -8.2      1.182      1.683
REMARK  Name = 
REMARK  5 active torsions:
REMARK  status: ('A' for Active; 'I' for Inactive)
REMARK    1  A    between atoms: C_2  and  C_3
REMARK    2  A    between atoms: C_5  and  N_6
REMARK    3  A    between atoms: N_6  and  C_7
REMARK    4  A    between atoms: C_12  and  C_13
REMARK    5  A    between atoms: C_21  and  N_22
REMARK                            x       y       z     vdW  Elec       q    Type
REMARK                         _______ _______ _______ _____ _____    ______ ____
ROOT
ATOM      1  N   UNL     1       2.997   6.017  19.787  0.00  0.00    +0.000 N 
ATOM      2  H   UNL     1       4.013   6.045  19.830  0.00  0.00    +0.000 HD
ENDROOT
BRANCH   1   5
ATOM      3  C   UNL     1       1.136   9.211  20.314  0.00  0.00    +0.000 A 
ATOM      4  C   UNL     1       1.758   7.971  20.560  0.00  0.00    +0.000 A 
ATOM      5  C   UNL     1       2.352   7.242  19.521  0.00  0.00    +0.000 A 
ATOM      6  C   UNL     1       2.284   7.756  18.215  0.00  0.00    +0.000 A 
ATOM      7  C   UNL     1       1.675   8.982  17.948  0.00  0.00    +0.000 A 
ATOM      8  C   UNL     1       1.110   9.699  19.004  0.00  0.00    +0.000 A 
BRANCH   8   9
ATOM      9  N   UNL     1       0.488  10.973  18.696  0.00  0.00    +0.000 N 
ATOM     10  O   UNL     1       1.206  11.977  18.746  0.00  0.00    +0.000 OA
ATOM     11  O   UNL     1      -0.704  10.947  18.364  0.00  0.00    +0.000 OA
ENDBRANCH   8   9
BRANCH   3  13
ATOM     12  N   UNL     1       0.069  10.442  22.329  0.00  0.00    +0.000 NA
ATOM     13  C   UNL     1       0.535   9.905  21.411  0.00  0.00    +0.000 C 
ENDBRANCH   3  13
ENDBRANCH   1   5
BRANCH   1  14
ATOM     14  C   UNL     1       2.535   4.706  19.485  0.00  0.00    +0.000 A 
ATOM     15  C   UNL     1       1.330   4.265  20.080  0.00  0.00    +0.000 A 
ATOM     16  C   UNL     1       0.798   3.008  19.823  0.00  0.00    +0.000 A 
ATOM     17  C   UNL     1       1.459   2.164  18.953  0.00  0.00    +0.000 A 
ATOM     18  C   UNL     1       2.652   2.575  18.350  0.00  0.00    +0.000 A 
ATOM     19  C   UNL     1       3.225   3.851  18.580  0.00  0.00    +0.000 A 
BRANCH  19  20
ATOM     20  C   UNL     1       4.511   4.193  17.894  0.00  0.00    +0.000 A 
ATOM     21  C   UNL     1       4.600   4.220  16.484  0.00  0.00    +0.000 A 
ATOM     22  C   UNL     1       5.805   4.475  15.817  0.00  0.00    +0.000 A 
ATOM     23  C   UNL     1       6.956   4.745  16.544  0.00  0.00    +0.000 A 
ATOM     24  C   UNL     1       6.904   4.742  17.934  0.00  0.00    +0.000 A 
ATOM     25  C   UNL     1       5.704   4.450  18.595  0.00  0.00    +0.000 A 
ENDBRANCH  19  20
ENDBRANCH   1  14
TORSDOF 5
ENDMDL
MODEL 5
REMARK VINA RESULT:      -8.2      1.492      1.773
REMARK  Name = 
REMARK  5 active torsions:
REMARK  status: ('A' for Active; 'I' for Inactive)
REMARK    1  A    between atoms: C_2  and  C_3
REMARK    2  A    between atoms: C_5  and  N_6
REMARK    3  A    between atoms: N_6  and  C_7
REMARK    4  A    between atoms: C_12  and  C_13
REMARK    5  A    between atoms: C_21  and  N_22
REMARK                            x       y       z     vdW  Elec       q    Type
REMARK                         _______ _______ _______ _____ _____    ______ ____
ROOT
ATOM      1  N   UNL     1       2.812   6.345  19.791  0.00  0.00    +0.000 N 
ATOM      2  H   UNL     1       3.788   6.426  19.513  0.00  0.00    +0.000 HD
ENDROOT
BRANCH   1   5
ATOM      3  C   UNL     1       0.865   9.195  21.214  0.00  0.00    +0.000 A 
ATOM      4  C   UNL     1       1.565   7.977  21.106  0.00  0.00    +0.000 A 
ATOM      5  C   UNL     1       2.089   7.551  19.878  0.00  0.00    +0.000 A 
ATOM      6  C   UNL     1       1.871   8.349  18.742  0.00  0.00    +0.000 A 
ATOM      7  C   UNL     1       1.183   9.559  18.826  0.00  0.00    +0.000 A 
ATOM      8  C   UNL     1       0.690   9.970  20.065  0.00  0.00    +0.000 A 
BRANCH   8   9
ATOM      9  N   UNL     1      -0.018  11.236  20.120  0.00  0.00    +0.000 N 
ATOM     10  O   UNL     1       0.647  12.242  20.391  0.00  0.00    +0.000 OA
ATOM     11  O   UNL     1      -1.225  11.214  19.849  0.00  0.00    +0.000 OA
ENDBRANCH   8   9
BRANCH   3  13
ATOM     12  N   UNL     1      -0.046   9.901  23.535  0.00  0.00    +0.000 NA
ATOM     13  C   UNL     1       0.342   9.573  22.491  0.00  0.00    +0.000 C 
ENDBRANCH   3  13
ENDBRANCH   1   5
BRANCH   1  14
ATOM     14  C   UNL     1       2.308   5.045  19.511  0.00  0.00    +0.000 A 
ATOM     15  C   UNL     1       1.327   4.505  20.375  0.00  0.00    +0.000 A 
ATOM     16  C   UNL     1       0.767   3.252  20.161  0.00  0.00    +0.000 A 
ATOM     17  C   UNL     1       1.172   2.511  19.069  0.00  0.00    +0.000 A 
ATOM     18  C   UNL     1       2.140   3.022  18.198  0.00  0.00    +0.000 A 
ATOM     19  C   UNL     1       2.731   4.298  18.375  0.00  0.00    +0.000 A 
BRANCH  19  20
ATOM     20  C   UNL     1       3.767   4.751  17.393  0.00  0.00    +0.000 A 
ATOM     21  C   UNL     1       4.509   3.817  16.636  0.00  0.00    +0.000 A 
ATOM     22  C   UNL     1       5.526   4.209  15.757  0.00  0.00    +0.000 A 
ATOM     23  C   UNL     1       5.811   5.556  15.583  0.00  0.00    +0.000 A 
ATOM     24  C   UNL     1       5.092   6.506  16.301  0.00  0.00    +0.000 A 
ATOM     25  C   UNL     1       4.100   6.105  17.206  0.00  0.00    +0.000 A 
ENDBRANCH  19  20
ENDBRANCH   1  14
TORSDOF 5
ENDMDL
MODEL 6
REMARK VINA RESULT:      -7.9      3.862      6.935
REMARK  Name = 
REMARK  5 active torsions:
REMARK  status: ('A' for Active; 'I' for Inactive)
REMARK    1  A    between atoms: C_2  and  C_3
REMARK    2  A    between atoms: C_5  and  N_6
REMARK    3  A    between atoms: N_6  and  C_7
REMARK    4  A    between atoms: C_12  and  C_13
REMARK    5  A    between atoms: C_21  and  N_22
REMARK                            x       y       z     vdW  Elec       q    Type
REMARK                         _______ _______ _______ _____ _____    ______ ____
ROOT
ATOM      1  N   UNL     1       2.311   6.714  17.974  0.00  0.00    +0.000 N 
ATOM      2  H   UNL     1       1.789   7.014  17.154  0.00  0.00    +0.000 HD
ENDROOT
BRANCH   1   5
ATOM      3  C   UNL     1       6.005   6.536  17.463  0.00  0.00    +0.000 A 
ATOM      4  C   UNL     1       4.709   7.045  17.673  0.00  0.00    +0.000 A 
ATOM      5  C   UNL     1       3.598   6.193  17.735  0.00  0.00    +0.000 A 
ATOM      6  C   UNL     1       3.798   4.815  17.546  0.00  0.00    +0.000 A 
ATOM      7  C   UNL     1       5.072   4.288  17.340  0.00  0.00    +0.000 A 
ATOM      8  C   UNL     1       6.164   5.156  17.304  0.00  0.00    +0.000 A 
BRANCH   8   9
ATOM      9  N   UNL     1       7.478   4.577  17.091  0.00  0.00    +0.000 N 
ATOM     10  O   UNL     1       7.870   4.485  15.922  0.00  0.00    +0.000 OA
ATOM     11  O   UNL     1       8.120   4.261  18.100  0.00  0.00    +0.000 OA
ENDBRANCH   8   9
BRANCH   3  13
ATOM     12  N   UNL     1       7.987   8.198  17.300  0.00  0.00    +0.000 NA
ATOM     13  C   UNL     1       7.100   7.455  17.397  0.00  0.00    +0.000 C 
ENDBRANCH   3  13
ENDBRANCH   1   5
BRANCH   1  14
ATOM     14  C   UNL     1       1.840   7.368  19.146  0.00  0.00    +0.000 A 
ATOM     15  C   UNL     1       1.686   8.774  19.114  0.00  0.00    +0.000 A 
ATOM     16  C   UNL     1       1.212   9.488  20.206  0.00  0.00    +0.000 A 
ATOM     17  C   UNL     1       0.873   8.809  21.359  0.00  0.00    +0.000 A 
ATOM     18  C   UNL     1       1.014   7.418  21.417  0.00  0.00    +0.000 A 
ATOM     19  C   UNL     1       1.487   6.651  20.323  0.00  0.00    +0.000 A 
BRANCH  19  20
ATOM     20  C   UNL     1       1.613   5.168  20.489  0.00  0.00    +0.000 A 
ATOM     21  C   UNL     1       0.783   4.281  19.769  0.00  0.00    +0.000 A 
ATOM     22  C   UNL     1       0.837   2.894  19.950  0.00  0.00    +0.000 A 
ATOM     23  C   UNL     1       1.751   2.346  20.840  0.00  0.00    +0.000 A 
ATOM     24  C   UNL     1       2.595   3.187  21.558  0.00  0.00    +0.000 A 
ATOM     25  C   UNL     1       2.511   4.576  21.397  0.00  0.00    +0.000 A 
ENDBRANCH  19  20
ENDBRANCH   1  14
TORSDOF 5
ENDMDL
MODEL 7
REMARK VINA RESULT:      -7.9      1.266      1.583
REMARK  Name = 
REMARK  5 active torsions:
REMARK  status: ('A' for Active; 'I' for Inactive)
REMARK    1  A    between atoms: C_2  and  C_3
REMARK    2  A    between atoms: C_5  and  N_6
REMARK    3  A    between atoms: N_6  and  C_7
REMARK    4  A    between atoms: C_12  and  C_13
REMARK    5  A    between atoms: C_21  and  N_22
REMARK                            x       y       z     vdW  Elec       q    Type
REMARK                         _______ _______ _______ _____ _____    ______ ____
ROOT
ATOM      1  N   UNL     1       3.019   6.446  19.095  0.00  0.00    +0.000 N 
ATOM      2  H   UNL     1       3.767   6.517  18.410  0.00  0.00    +0.000 HD
ENDROOT
BRANCH   1   5
ATOM      3  C   UNL     1       1.043   9.146  20.751  0.00  0.00    +0.000 A 
ATOM      4  C   UNL     1       1.810   7.981  20.555  0.00  0.00    +0.000 A 
ATOM      5  C   UNL     1       2.227   7.597  19.273  0.00  0.00    +0.000 A 
ATOM      6  C   UNL     1       1.833   8.382  18.176  0.00  0.00    +0.000 A 
ATOM      7  C   UNL     1       1.076   9.541  18.346  0.00  0.00    +0.000 A 
ATOM      8  C   UNL     1       0.692   9.912  19.636  0.00  0.00    +0.000 A 
BRANCH   8   9
ATOM      9  N   UNL     1      -0.092  11.125  19.781  0.00  0.00    +0.000 N 
ATOM     10  O   UNL     1       0.528  12.174  19.987  0.00  0.00    +0.000 OA
ATOM     11  O   UNL     1      -1.317  11.019  19.644  0.00  0.00    +0.000 OA
ENDBRANCH   8   9
BRANCH   3  13
ATOM     12  N   UNL     1       0.344   9.743  23.174  0.00  0.00    +0.000 NA
ATOM     13  C   UNL     1       0.636   9.482  22.081  0.00  0.00    +0.000 C 
ENDBRANCH   3  13
ENDBRANCH   1   5
BRANCH   1  14
ATOM     14  C   UNL     1       2.642   5.089  19.299  0.00  0.00    +0.000 A 
ATOM     15  C   UNL     1       1.485   4.823  20.070  0.00  0.00    +0.000 A 
ATOM     16  C   UNL     1       1.036   3.529  20.299  0.00  0.00    +0.000 A 
ATOM     17  C   UNL     1       1.731   2.468  19.754  0.00  0.00    +0.000 A 
ATOM     18  C   UNL     1       2.877   2.704  18.987  0.00  0.00    +0.000 A 
ATOM     19  C   UNL     1       3.365   4.008  18.723  0.00  0.00    +0.000 A 
BRANCH  19  20
ATOM     20  C   UNL     1       4.608   4.154  17.899  0.00  0.00    +0.000 A 
ATOM     21  C   UNL     1       5.848   4.462  18.502  0.00  0.00    +0.000 A 
ATOM     22  C   UNL     1       7.012   4.666  17.751  0.00  0.00    +0.000 A 
ATOM     23  C   UNL     1       6.978   4.535  16.370  0.00  0.00    +0.000 A 
ATOM     24  C   UNL     1       5.778   4.219  15.742  0.00  0.00    +0.000 A 
ATOM     25  C   UNL     1       4.609   4.052  16.497  0.00  0.00    +0.000 A 
ENDBRANCH  19  20
ENDBRANCH   1  14
TORSDOF 5
ENDMDL
MODEL 8
REMARK VINA RESULT:      -7.9      3.876      6.882
REMARK  Name = 
REMARK  5 active torsions:
REMARK  status: ('A' for Active; 'I' for Inactive)
REMARK    1  A    between atoms: C_2  and  C_3
REMARK    2  A    between atoms: C_5  and  N_6
REMARK    3  A    between atoms: N_6  and  C_7
REMARK    4  A    between atoms: C_12  and  C_13
REMARK    5  A    between atoms: C_21  and  N_22
REMARK                            x       y       z     vdW  Elec       q    Type
REMARK                         _______ _______ _______ _____ _____    ______ ____
ROOT
ATOM      1  N   UNL     1       2.314   6.618  17.981  0.00  0.00    +0.000 N 
ATOM      2  H   UNL     1       1.776   6.883  17.159  0.00  0.00    +0.000 HD
ENDROOT
BRANCH   1   5
ATOM      3  C   UNL     1       6.010   6.506  17.468  0.00  0.00    +0.000 A 
ATOM      4  C   UNL     1       4.705   6.992  17.678  0.00  0.00    +0.000 A 
ATOM      5  C   UNL     1       3.610   6.120  17.741  0.00  0.00    +0.000 A 
ATOM      6  C   UNL     1       3.834   4.746  17.552  0.00  0.00    +0.000 A 
ATOM      7  C   UNL     1       5.118   4.241  17.345  0.00  0.00    +0.000 A 
ATOM      8  C   UNL     1       6.194   5.129  17.308  0.00  0.00    +0.000 A 
BRANCH   8   9
ATOM      9  N   UNL     1       7.517   4.574  17.095  0.00  0.00    +0.000 N 
ATOM     10  O   UNL     1       8.156   4.237  18.099  0.00  0.00    +0.000 OA
ATOM     11  O   UNL     1       7.885   4.440  15.921  0.00  0.00    +0.000 OA
ENDBRANCH   8   9
BRANCH   3  13
ATOM     12  N   UNL     1       7.945   8.222  17.310  0.00  0.00    +0.000 NA
ATOM     13  C   UNL     1       7.088   7.444  17.400  0.00  0.00    +0.000 C 
ENDBRANCH   3  13
ENDBRANCH   1   5
BRANCH   1  14
ATOM     14  C   UNL     1       1.841   7.295  19.139  0.00  0.00    +0.000 A 
ATOM     15  C   UNL     1       1.717   8.703  19.090  0.00  0.00    +0.000 A 
ATOM     16  C   UNL     1       1.244   9.439  20.168  0.00  0.00    +0.000 A 
ATOM     17  C   UNL     1       0.875   8.779  21.323  0.00  0.00    +0.000 A 
ATOM     18  C   UNL     1       0.987   7.386  21.399  0.00  0.00    +0.000 A 
ATOM     19  C   UNL     1       1.458   6.598  20.319  0.00  0.00    +0.000 A 
BRANCH  19  20
ATOM     20  C   UNL     1       1.552   5.114  20.503  0.00  0.00    +0.000 A 
ATOM     21  C   UNL     1       2.481   4.550  21.405  0.00  0.00    +0.000 A 
ATOM     22  C   UNL     1       2.633   3.166  21.551  0.00  0.00    +0.000 A 
ATOM     23  C   UNL     1       1.833   2.299  20.819  0.00  0.00    +0.000 A 
ATOM     24  C   UNL     1       0.896   2.818  19.931  0.00  0.00    +0.000 A 
ATOM     25  C   UNL     1       0.774   4.204  19.764  0.00  0.00    +0.000 A 
ENDBRANCH  19  20
ENDBRANCH   1  14
TORSDOF 5
ENDMDL
MODEL 9
REMARK VINA RESULT:      -7.8      1.488      3.527
REMARK  Name = 
REMARK  5 active torsions:
REMARK  status: ('A' for Active; 'I' for Inactive)
REMARK    1  A    between atoms: C_2  and  C_3
REMARK    2  A    between atoms: C_5  and  N_6
REMARK    3  A    between atoms: N_6  and  C_7
REMARK    4  A    between atoms: C_12  and  C_13
REMARK    5  A    between atoms: C_21  and  N_22
REMARK                            x       y       z     vdW  Elec       q    Type
REMARK                         _______ _______ _______ _____ _____    ______ ____
ROOT
ATOM      1  N   UNL     1       3.682   6.814  19.010  0.00  0.00    +0.000 N 
ATOM      2  H   UNL     1       4.492   7.063  19.574  0.00  0.00    +0.000 HD
ENDROOT
BRANCH   1   5
ATOM      3  C   UNL     1       0.806   8.862  20.223  0.00  0.00    +0.000 A 
ATOM      4  C   UNL     1       1.860   7.929  20.188  0.00  0.00    +0.000 A 
ATOM      5  C   UNL     1       2.612   7.730  19.022  0.00  0.00    +0.000 A 
ATOM      6  C   UNL     1       2.270   8.459  17.870  0.00  0.00    +0.000 A 
ATOM      7  C   UNL     1       1.232   9.390  17.882  0.00  0.00    +0.000 A 
ATOM      8  C   UNL     1       0.512   9.584  19.063  0.00  0.00    +0.000 A 
BRANCH   8   9
ATOM      9  N   UNL     1      -0.559  10.562  19.045  0.00  0.00    +0.000 N 
ATOM     10  O   UNL     1      -0.272  11.718  19.378  0.00  0.00    +0.000 OA
ATOM     11  O   UNL     1      -1.667  10.173  18.655  0.00  0.00    +0.000 OA
ENDBRANCH   8   9
BRANCH   3  13
ATOM     12  N   UNL     1      -0.511   9.106  22.442  0.00  0.00    +0.000 NA
ATOM     13  C   UNL     1       0.065   9.013  21.438  0.00  0.00    +0.000 C 
ENDBRANCH   3  13
ENDBRANCH   1   5
BRANCH   1  14
ATOM     14  C   UNL     1       4.042   5.907  17.975  0.00  0.00    +0.000 A 
ATOM     15  C   UNL     1       4.805   6.396  16.889  0.00  0.00    +0.000 A 
ATOM     16  C   UNL     1       5.216   5.574  15.848  0.00  0.00    +0.000 A 
ATOM     17  C   UNL     1       4.878   4.236  15.874  0.00  0.00    +0.000 A 
ATOM     18  C   UNL     1       4.124   3.726  16.936  0.00  0.00    +0.000 A 
ATOM     19  C   UNL     1       3.691   4.529  18.021  0.00  0.00    +0.000 A 
BRANCH  19  20
ATOM     20  C   UNL     1       2.879   3.890  19.106  0.00  0.00    +0.000 A 
ATOM     21  C   UNL     1       1.471   4.007  19.124  0.00  0.00    +0.000 A 
ATOM     22  C   UNL     1       0.692   3.473  20.158  0.00  0.00    +0.000 A 
ATOM     23  C   UNL     1       1.298   2.775  21.194  0.00  0.00    +0.000 A 
ATOM     24  C   UNL     1       2.681   2.628  21.202  0.00  0.00    +0.000 A 
ATOM     25  C   UNL     1       3.457   3.195  20.183  0.00  0.00    +0.000 A 
ENDBRANCH  19  20
ENDBRANCH   1  14
TORSDOF 5
ENDMDL
