MODEL 1
REMARK VINA RESULT:      -9.4      0.000      0.000
REMARK  Name = 
REMARK  5 active torsions:
REMARK  status: ('A' for Active; 'I' for Inactive)
REMARK    1  A    between atoms: C_2  and  O_3
REMARK    2  A    between atoms: C_2  and  C_4
REMARK    3  A    between atoms: C_11  and  N_12
REMARK    4  A    between atoms: N_12  and  C_13
REMARK    5  A    between atoms: C_15  and  C_16
REMARK                            x       y       z     vdW  Elec       q    Type
REMARK                         _______ _______ _______ _____ _____    ______ ____
ROOT
ATOM      1  C   UNL     1       2.294   7.564  19.472  0.00  0.00    +0.000 A 
ATOM      2  N   UNL     1       1.530   8.078  20.488  0.00  0.00    +0.000 NA
ATOM      3  C   UNL     1       0.838   9.245  20.337  0.00  0.00    +0.000 A 
ATOM      4  N   UNL     1       0.887   9.897  19.149  0.00  0.00    +0.000 NA
ATOM      5  C   UNL     1       1.624   9.431  18.110  0.00  0.00    +0.000 A 
ATOM      6  C   UNL     1       2.358   8.253  18.254  0.00  0.00    +0.000 A 
ATOM      7  F   UNL     1       3.081   7.786  17.209  0.00  0.00    +0.000 F 
ENDROOT
BRANCH   3   8
ATOM      8  C   UNL     1       0.055   9.831  21.449  0.00  0.00    +0.000 A 
ATOM      9  C   UNL     1      -0.244   9.219  22.666  0.00  0.00    +0.000 A 
ATOM     10  N   UNL     1      -0.970  10.054  23.447  0.00  0.00    +0.000 N 
ATOM     11  C   UNL     1      -1.136  11.180  22.735  0.00  0.00    +0.000 A 
ATOM     12  N   UNL     1      -1.812  12.287  23.136  0.00  0.00    +0.000 NA
ATOM     13  C   UNL     1      -1.898  13.357  22.292  0.00  0.00    +0.000 A 
ATOM     14  C   UNL     1      -1.291  13.314  21.018  0.00  0.00    +0.000 A 
ATOM     15  F   UNL     1      -1.383  14.379  20.183  0.00  0.00    +0.000 F 
ATOM     16  C   UNL     1      -0.592  12.164  20.615  0.00  0.00    +0.000 A 
ATOM     17  C   UNL     1      -0.530  11.093  21.512  0.00  0.00    +0.000 A 
ATOM     18  H   UNL     1      -1.327   9.863  24.409  0.00  0.00    +0.000 HD
ENDBRANCH   3   8
BRANCH   1  19
ATOM     19  N   UNL     1       3.006   6.331  19.622  0.00  0.00    +0.000 N 
ATOM     20  H   UNL     1       4.015   6.379  19.826  0.00  0.00    +0.000 HD
BRANCH  19  28
ATOM     21  C   UNL     1       2.837   3.877  20.263  0.00  0.00    +0.000 C 
ATOM     22  C   UNL     1       3.619   2.762  19.516  0.00  0.00    +0.000 C 
ATOM     23  C   UNL     1       2.799   2.199  18.323  0.00  0.00    +0.000 C 
ATOM     24  C   UNL     1       2.369   3.344  17.374  0.00  0.00    +0.000 C 
ATOM     25  C   UNL     1       2.985   4.679  17.830  0.00  0.00    +0.000 C 
ATOM     26  C   UNL     1       4.528   4.498  17.905  0.00  0.00    +0.000 C 
ATOM     27  C   UNL     1       4.897   3.421  18.958  0.00  0.00    +0.000 C 
ATOM     28  C   UNL     1       2.432   5.039  19.248  0.00  0.00    +0.000 C 
BRANCH  21  30
ATOM     29  O   UNL     1       1.883   2.803  22.160  0.00  0.00    +0.000 OA
ATOM     30  C   UNL     1       1.696   3.255  21.045  0.00  0.00    +0.000 C 
BRANCH  30  31
ATOM     31  O   UNL     1       0.432   3.282  20.563  0.00  0.00    +0.000 OA
ATOM     32  H   UNL     1      -0.231   2.623  20.811  0.00  0.00    +0.000 HD
ENDBRANCH  30  31
ENDBRANCH  21  30
ENDBRANCH  19  28
ENDBRANCH   1  19
TORSDOF 5
ENDMDL
MODEL 2
REMARK VINA RESULT:      -9.3      1.229      1.608
REMARK  Name = 
REMARK  5 active torsions:
REMARK  status: ('A' for Active; 'I' for Inactive)
REMARK    1  A    between atoms: C_2  and  O_3
REMARK    2  A    between atoms: C_2  and  C_4
REMARK    3  A    between atoms: C_11  and  N_12
REMARK    4  A    between atoms: N_12  and  C_13
REMARK    5  A    between atoms: C_15  and  C_16
REMARK                            x       y       z     vdW  Elec       q    Type
REMARK                         _______ _______ _______ _____ _____    ______ ____
ROOT
ATOM      1  C   UNL     1       2.701   6.937  19.344  0.00  0.00    +0.000 A 
ATOM      2  N   UNL     1       1.916   7.458  20.340  0.00  0.00    +0.000 NA
ATOM      3  C   UNL     1       1.251   8.639  20.177  0.00  0.00    +0.000 A 
ATOM      4  N   UNL     1       1.350   9.299  18.996  0.00  0.00    +0.000 NA
ATOM      5  C   UNL     1       2.109   8.827  17.977  0.00  0.00    +0.000 A 
ATOM      6  C   UNL     1       2.817   7.634  18.134  0.00  0.00    +0.000 A 
ATOM      7  F   UNL     1       3.563   7.161  17.108  0.00  0.00    +0.000 F 
ENDROOT
BRANCH   3   8
ATOM      8  C   UNL     1       0.445   9.231  21.269  0.00  0.00    +0.000 A 
ATOM      9  C   UNL     1      -0.216   8.538  22.283  0.00  0.00    +0.000 A 
ATOM     10  N   UNL     1      -0.844   9.404  23.113  0.00  0.00    +0.000 N 
ATOM     11  C   UNL     1      -0.592  10.632  22.631  0.00  0.00    +0.000 A 
ATOM     12  N   UNL     1      -1.036  11.803  23.156  0.00  0.00    +0.000 NA
ATOM     13  C   UNL     1      -0.695  12.977  22.546  0.00  0.00    +0.000 A 
ATOM     14  C   UNL     1       0.107  12.973  21.385  0.00  0.00    +0.000 A 
ATOM     15  F   UNL     1       0.438  14.143  20.782  0.00  0.00    +0.000 F 
ATOM     16  C   UNL     1       0.562  11.755  20.853  0.00  0.00    +0.000 A 
ATOM     17  C   UNL     1       0.190  10.579  21.511  0.00  0.00    +0.000 A 
ATOM     18  H   UNL     1      -1.409   9.167  23.957  0.00  0.00    +0.000 HD
ENDBRANCH   3   8
BRANCH   1  19
ATOM     19  N   UNL     1       3.386   5.690  19.506  0.00  0.00    +0.000 N 
ATOM     20  H   UNL     1       4.367   5.635  19.195  0.00  0.00    +0.000 HD
BRANCH  19  28
ATOM     21  C   UNL     1       3.617   3.164  19.655  0.00  0.00    +0.000 C 
ATOM     22  C   UNL     1       2.994   2.203  18.604  0.00  0.00    +0.000 C 
ATOM     23  C   UNL     1       1.547   1.795  18.999  0.00  0.00    +0.000 C 
ATOM     24  C   UNL     1       0.674   3.053  19.229  0.00  0.00    +0.000 C 
ATOM     25  C   UNL     1       1.466   4.327  18.879  0.00  0.00    +0.000 C 
ATOM     26  C   UNL     1       1.968   4.194  17.413  0.00  0.00    +0.000 C 
ATOM     27  C   UNL     1       2.931   2.986  17.277  0.00  0.00    +0.000 C 
ATOM     28  C   UNL     1       2.691   4.448  19.843  0.00  0.00    +0.000 C 
BRANCH  21  30
ATOM     29  O   UNL     1       5.018   1.846  21.056  0.00  0.00    +0.000 OA
ATOM     30  C   UNL     1       3.937   2.388  20.919  0.00  0.00    +0.000 C 
BRANCH  30  31
ATOM     31  O   UNL     1       3.068   2.370  21.957  0.00  0.00    +0.000 OA
ATOM     32  H   UNL     1       2.109   2.366  21.829  0.00  0.00    +0.000 HD
ENDBRANCH  30  31
ENDBRANCH  21  30
ENDBRANCH  19  28
ENDBRANCH   1  19
TORSDOF 5
ENDMDL
MODEL 3
REMARK VINA RESULT:      -9.1      1.166      1.581
REMARK  Name = 
REMARK  5 active torsions:
REMARK  status: ('A' for Active; 'I' for Inactive)
REMARK    1  A    between atoms: C_2  and  O_3
REMARK    2  A    between atoms: C_2  and  C_4
REMARK    3  A    between atoms: C_11  and  N_12
REMARK    4  A    between atoms: N_12  and  C_13
REMARK    5  A    between atoms: C_15  and  C_16
REMARK                            x       y       z     vdW  Elec       q    Type
REMARK                         _______ _______ _______ _____ _____    ______ ____
ROOT
ATOM      1  C   UNL     1       2.629   7.022  19.390  0.00  0.00    +0.000 A 
ATOM      2  N   UNL     1       1.885   7.542  20.417  0.00  0.00    +0.000 NA
ATOM      3  C   UNL     1       1.221   8.727  20.285  0.00  0.00    +0.000 A 
ATOM      4  N   UNL     1       1.280   9.393  19.105  0.00  0.00    +0.000 NA
ATOM      5  C   UNL     1       1.997   8.922  18.056  0.00  0.00    +0.000 A 
ATOM      6  C   UNL     1       2.703   7.725  18.179  0.00  0.00    +0.000 A 
ATOM      7  F   UNL     1       3.408   7.253  17.124  0.00  0.00    +0.000 F 
ENDROOT
BRANCH   3   8
ATOM      8  C   UNL     1       0.461   9.318  21.410  0.00  0.00    +0.000 A 
ATOM      9  C   UNL     1       0.494   8.906  22.742  0.00  0.00    +0.000 A 
ATOM     10  N   UNL     1      -0.321   9.682  23.495  0.00  0.00    +0.000 N 
ATOM     11  C   UNL     1      -0.871  10.573  22.654  0.00  0.00    +0.000 A 
ATOM     12  N   UNL     1      -1.759  11.544  22.987  0.00  0.00    +0.000 NA
ATOM     13  C   UNL     1      -2.233  12.375  22.012  0.00  0.00    +0.000 A 
ATOM     14  C   UNL     1      -1.806  12.226  20.674  0.00  0.00    +0.000 A 
ATOM     15  F   UNL     1      -2.284  13.052  19.711  0.00  0.00    +0.000 F 
ATOM     16  C   UNL     1      -0.884  11.219  20.343  0.00  0.00    +0.000 A 
ATOM     17  C   UNL     1      -0.425  10.392  21.374  0.00  0.00    +0.000 A 
ATOM     18  H   UNL     1      -0.488   9.606  24.522  0.00  0.00    +0.000 HD
ENDBRANCH   3   8
BRANCH   1  19
ATOM     19  N   UNL     1       3.312   5.770  19.520  0.00  0.00    +0.000 N 
ATOM     20  H   UNL     1       4.286   5.715  19.186  0.00  0.00    +0.000 HD
BRANCH  19  28
ATOM     21  C   UNL     1       3.559   3.247  19.704  0.00  0.00    +0.000 C 
ATOM     22  C   UNL     1       2.969   2.269  18.652  0.00  0.00    +0.000 C 
ATOM     23  C   UNL     1       1.517   1.854  19.019  0.00  0.00    +0.000 C 
ATOM     24  C   UNL     1       0.629   3.107  19.214  0.00  0.00    +0.000 C 
ATOM     25  C   UNL     1       1.418   4.383  18.866  0.00  0.00    +0.000 C 
ATOM     26  C   UNL     1       1.955   4.237  17.413  0.00  0.00    +0.000 C 
ATOM     27  C   UNL     1       2.930   3.036  17.314  0.00  0.00    +0.000 C 
ATOM     28  C   UNL     1       2.619   4.526  19.856  0.00  0.00    +0.000 C 
BRANCH  21  30
ATOM     29  O   UNL     1       3.042   2.458  21.889  0.00  0.00    +0.000 OA
ATOM     30  C   UNL     1       3.857   2.490  20.985  0.00  0.00    +0.000 C 
BRANCH  30  31
ATOM     31  O   UNL     1       4.985   1.752  21.105  0.00  0.00    +0.000 OA
ATOM     32  H   UNL     1       5.067   0.866  20.726  0.00  0.00    +0.000 HD
ENDBRANCH  30  31
ENDBRANCH  21  30
ENDBRANCH  19  28
ENDBRANCH   1  19
TORSDOF 5
ENDMDL
MODEL 4
REMARK VINA RESULT:      -9.0      3.396      8.577
REMARK  Name = 
REMARK  5 active torsions:
REMARK  status: ('A' for Active; 'I' for Inactive)
REMARK    1  A    between atoms: C_2  and  O_3
REMARK    2  A    between atoms: C_2  and  C_4
REMARK    3  A    between atoms: C_11  and  N_12
REMARK    4  A    between atoms: N_12  and  C_13
REMARK    5  A    between atoms: C_15  and  C_16
REMARK                            x       y       z     vdW  Elec       q    Type
REMARK                         _______ _______ _______ _____ _____    ______ ____
ROOT
ATOM      1  C   UNL     1       2.173   6.883  19.502  0.00  0.00    +0.000 A 
ATOM      2  N   UNL     1       3.387   6.632  18.918  0.00  0.00    +0.000 NA
ATOM      3  C   UNL     1       4.121   5.530  19.248  0.00  0.00    +0.000 A 
ATOM      4  N   UNL     1       3.627   4.652  20.157  0.00  0.00    +0.000 NA
ATOM      5  C   UNL     1       2.431   4.849  20.762  0.00  0.00    +0.000 A 
ATOM      6  C   UNL     1       1.677   5.984  20.456  0.00  0.00    +0.000 A 
ATOM      7  F   UNL     1       0.477   6.170  21.054  0.00  0.00    +0.000 F 
ENDROOT
BRANCH   3   8
ATOM      8  C   UNL     1       5.457   5.283  18.658  0.00  0.00    +0.000 A 
ATOM      9  C   UNL     1       6.679   5.318  19.328  0.00  0.00    +0.000 A 
ATOM     10  N   UNL     1       7.691   5.034  18.476  0.00  0.00    +0.000 N 
ATOM     11  C   UNL     1       7.123   4.826  17.277  0.00  0.00    +0.000 A 
ATOM     12  N   UNL     1       7.774   4.515  16.127  0.00  0.00    +0.000 NA
ATOM     13  C   UNL     1       7.051   4.337  14.981  0.00  0.00    +0.000 A 
ATOM     14  C   UNL     1       5.646   4.475  14.992  0.00  0.00    +0.000 A 
ATOM     15  F   UNL     1       4.936   4.300  13.850  0.00  0.00    +0.000 F 
ATOM     16  C   UNL     1       4.984   4.793  16.190  0.00  0.00    +0.000 A 
ATOM     17  C   UNL     1       5.764   4.966  17.337  0.00  0.00    +0.000 A 
ATOM     18  H   UNL     1       8.709   4.983  18.702  0.00  0.00    +0.000 HD
ENDBRANCH   3   8
BRANCH   1  19
ATOM     19  N   UNL     1       1.393   8.030  19.144  0.00  0.00    +0.000 N 
ATOM     20  H   UNL     1       0.889   8.008  18.245  0.00  0.00    +0.000 HD
BRANCH  19  28
ATOM     21  C   UNL     1       0.403   9.432  21.018  0.00  0.00    +0.000 C 
ATOM     22  C   UNL     1      -0.523  10.651  20.752  0.00  0.00    +0.000 C 
ATOM     23  C   UNL     1       0.297  11.962  20.608  0.00  0.00    +0.000 C 
ATOM     24  C   UNL     1       1.382  11.804  19.515  0.00  0.00    +0.000 C 
ATOM     25  C   UNL     1       1.243  10.440  18.814  0.00  0.00    +0.000 C 
ATOM     26  C   UNL     1      -0.205  10.329  18.256  0.00  0.00    +0.000 C 
ATOM     27  C   UNL     1      -1.236  10.375  19.413  0.00  0.00    +0.000 C 
ATOM     28  C   UNL     1       1.489   9.302  19.859  0.00  0.00    +0.000 C 
BRANCH  21  30
ATOM     29  O   UNL     1       0.218   9.792  23.364  0.00  0.00    +0.000 OA
ATOM     30  C   UNL     1       0.950   9.514  22.432  0.00  0.00    +0.000 C 
BRANCH  30  31
ATOM     31  O   UNL     1       2.235   9.181  22.695  0.00  0.00    +0.000 OA
ATOM     32  H   UNL     1       2.939   9.277  22.039  0.00  0.00    +0.000 HD
ENDBRANCH  30  31
ENDBRANCH  21  30
ENDBRANCH  19  28
ENDBRANCH   1  19
TORSDOF 5
ENDMDL
MODEL 5
REMARK VINA RESULT:      -8.9      3.478      8.689
REMARK  Name = 
REMARK  5 active torsions:
REMARK  status: ('A' for Active; 'I' for Inactive)
REMARK    1  A    between atoms: C_2  and  O_3
REMARK    2  A    between atoms: C_2  and  C_4
REMARK    3  A    between atoms: C_11  and  N_12
REMARK    4  A    between atoms: N_12  and  C_13
REMARK    5  A    between atoms: C_15  and  C_16
REMARK                            x       y       z     vdW  Elec       q    Type
REMARK                         _______ _______ _______ _____ _____    ______ ____
ROOT
ATOM      1  C   UNL     1       2.350   6.826  19.134  0.00  0.00    +0.000 A 
ATOM      2  N   UNL     1       3.449   6.880  18.317  0.00  0.00    +0.000 NA
ATOM      3  C   UNL     1       4.421   5.923  18.368  0.00  0.00    +0.000 A 
ATOM      4  N   UNL     1       4.285   4.885  19.230  0.00  0.00    +0.000 NA
ATOM      5  C   UNL     1       3.216   4.780  20.057  0.00  0.00    +0.000 A 
ATOM      6  C   UNL     1       2.224   5.762  20.037  0.00  0.00    +0.000 A 
ATOM      7  F   UNL     1       1.153   5.646  20.856  0.00  0.00    +0.000 F 
ENDROOT
BRANCH   3   8
ATOM      8  C   UNL     1       5.636   6.007  17.526  0.00  0.00    +0.000 A 
ATOM      9  C   UNL     1       6.824   6.665  17.844  0.00  0.00    +0.000 A 
ATOM     10  N   UNL     1       7.723   6.524  16.842  0.00  0.00    +0.000 N 
ATOM     11  C   UNL     1       7.115   5.790  15.895  0.00  0.00    +0.000 A 
ATOM     12  N   UNL     1       7.655   5.412  14.708  0.00  0.00    +0.000 NA
ATOM     13  C   UNL     1       6.905   4.666  13.844  0.00  0.00    +0.000 A 
ATOM     14  C   UNL     1       5.585   4.293  14.180  0.00  0.00    +0.000 A 
ATOM     15  F   UNL     1       4.845   3.556  13.315  0.00  0.00    +0.000 F 
ATOM     16  C   UNL     1       5.039   4.689  15.413  0.00  0.00    +0.000 A 
ATOM     17  C   UNL     1       5.844   5.451  16.266  0.00  0.00    +0.000 A 
ATOM     18  H   UNL     1       8.694   6.905  16.810  0.00  0.00    +0.000 HD
ENDBRANCH   3   8
BRANCH   1  19
ATOM     19  N   UNL     1       1.320   7.820  19.068  0.00  0.00    +0.000 N 
ATOM     20  H   UNL     1       0.603   7.722  18.334  0.00  0.00    +0.000 HD
BRANCH  19  28
ATOM     21  C   UNL     1       0.195   9.231  20.857  0.00  0.00    +0.000 C 
ATOM     22  C   UNL     1      -0.653  10.489  20.520  0.00  0.00    +0.000 C 
ATOM     23  C   UNL     1       0.226  11.769  20.486  0.00  0.00    +0.000 C 
ATOM     24  C   UNL     1       1.411  11.586  19.506  0.00  0.00    +0.000 C 
ATOM     25  C   UNL     1       1.295  10.238  18.770  0.00  0.00    +0.000 C 
ATOM     26  C   UNL     1      -0.091  10.192  18.064  0.00  0.00    +0.000 C 
ATOM     27  C   UNL     1      -1.234  10.261  19.110  0.00  0.00    +0.000 C 
ATOM     28  C   UNL     1       1.389   9.076  19.813  0.00  0.00    +0.000 C 
BRANCH  21  30
ATOM     29  O   UNL     1       1.764   9.403  22.638  0.00  0.00    +0.000 OA
ATOM     30  C   UNL     1       0.596   9.271  22.320  0.00  0.00    +0.000 C 
BRANCH  30  31
ATOM     31  O   UNL     1      -0.343   9.263  23.294  0.00  0.00    +0.000 OA
ATOM     32  H   UNL     1      -0.161   8.934  24.186  0.00  0.00    +0.000 HD
ENDBRANCH  30  31
ENDBRANCH  21  30
ENDBRANCH  19  28
ENDBRANCH   1  19
TORSDOF 5
ENDMDL
MODEL 6
REMARK VINA RESULT:      -8.8      1.249      1.325
REMARK  Name = 
REMARK  5 active torsions:
REMARK  status: ('A' for Active; 'I' for Inactive)
REMARK    1  A    between atoms: C_2  and  O_3
REMARK    2  A    between atoms: C_2  and  C_4
REMARK    3  A    between atoms: C_11  and  N_12
REMARK    4  A    between atoms: N_12  and  C_13
REMARK    5  A    between atoms: C_15  and  C_16
REMARK                            x       y       z     vdW  Elec       q    Type
REMARK                         _______ _______ _______ _____ _____    ______ ____
ROOT
ATOM      1  C   UNL     1       2.486   7.383  19.322  0.00  0.00    +0.000 A 
ATOM      2  N   UNL     1       1.649   8.120  20.119  0.00  0.00    +0.000 NA
ATOM      3  C   UNL     1       1.130   9.310  19.697  0.00  0.00    +0.000 A 
ATOM      4  N   UNL     1       1.431   9.761  18.453  0.00  0.00    +0.000 NA
ATOM      5  C   UNL     1       2.251   9.070  17.623  0.00  0.00    +0.000 A 
ATOM      6  C   UNL     1       2.810   7.864  18.047  0.00  0.00    +0.000 A 
ATOM      7  F   UNL     1       3.618   7.172  17.209  0.00  0.00    +0.000 F 
ENDROOT
BRANCH   3   8
ATOM      8  C   UNL     1       0.269  10.135  20.575  0.00  0.00    +0.000 A 
ATOM      9  C   UNL     1       0.433  10.339  21.944  0.00  0.00    +0.000 A 
ATOM     10  N   UNL     1      -0.535  11.159  22.417  0.00  0.00    +0.000 N 
ATOM     11  C   UNL     1      -1.310  11.467  21.365  0.00  0.00    +0.000 A 
ATOM     12  N   UNL     1      -2.408  12.266  21.388  0.00  0.00    +0.000 NA
ATOM     13  C   UNL     1      -3.097  12.482  20.229  0.00  0.00    +0.000 A 
ATOM     14  C   UNL     1      -2.675  11.883  19.022  0.00  0.00    +0.000 A 
ATOM     15  F   UNL     1      -3.366  12.100  17.876  0.00  0.00    +0.000 F 
ATOM     16  C   UNL     1      -1.535  11.061  19.011  0.00  0.00    +0.000 A 
ATOM     17  C   UNL     1      -0.860  10.869  20.221  0.00  0.00    +0.000 A 
ATOM     18  H   UNL     1      -0.656  11.487  23.401  0.00  0.00    +0.000 HD
ENDBRANCH   3   8
BRANCH   1  19
ATOM     19  N   UNL     1       3.016   6.125  19.756  0.00  0.00    +0.000 N 
ATOM     20  H   UNL     1       3.929   6.126  20.235  0.00  0.00    +0.000 HD
BRANCH  19  28
ATOM     21  C   UNL     1       2.722   3.680  20.384  0.00  0.00    +0.000 C 
ATOM     22  C   UNL     1       3.555   2.543  19.731  0.00  0.00    +0.000 C 
ATOM     23  C   UNL     1       2.856   1.991  18.458  0.00  0.00    +0.000 C 
ATOM     24  C   UNL     1       2.557   3.139  17.463  0.00  0.00    +0.000 C 
ATOM     25  C   UNL     1       3.152   4.463  17.979  0.00  0.00    +0.000 C 
ATOM     26  C   UNL     1       4.673   4.247  18.221  0.00  0.00    +0.000 C 
ATOM     27  C   UNL     1       4.900   3.169  19.312  0.00  0.00    +0.000 C 
ATOM     28  C   UNL     1       2.456   4.844  19.327  0.00  0.00    +0.000 C 
BRANCH  21  30
ATOM     29  O   UNL     1       1.547   2.628  22.166  0.00  0.00    +0.000 OA
ATOM     30  C   UNL     1       1.489   3.088  21.040  0.00  0.00    +0.000 C 
BRANCH  30  31
ATOM     31  O   UNL     1       0.283   3.155  20.430  0.00  0.00    +0.000 OA
ATOM     32  H   UNL     1      -0.452   2.574  20.673  0.00  0.00    +0.000 HD
ENDBRANCH  30  31
ENDBRANCH  21  30
ENDBRANCH  19  28
ENDBRANCH   1  19
TORSDOF 5
ENDMDL
MODEL 7
REMARK VINA RESULT:      -8.7      0.907      1.142
REMARK  Name = 
REMARK  5 active torsions:
REMARK  status: ('A' for Active; 'I' for Inactive)
REMARK    1  A    between atoms: C_2  and  O_3
REMARK    2  A    between atoms: C_2  and  C_4
REMARK    3  A    between atoms: C_11  and  N_12
REMARK    4  A    between atoms: N_12  and  C_13
REMARK    5  A    between atoms: C_15  and  C_16
REMARK                            x       y       z     vdW  Elec       q    Type
REMARK                         _______ _______ _______ _____ _____    ______ ____
ROOT
ATOM      1  C   UNL     1       2.466   7.491  19.243  0.00  0.00    +0.000 A 
ATOM      2  N   UNL     1       1.725   7.962  20.296  0.00  0.00    +0.000 NA
ATOM      3  C   UNL     1       0.982   9.101  20.189  0.00  0.00    +0.000 A 
ATOM      4  N   UNL     1       0.957   9.770  19.009  0.00  0.00    +0.000 NA
ATOM      5  C   UNL     1       1.668   9.347  17.935  0.00  0.00    +0.000 A 
ATOM      6  C   UNL     1       2.454   8.198  18.032  0.00  0.00    +0.000 A 
ATOM      7  F   UNL     1       3.151   7.772  16.953  0.00  0.00    +0.000 F 
ENDROOT
BRANCH   3   8
ATOM      8  C   UNL     1       0.223   9.642  21.341  0.00  0.00    +0.000 A 
ATOM      9  C   UNL     1      -0.360   8.904  22.371  0.00  0.00    +0.000 A 
ATOM     10  N   UNL     1      -0.964   9.729  23.257  0.00  0.00    +0.000 N 
ATOM     11  C   UNL     1      -0.775  10.976  22.795  0.00  0.00    +0.000 A 
ATOM     12  N   UNL     1      -1.221  12.120  23.376  0.00  0.00    +0.000 NA
ATOM     13  C   UNL     1      -0.950  13.318  22.779  0.00  0.00    +0.000 A 
ATOM     14  C   UNL     1      -0.215  13.368  21.574  0.00  0.00    +0.000 A 
ATOM     15  F   UNL     1       0.047  14.561  20.986  0.00  0.00    +0.000 F 
ATOM     16  C   UNL     1       0.244  12.178  20.986  0.00  0.00    +0.000 A 
ATOM     17  C   UNL     1      -0.057  10.975  21.632  0.00  0.00    +0.000 A 
ATOM     18  H   UNL     1      -1.474   9.455  24.126  0.00  0.00    +0.000 HD
ENDBRANCH   3   8
BRANCH   1  19
ATOM     19  N   UNL     1       3.233   6.286  19.347  0.00  0.00    +0.000 N 
ATOM     20  H   UNL     1       4.131   6.328  19.850  0.00  0.00    +0.000 HD
BRANCH  19  28
ATOM     21  C   UNL     1       2.511   3.853  19.480  0.00  0.00    +0.000 C 
ATOM     22  C   UNL     1       3.501   2.674  19.273  0.00  0.00    +0.000 C 
ATOM     23  C   UNL     1       3.579   2.258  17.778  0.00  0.00    +0.000 C 
ATOM     24  C   UNL     1       3.934   3.479  16.895  0.00  0.00    +0.000 C 
ATOM     25  C   UNL     1       4.223   4.711  17.773  0.00  0.00    +0.000 C 
ATOM     26  C   UNL     1       5.352   4.335  18.774  0.00  0.00    +0.000 C 
ATOM     27  C   UNL     1       4.890   3.186  19.707  0.00  0.00    +0.000 C 
ATOM     28  C   UNL     1       2.928   5.089  18.563  0.00  0.00    +0.000 C 
BRANCH  21  30
ATOM     29  O   UNL     1       0.613   3.208  18.197  0.00  0.00    +0.000 OA
ATOM     30  C   UNL     1       1.089   3.352  19.309  0.00  0.00    +0.000 C 
BRANCH  30  31
ATOM     31  O   UNL     1       0.361   2.960  20.379  0.00  0.00    +0.000 OA
ATOM     32  H   UNL     1      -0.361   2.319  20.308  0.00  0.00    +0.000 HD
ENDBRANCH  30  31
ENDBRANCH  21  30
ENDBRANCH  19  28
ENDBRANCH   1  19
TORSDOF 5
ENDMDL
MODEL 8
REMARK VINA RESULT:      -8.5      1.693      2.247
REMARK  Name = 
REMARK  5 active torsions:
REMARK  status: ('A' for Active; 'I' for Inactive)
REMARK    1  A    between atoms: C_2  and  O_3
REMARK    2  A    between atoms: C_2  and  C_4
REMARK    3  A    between atoms: C_11  and  N_12
REMARK    4  A    between atoms: N_12  and  C_13
REMARK    5  A    between atoms: C_15  and  C_16
REMARK                            x       y       z     vdW  Elec       q    Type
REMARK                         _______ _______ _______ _____ _____    ______ ____
ROOT
ATOM      1  C   UNL     1       2.778   7.195  18.975  0.00  0.00    +0.000 A 
ATOM      2  N   UNL     1       1.795   8.000  19.490  0.00  0.00    +0.000 NA
ATOM      3  C   UNL     1       1.425   9.157  18.868  0.00  0.00    +0.000 A 
ATOM      4  N   UNL     1       2.027   9.506  17.703  0.00  0.00    +0.000 NA
ATOM      5  C   UNL     1       3.002   8.745  17.149  0.00  0.00    +0.000 A 
ATOM      6  C   UNL     1       3.411   7.571  17.783  0.00  0.00    +0.000 A 
ATOM      7  F   UNL     1       4.376   6.809  17.218  0.00  0.00    +0.000 F 
ENDROOT
BRANCH   3   8
ATOM      8  C   UNL     1       0.402  10.056  19.449  0.00  0.00    +0.000 A 
ATOM      9  C   UNL     1      -0.374  10.987  18.758  0.00  0.00    +0.000 A 
ATOM     10  N   UNL     1      -1.212  11.625  19.609  0.00  0.00    +0.000 N 
ATOM     11  C   UNL     1      -0.969  11.112  20.827  0.00  0.00    +0.000 A 
ATOM     12  N   UNL     1      -1.587  11.470  21.982  0.00  0.00    +0.000 NA
ATOM     13  C   UNL     1      -1.225  10.856  23.147  0.00  0.00    +0.000 A 
ATOM     14  C   UNL     1      -0.222   9.862  23.151  0.00  0.00    +0.000 A 
ATOM     15  F   UNL     1       0.134   9.260  24.313  0.00  0.00    +0.000 F 
ATOM     16  C   UNL     1       0.407   9.499  21.948  0.00  0.00    +0.000 A 
ATOM     17  C   UNL     1       0.004  10.153  20.780  0.00  0.00    +0.000 A 
ATOM     18  H   UNL     1      -1.908  12.364  19.369  0.00  0.00    +0.000 HD
ENDBRANCH   3   8
BRANCH   1  19
ATOM     19  N   UNL     1       3.156   5.971  19.617  0.00  0.00    +0.000 N 
ATOM     20  H   UNL     1       3.997   5.979  20.212  0.00  0.00    +0.000 HD
BRANCH  19  28
ATOM     21  C   UNL     1       2.738   3.596  20.417  0.00  0.00    +0.000 C 
ATOM     22  C   UNL     1       3.552   2.381  19.892  0.00  0.00    +0.000 C 
ATOM     23  C   UNL     1       2.885   1.756  18.635  0.00  0.00    +0.000 C 
ATOM     24  C   UNL     1       2.675   2.833  17.543  0.00  0.00    +0.000 C 
ATOM     25  C   UNL     1       3.299   4.171  17.981  0.00  0.00    +0.000 C 
ATOM     26  C   UNL     1       4.799   3.919  18.307  0.00  0.00    +0.000 C 
ATOM     27  C   UNL     1       4.937   2.923  19.487  0.00  0.00    +0.000 C 
ATOM     28  C   UNL     1       2.564   4.682  19.263  0.00  0.00    +0.000 C 
BRANCH  21  30
ATOM     29  O   UNL     1       1.459   2.677  22.202  0.00  0.00    +0.000 OA
ATOM     30  C   UNL     1       1.455   3.103  21.061  0.00  0.00    +0.000 C 
BRANCH  30  31
ATOM     31  O   UNL     1       0.270   3.223  20.420  0.00  0.00    +0.000 OA
ATOM     32  H   UNL     1      -0.418   2.545  20.473  0.00  0.00    +0.000 HD
ENDBRANCH  30  31
ENDBRANCH  21  30
ENDBRANCH  19  28
ENDBRANCH   1  19
TORSDOF 5
ENDMDL
MODEL 9
REMARK VINA RESULT:      -8.5      2.226      2.541
REMARK  Name = 
REMARK  5 active torsions:
REMARK  status: ('A' for Active; 'I' for Inactive)
REMARK    1  A    between atoms: C_2  and  O_3
REMARK    2  A    between atoms: C_2  and  C_4
REMARK    3  A    between atoms: C_11  and  N_12
REMARK    4  A    between atoms: N_12  and  C_13
REMARK    5  A    between atoms: C_15  and  C_16
REMARK                            x       y       z     vdW  Elec       q    Type
REMARK                         _______ _______ _______ _____ _____    ______ ____
ROOT
ATOM      1  C   UNL     1       2.632   7.332  19.031  0.00  0.00    +0.000 A 
ATOM      2  N   UNL     1       1.569   8.099  19.434  0.00  0.00    +0.000 NA
ATOM      3  C   UNL     1       1.237   9.252  18.785  0.00  0.00    +0.000 A 
ATOM      4  N   UNL     1       1.961   9.638  17.704  0.00  0.00    +0.000 NA
ATOM      5  C   UNL     1       3.019   8.916  17.261  0.00  0.00    +0.000 A 
ATOM      6  C   UNL     1       3.389   7.746  17.926  0.00  0.00    +0.000 A 
ATOM      7  F   UNL     1       4.439   7.022  17.471  0.00  0.00    +0.000 F 
ENDROOT
BRANCH   3   8
ATOM      8  C   UNL     1       0.123  10.110  19.250  0.00  0.00    +0.000 A 
ATOM      9  C   UNL     1       0.054  10.796  20.462  0.00  0.00    +0.000 A 
ATOM     10  N   UNL     1      -1.107  11.488  20.545  0.00  0.00    +0.000 N 
ATOM     11  C   UNL     1      -1.772  11.241  19.404  0.00  0.00    +0.000 A 
ATOM     12  N   UNL     1      -2.991  11.733  19.068  0.00  0.00    +0.000 NA
ATOM     13  C   UNL     1      -3.541  11.385  17.866  0.00  0.00    +0.000 A 
ATOM     14  C   UNL     1      -2.849  10.524  16.986  0.00  0.00    +0.000 A 
ATOM     15  F   UNL     1      -3.402  10.180  15.796  0.00  0.00    +0.000 F 
ATOM     16  C   UNL     1      -1.586  10.025  17.345  0.00  0.00    +0.000 A 
ATOM     17  C   UNL     1      -1.063  10.408  18.584  0.00  0.00    +0.000 A 
ATOM     18  H   UNL     1      -1.423  12.093  21.335  0.00  0.00    +0.000 HD
ENDBRANCH   3   8
BRANCH   1  19
ATOM     19  N   UNL     1       2.971   6.112  19.699  0.00  0.00    +0.000 N 
ATOM     20  H   UNL     1       3.759   6.129  20.363  0.00  0.00    +0.000 HD
BRANCH  19  28
ATOM     21  C   UNL     1       2.702   3.677  20.377  0.00  0.00    +0.000 C 
ATOM     22  C   UNL     1       3.551   2.536  19.751  0.00  0.00    +0.000 C 
ATOM     23  C   UNL     1       2.864   1.949  18.487  0.00  0.00    +0.000 C 
ATOM     24  C   UNL     1       2.557   3.073  17.468  0.00  0.00    +0.000 C 
ATOM     25  C   UNL     1       3.134   4.415  17.958  0.00  0.00    +0.000 C 
ATOM     26  C   UNL     1       4.656   4.222  18.211  0.00  0.00    +0.000 C 
ATOM     27  C   UNL     1       4.891   3.169  19.325  0.00  0.00    +0.000 C 
ATOM     28  C   UNL     1       2.428   4.816  19.295  0.00  0.00    +0.000 C 
BRANCH  21  30
ATOM     29  O   UNL     1       1.526   2.668  22.183  0.00  0.00    +0.000 OA
ATOM     30  C   UNL     1       1.472   3.085  21.040  0.00  0.00    +0.000 C 
BRANCH  30  31
ATOM     31  O   UNL     1       0.274   3.103  20.413  0.00  0.00    +0.000 OA
ATOM     32  H   UNL     1      -0.015   3.850  19.870  0.00  0.00    +0.000 HD
ENDBRANCH  30  31
ENDBRANCH  21  30
ENDBRANCH  19  28
ENDBRANCH   1  19
TORSDOF 5
ENDMDL
