MODEL 1
REMARK VINA RESULT:      -9.2      0.000      0.000
REMARK  Name = 
REMARK  6 active torsions:
REMARK  status: ('A' for Active; 'I' for Inactive)
REMARK    1  A    between atoms: C_2  and  C_24
REMARK    2  A    between atoms: N_3  and  C_4
REMARK    3  A    between atoms: C_7  and  O_8
REMARK    4  A    between atoms: O_8  and  S_9
REMARK    5  A    between atoms: S_9  and  C_12
REMARK    6  A    between atoms: C_15  and  C_16
REMARK                            x       y       z     vdW  Elec       q    Type
REMARK                         _______ _______ _______ _____ _____    ______ ____
ROOT
ATOM      1  C   UNL     1       1.727   8.360  19.334  0.00  0.00    +0.000 A 
ATOM      2  C   UNL     1       1.929   7.289  20.207  0.00  0.00    +0.000 A 
ATOM      3  C   UNL     1       2.777   6.229  19.861  0.00  0.00    +0.000 A 
ATOM      4  C   UNL     1       3.422   6.218  18.626  0.00  0.00    +0.000 A 
ATOM      5  C   UNL     1       3.221   7.279  17.744  0.00  0.00    +0.000 A 
ATOM      6  C   UNL     1       2.363   8.335  18.090  0.00  0.00    +0.000 A 
ENDROOT
BRANCH   1   9
ATOM      7  O   UNL     1       1.472   9.766  21.878  0.00  0.00    +0.000 OA
ATOM      8  C   UNL     1       0.798  10.052  20.894  0.00  0.00    +0.000 C 
ATOM      9  N   UNL     1       0.904   9.468  19.643  0.00  0.00    +0.000 N 
ATOM     10  H   UNL     1       0.474   9.949  18.865  0.00  0.00    +0.000 HD
BRANCH   8  11
ATOM     11  C   UNL     1      -0.212  11.137  21.050  0.00  0.00    +0.000 A 
ATOM     12  C   UNL     1      -0.527  12.022  20.016  0.00  0.00    +0.000 A 
ATOM     13  C   UNL     1      -1.631  12.872  20.145  0.00  0.00    +0.000 A 
ATOM     14  C   UNL     1      -2.433  12.844  21.300  0.00  0.00    +0.000 A 
ATOM     15  C   UNL     1      -3.620  13.587  21.388  0.00  0.00    +0.000 A 
ATOM     16  C   UNL     1      -4.410  13.540  22.538  0.00  0.00    +0.000 A 
ATOM     17  C   UNL     1      -3.997  12.790  23.636  0.00  0.00    +0.000 A 
ATOM     18  C   UNL     1      -2.826  12.037  23.562  0.00  0.00    +0.000 A 
ATOM     19  C   UNL     1      -2.060  12.020  22.384  0.00  0.00    +0.000 A 
ATOM     20  C   UNL     1      -0.955  11.169  22.242  0.00  0.00    +0.000 A 
ENDBRANCH   8  11
ENDBRANCH   1   9
BRANCH   4  21
ATOM     21  O   UNL     1       4.254   5.150  18.394  0.00  0.00    +0.000 OA
BRANCH  21  22
ATOM     22  S   UNL     1       5.844   5.366  18.089  0.00  0.00    +0.000 S 
ATOM     23  O   UNL     1       6.136   6.787  18.071  0.00  0.00    +0.000 OA
ATOM     24  O   UNL     1       6.613   4.465  18.926  0.00  0.00    +0.000 OA
BRANCH  22  25
ATOM     25  C   UNL     1       6.035   4.786  16.411  0.00  0.00    +0.000 A 
ATOM     26  C   UNL     1       5.018   4.029  15.816  0.00  0.00    +0.000 A 
ATOM     27  C   UNL     1       5.128   3.655  14.475  0.00  0.00    +0.000 A 
ATOM     28  C   UNL     1       6.250   4.031  13.716  0.00  0.00    +0.000 A 
ATOM     29  C   UNL     1       7.259   4.797  14.325  0.00  0.00    +0.000 A 
ATOM     30  C   UNL     1       7.156   5.173  15.663  0.00  0.00    +0.000 A 
BRANCH  28  31
ATOM     31  C   UNL     1       6.387   3.646  12.259  0.00  0.00    +0.000 C 
ATOM     32  F   UNL     1       6.836   2.375  12.069  0.00  0.00    +0.000 F 
ATOM     33  F   UNL     1       5.201   3.728  11.595  0.00  0.00    +0.000 F 
ATOM     34  F   UNL     1       7.249   4.455  11.582  0.00  0.00    +0.000 F 
ENDBRANCH  28  31
ENDBRANCH  22  25
ENDBRANCH  21  22
ENDBRANCH   4  21
TORSDOF 6
ENDMDL
MODEL 2
REMARK VINA RESULT:      -9.2      1.560      2.050
REMARK  Name = 
REMARK  6 active torsions:
REMARK  status: ('A' for Active; 'I' for Inactive)
REMARK    1  A    between atoms: C_2  and  C_24
REMARK    2  A    between atoms: N_3  and  C_4
REMARK    3  A    between atoms: C_7  and  O_8
REMARK    4  A    between atoms: O_8  and  S_9
REMARK    5  A    between atoms: S_9  and  C_12
REMARK    6  A    between atoms: C_15  and  C_16
REMARK                            x       y       z     vdW  Elec       q    Type
REMARK                         _______ _______ _______ _____ _____    ______ ____
ROOT
ATOM      1  C   UNL     1       2.368   7.700  18.258  0.00  0.00    +0.000 A 
ATOM      2  C   UNL     1       2.433   6.738  19.269  0.00  0.00    +0.000 A 
ATOM      3  C   UNL     1       3.548   5.900  19.393  0.00  0.00    +0.000 A 
ATOM      4  C   UNL     1       4.609   6.000  18.495  0.00  0.00    +0.000 A 
ATOM      5  C   UNL     1       4.551   6.952  17.478  0.00  0.00    +0.000 A 
ATOM      6  C   UNL     1       3.427   7.785  17.349  0.00  0.00    +0.000 A 
ENDROOT
BRANCH   1   9
ATOM      7  O   UNL     1       1.334   9.639  20.178  0.00  0.00    +0.000 OA
ATOM      8  C   UNL     1       0.813   9.449  19.083  0.00  0.00    +0.000 C 
ATOM      9  N   UNL     1       1.280   8.590  18.103  0.00  0.00    +0.000 N 
ATOM     10  H   UNL     1       0.911   8.702  17.168  0.00  0.00    +0.000 HD
BRANCH   8  11
ATOM     11  C   UNL     1      -0.420  10.226  18.770  0.00  0.00    +0.000 A 
ATOM     12  C   UNL     1      -1.169  10.007  17.611  0.00  0.00    +0.000 A 
ATOM     13  C   UNL     1      -2.428  10.604  17.477  0.00  0.00    +0.000 A 
ATOM     14  C   UNL     1      -2.952  11.419  18.497  0.00  0.00    +0.000 A 
ATOM     15  C   UNL     1      -4.265  11.911  18.441  0.00  0.00    +0.000 A 
ATOM     16  C   UNL     1      -4.773  12.710  19.467  0.00  0.00    +0.000 A 
ATOM     17  C   UNL     1      -3.959  13.071  20.537  0.00  0.00    +0.000 A 
ATOM     18  C   UNL     1      -2.655  12.581  20.614  0.00  0.00    +0.000 A 
ATOM     19  C   UNL     1      -2.156  11.718  19.624  0.00  0.00    +0.000 A 
ATOM     20  C   UNL     1      -0.900  11.110  19.750  0.00  0.00    +0.000 A 
ENDBRANCH   8  11
ENDBRANCH   1   9
BRANCH   4  21
ATOM     21  O   UNL     1       5.667   5.154  18.719  0.00  0.00    +0.000 OA
BRANCH  21  22
ATOM     22  S   UNL     1       7.085   5.345  17.931  0.00  0.00    +0.000 S 
ATOM     23  O   UNL     1       7.362   6.762  17.786  0.00  0.00    +0.000 OA
ATOM     24  O   UNL     1       8.073   4.456  18.513  0.00  0.00    +0.000 OA
BRANCH  22  25
ATOM     25  C   UNL     1       6.746   4.722  16.293  0.00  0.00    +0.000 A 
ATOM     26  C   UNL     1       5.681   3.836  16.092  0.00  0.00    +0.000 A 
ATOM     27  C   UNL     1       5.360   3.422  14.798  0.00  0.00    +0.000 A 
ATOM     28  C   UNL     1       6.096   3.886  13.693  0.00  0.00    +0.000 A 
ATOM     29  C   UNL     1       7.158   4.781  13.910  0.00  0.00    +0.000 A 
ATOM     30  C   UNL     1       7.485   5.197  15.200  0.00  0.00    +0.000 A 
BRANCH  28  31
ATOM     31  C   UNL     1       5.761   3.460  12.281  0.00  0.00    +0.000 C 
ATOM     32  F   UNL     1       6.540   4.049  11.332  0.00  0.00    +0.000 F 
ATOM     33  F   UNL     1       5.906   2.117  12.105  0.00  0.00    +0.000 F 
ATOM     34  F   UNL     1       4.473   3.743  11.940  0.00  0.00    +0.000 F 
ENDBRANCH  28  31
ENDBRANCH  22  25
ENDBRANCH  21  22
ENDBRANCH   4  21
TORSDOF 6
ENDMDL
MODEL 3
REMARK VINA RESULT:      -9.0      6.527      9.148
REMARK  Name = 
REMARK  6 active torsions:
REMARK  status: ('A' for Active; 'I' for Inactive)
REMARK    1  A    between atoms: C_2  and  C_24
REMARK    2  A    between atoms: N_3  and  C_4
REMARK    3  A    between atoms: C_7  and  O_8
REMARK    4  A    between atoms: O_8  and  S_9
REMARK    5  A    between atoms: S_9  and  C_12
REMARK    6  A    between atoms: C_15  and  C_16
REMARK                            x       y       z     vdW  Elec       q    Type
REMARK                         _______ _______ _______ _____ _____    ______ ____
ROOT
ATOM      1  C   UNL     1       8.246   7.605  18.489  0.00  0.00    +0.000 A 
ATOM      2  C   UNL     1       7.625   7.457  17.247  0.00  0.00    +0.000 A 
ATOM      3  C   UNL     1       6.889   6.304  16.944  0.00  0.00    +0.000 A 
ATOM      4  C   UNL     1       6.778   5.274  17.876  0.00  0.00    +0.000 A 
ATOM      5  C   UNL     1       7.400   5.409  19.117  0.00  0.00    +0.000 A 
ATOM      6  C   UNL     1       8.146   6.562  19.414  0.00  0.00    +0.000 A 
ENDROOT
BRANCH   1   9
ATOM      7  O   UNL     1       7.834  10.360  17.619  0.00  0.00    +0.000 OA
ATOM      8  C   UNL     1       8.755  10.031  18.361  0.00  0.00    +0.000 C 
ATOM      9  N   UNL     1       8.978   8.758  18.858  0.00  0.00    +0.000 N 
ATOM     10  H   UNL     1       9.612   8.665  19.640  0.00  0.00    +0.000 HD
BRANCH   8  11
ATOM     11  C   UNL     1       9.708  11.097  18.781  0.00  0.00    +0.000 A 
ATOM     12  C   UNL     1      10.842  11.425  18.034  0.00  0.00    +0.000 A 
ATOM     13  C   UNL     1      11.575  12.573  18.356  0.00  0.00    +0.000 A 
ATOM     14  C   UNL     1      11.182  13.405  19.419  0.00  0.00    +0.000 A 
ATOM     15  C   UNL     1      11.821  14.630  19.667  0.00  0.00    +0.000 A 
ATOM     16  C   UNL     1      11.411  15.450  20.721  0.00  0.00    +0.000 A 
ATOM     17  C   UNL     1      10.392  15.032  21.572  0.00  0.00    +0.000 A 
ATOM     18  C   UNL     1       9.739  13.823  21.333  0.00  0.00    +0.000 A 
ATOM     19  C   UNL     1      10.094  13.024  20.233  0.00  0.00    +0.000 A 
ATOM     20  C   UNL     1       9.364  11.875  19.899  0.00  0.00    +0.000 A 
ENDBRANCH   8  11
ENDBRANCH   1   9
BRANCH   4  21
ATOM     21  O   UNL     1       6.012   4.200  17.495  0.00  0.00    +0.000 OA
BRANCH  21  22
ATOM     22  S   UNL     1       4.667   3.784  18.322  0.00  0.00    +0.000 S 
ATOM     23  O   UNL     1       3.899   2.835  17.535  0.00  0.00    +0.000 OA
ATOM     24  O   UNL     1       5.028   3.482  19.693  0.00  0.00    +0.000 OA
BRANCH  22  25
ATOM     25  C   UNL     1       3.714   5.293  18.368  0.00  0.00    +0.000 A 
ATOM     26  C   UNL     1       3.110   5.698  19.564  0.00  0.00    +0.000 A 
ATOM     27  C   UNL     1       2.444   6.924  19.623  0.00  0.00    +0.000 A 
ATOM     28  C   UNL     1       2.372   7.756  18.491  0.00  0.00    +0.000 A 
ATOM     29  C   UNL     1       2.990   7.339  17.299  0.00  0.00    +0.000 A 
ATOM     30  C   UNL     1       3.656   6.115  17.234  0.00  0.00    +0.000 A 
BRANCH  28  31
ATOM     31  C   UNL     1       1.665   9.092  18.532  0.00  0.00    +0.000 C 
ATOM     32  F   UNL     1       0.575   9.159  17.719  0.00  0.00    +0.000 F 
ATOM     33  F   UNL     1       1.220   9.396  19.783  0.00  0.00    +0.000 F 
ATOM     34  F   UNL     1       2.474  10.125  18.165  0.00  0.00    +0.000 F 
ENDBRANCH  28  31
ENDBRANCH  22  25
ENDBRANCH  21  22
ENDBRANCH   4  21
TORSDOF 6
ENDMDL
MODEL 4
REMARK VINA RESULT:      -8.9      0.914      1.394
REMARK  Name = 
REMARK  6 active torsions:
REMARK  status: ('A' for Active; 'I' for Inactive)
REMARK    1  A    between atoms: C_2  and  C_24
REMARK    2  A    between atoms: N_3  and  C_4
REMARK    3  A    between atoms: C_7  and  O_8
REMARK    4  A    between atoms: O_8  and  S_9
REMARK    5  A    between atoms: S_9  and  C_12
REMARK    6  A    between atoms: C_15  and  C_16
REMARK                            x       y       z     vdW  Elec       q    Type
REMARK                         _______ _______ _______ _____ _____    ______ ____
ROOT
ATOM      1  C   UNL     1       1.530   8.237  19.937  0.00  0.00    +0.000 A 
ATOM      2  C   UNL     1       1.555   7.116  20.769  0.00  0.00    +0.000 A 
ATOM      3  C   UNL     1       2.207   5.941  20.374  0.00  0.00    +0.000 A 
ATOM      4  C   UNL     1       2.829   5.866  19.129  0.00  0.00    +0.000 A 
ATOM      5  C   UNL     1       2.803   6.977  18.288  0.00  0.00    +0.000 A 
ATOM      6  C   UNL     1       2.140   8.151  18.683  0.00  0.00    +0.000 A 
ENDROOT
BRANCH   1   9
ATOM      7  O   UNL     1       1.489   9.540  22.548  0.00  0.00    +0.000 OA
ATOM      8  C   UNL     1       0.890   9.988  21.575  0.00  0.00    +0.000 C 
ATOM      9  N   UNL     1       0.910   9.457  20.297  0.00  0.00    +0.000 N 
ATOM     10  H   UNL     1       0.582  10.043  19.541  0.00  0.00    +0.000 HD
BRANCH   8  11
ATOM     11  C   UNL     1       0.084  11.225  21.780  0.00  0.00    +0.000 A 
ATOM     12  C   UNL     1       0.298  12.390  21.039  0.00  0.00    +0.000 A 
ATOM     13  C   UNL     1      -0.624  13.440  21.117  0.00  0.00    +0.000 A 
ATOM     14  C   UNL     1      -1.767  13.336  21.929  0.00  0.00    +0.000 A 
ATOM     15  C   UNL     1      -2.771  14.318  21.914  0.00  0.00    +0.000 A 
ATOM     16  C   UNL     1      -3.905  14.194  22.718  0.00  0.00    +0.000 A 
ATOM     17  C   UNL     1      -4.027  13.114  23.588  0.00  0.00    +0.000 A 
ATOM     18  C   UNL     1      -3.045  12.124  23.609  0.00  0.00    +0.000 A 
ATOM     19  C   UNL     1      -1.934  12.201  22.751  0.00  0.00    +0.000 A 
ATOM     20  C   UNL     1      -1.008  11.153  22.661  0.00  0.00    +0.000 A 
ENDBRANCH   8  11
ENDBRANCH   1   9
BRANCH   4  21
ATOM     21  O   UNL     1       3.465   4.682  18.847  0.00  0.00    +0.000 OA
BRANCH  21  22
ATOM     22  S   UNL     1       5.095   4.579  18.830  0.00  0.00    +0.000 S 
ATOM     23  O   UNL     1       5.656   5.825  19.320  0.00  0.00    +0.000 OA
ATOM     24  O   UNL     1       5.496   3.312  19.410  0.00  0.00    +0.000 OA
BRANCH  22  25
ATOM     25  C   UNL     1       5.495   4.489  17.092  0.00  0.00    +0.000 A 
ATOM     26  C   UNL     1       6.811   4.712  16.669  0.00  0.00    +0.000 A 
ATOM     27  C   UNL     1       7.140   4.552  15.321  0.00  0.00    +0.000 A 
ATOM     28  C   UNL     1       6.164   4.169  14.384  0.00  0.00    +0.000 A 
ATOM     29  C   UNL     1       4.849   3.942  14.826  0.00  0.00    +0.000 A 
ATOM     30  C   UNL     1       4.513   4.101  16.170  0.00  0.00    +0.000 A 
BRANCH  28  31
ATOM     31  C   UNL     1       6.499   3.980  12.922  0.00  0.00    +0.000 C 
ATOM     32  F   UNL     1       7.465   4.825  12.468  0.00  0.00    +0.000 F 
ATOM     33  F   UNL     1       6.947   2.721  12.659  0.00  0.00    +0.000 F 
ATOM     34  F   UNL     1       5.421   4.167  12.109  0.00  0.00    +0.000 F 
ENDBRANCH  28  31
ENDBRANCH  22  25
ENDBRANCH  21  22
ENDBRANCH   4  21
TORSDOF 6
ENDMDL
MODEL 5
REMARK VINA RESULT:      -8.9      0.270      1.215
REMARK  Name = 
REMARK  6 active torsions:
REMARK  status: ('A' for Active; 'I' for Inactive)
REMARK    1  A    between atoms: C_2  and  C_24
REMARK    2  A    between atoms: N_3  and  C_4
REMARK    3  A    between atoms: C_7  and  O_8
REMARK    4  A    between atoms: O_8  and  S_9
REMARK    5  A    between atoms: S_9  and  C_12
REMARK    6  A    between atoms: C_15  and  C_16
REMARK                            x       y       z     vdW  Elec       q    Type
REMARK                         _______ _______ _______ _____ _____    ______ ____
ROOT
ATOM      1  C   UNL     1       1.664   8.508  19.397  0.00  0.00    +0.000 A 
ATOM      2  C   UNL     1       2.295   8.376  18.158  0.00  0.00    +0.000 A 
ATOM      3  C   UNL     1       3.040   7.232  17.849  0.00  0.00    +0.000 A 
ATOM      4  C   UNL     1       3.180   6.208  18.784  0.00  0.00    +0.000 A 
ATOM      5  C   UNL     1       2.561   6.334  20.027  0.00  0.00    +0.000 A 
ATOM      6  C   UNL     1       1.822   7.487  20.338  0.00  0.00    +0.000 A 
ENDROOT
BRANCH   1   9
ATOM      7  O   UNL     1       1.524   9.874  21.972  0.00  0.00    +0.000 OA
ATOM      8  C   UNL     1       0.825  10.192  21.015  0.00  0.00    +0.000 C 
ATOM      9  N   UNL     1       0.878   9.629  19.752  0.00  0.00    +0.000 N 
ATOM     10  H   UNL     1       0.433  10.132  18.996  0.00  0.00    +0.000 HD
BRANCH   8  11
ATOM     11  C   UNL     1      -0.154  11.297  21.223  0.00  0.00    +0.000 A 
ATOM     12  C   UNL     1      -0.342  12.317  20.288  0.00  0.00    +0.000 A 
ATOM     13  C   UNL     1      -1.422  13.197  20.431  0.00  0.00    +0.000 A 
ATOM     14  C   UNL     1      -2.324  13.064  21.501  0.00  0.00    +0.000 A 
ATOM     15  C   UNL     1      -3.487  13.846  21.583  0.00  0.00    +0.000 A 
ATOM     16  C   UNL     1      -4.378  13.694  22.647  0.00  0.00    +0.000 A 
ATOM     17  C   UNL     1      -4.092  12.795  23.671  0.00  0.00    +0.000 A 
ATOM     18  C   UNL     1      -2.947  12.002  23.600  0.00  0.00    +0.000 A 
ATOM     19  C   UNL     1      -2.080  12.094  22.498  0.00  0.00    +0.000 A 
ATOM     20  C   UNL     1      -0.999  11.216  22.343  0.00  0.00    +0.000 A 
ENDBRANCH   8  11
ENDBRANCH   1   9
BRANCH   4  21
ATOM     21  O   UNL     1       3.906   5.116  18.375  0.00  0.00    +0.000 OA
BRANCH  21  22
ATOM     22  S   UNL     1       5.525   5.200  18.180  0.00  0.00    +0.000 S 
ATOM     23  O   UNL     1       5.958   6.571  18.381  0.00  0.00    +0.000 OA
ATOM     24  O   UNL     1       6.147   4.115  18.914  0.00  0.00    +0.000 OA
BRANCH  22  25
ATOM     25  C   UNL     1       5.761   4.841  16.447  0.00  0.00    +0.000 A 
ATOM     26  C   UNL     1       6.991   5.123  15.840  0.00  0.00    +0.000 A 
ATOM     27  C   UNL     1       7.205   4.758  14.509  0.00  0.00    +0.000 A 
ATOM     28  C   UNL     1       6.198   4.109  13.772  0.00  0.00    +0.000 A 
ATOM     29  C   UNL     1       4.972   3.825  14.398  0.00  0.00    +0.000 A 
ATOM     30  C   UNL     1       4.751   4.189  15.726  0.00  0.00    +0.000 A 
BRANCH  28  31
ATOM     31  C   UNL     1       6.410   3.695  12.333  0.00  0.00    +0.000 C 
ATOM     32  F   UNL     1       6.915   2.438  12.194  0.00  0.00    +0.000 F 
ATOM     33  F   UNL     1       5.251   3.715  11.619  0.00  0.00    +0.000 F 
ATOM     34  F   UNL     1       7.268   4.521  11.671  0.00  0.00    +0.000 F 
ENDBRANCH  28  31
ENDBRANCH  22  25
ENDBRANCH  21  22
ENDBRANCH   4  21
TORSDOF 6
ENDMDL
MODEL 6
REMARK VINA RESULT:      -8.9      6.741      9.486
REMARK  Name = 
REMARK  6 active torsions:
REMARK  status: ('A' for Active; 'I' for Inactive)
REMARK    1  A    between atoms: C_2  and  C_24
REMARK    2  A    between atoms: N_3  and  C_4
REMARK    3  A    between atoms: C_7  and  O_8
REMARK    4  A    between atoms: O_8  and  S_9
REMARK    5  A    between atoms: S_9  and  C_12
REMARK    6  A    between atoms: C_15  and  C_16
REMARK                            x       y       z     vdW  Elec       q    Type
REMARK                         _______ _______ _______ _____ _____    ______ ____
ROOT
ATOM      1  C   UNL     1       8.107   8.193  17.957  0.00  0.00    +0.000 A 
ATOM      2  C   UNL     1       8.367   7.258  18.961  0.00  0.00    +0.000 A 
ATOM      3  C   UNL     1       7.648   6.058  19.029  0.00  0.00    +0.000 A 
ATOM      4  C   UNL     1       6.644   5.784  18.102  0.00  0.00    +0.000 A 
ATOM      5  C   UNL     1       6.372   6.715  17.100  0.00  0.00    +0.000 A 
ATOM      6  C   UNL     1       7.088   7.922  17.040  0.00  0.00    +0.000 A 
ENDROOT
BRANCH   1   9
ATOM      7  O   UNL     1       8.979  10.014  20.064  0.00  0.00    +0.000 OA
ATOM      8  C   UNL     1       9.155  10.248  18.872  0.00  0.00    +0.000 C 
ATOM      9  N   UNL     1       8.820   9.407  17.824  0.00  0.00    +0.000 N 
ATOM     10  H   UNL     1       9.230   9.600  16.921  0.00  0.00    +0.000 HD
BRANCH   8  11
ATOM     11  C   UNL     1       9.805  11.543  18.519  0.00  0.00    +0.000 A 
ATOM     12  C   UNL     1      11.058  11.609  17.906  0.00  0.00    +0.000 A 
ATOM     13  C   UNL     1      11.518  12.831  17.401  0.00  0.00    +0.000 A 
ATOM     14  C   UNL     1      10.732  13.993  17.497  0.00  0.00    +0.000 A 
ATOM     15  C   UNL     1      11.114  15.192  16.875  0.00  0.00    +0.000 A 
ATOM     16  C   UNL     1      10.316  16.333  16.972  0.00  0.00    +0.000 A 
ATOM     17  C   UNL     1       9.152  16.307  17.735  0.00  0.00    +0.000 A 
ATOM     18  C   UNL     1       8.752  15.122  18.350  0.00  0.00    +0.000 A 
ATOM     19  C   UNL     1       9.509  13.947  18.201  0.00  0.00    +0.000 A 
ATOM     20  C   UNL     1       9.056  12.717  18.698  0.00  0.00    +0.000 A 
ENDBRANCH   8  11
ENDBRANCH   1   9
BRANCH   4  21
ATOM     21  O   UNL     1       6.018   4.569  18.236  0.00  0.00    +0.000 OA
BRANCH  21  22
ATOM     22  S   UNL     1       4.481   4.348  17.733  0.00  0.00    +0.000 S 
ATOM     23  O   UNL     1       4.375   4.743  16.340  0.00  0.00    +0.000 OA
ATOM     24  O   UNL     1       4.023   3.042  18.166  0.00  0.00    +0.000 OA
BRANCH  22  25
ATOM     25  C   UNL     1       3.551   5.548  18.674  0.00  0.00    +0.000 A 
ATOM     26  C   UNL     1       3.194   6.767  18.085  0.00  0.00    +0.000 A 
ATOM     27  C   UNL     1       2.389   7.665  18.790  0.00  0.00    +0.000 A 
ATOM     28  C   UNL     1       1.935   7.358  20.085  0.00  0.00    +0.000 A 
ATOM     29  C   UNL     1       2.296   6.127  20.659  0.00  0.00    +0.000 A 
ATOM     30  C   UNL     1       3.100   5.226  19.961  0.00  0.00    +0.000 A 
BRANCH  28  31
ATOM     31  C   UNL     1       1.055   8.310  20.864  0.00  0.00    +0.000 C 
ATOM     32  F   UNL     1       1.690   8.916  21.904  0.00  0.00    +0.000 F 
ATOM     33  F   UNL     1       0.573   9.316  20.082  0.00  0.00    +0.000 F 
ATOM     34  F   UNL     1      -0.039   7.696  21.396  0.00  0.00    +0.000 F 
ENDBRANCH  28  31
ENDBRANCH  22  25
ENDBRANCH  21  22
ENDBRANCH   4  21
TORSDOF 6
ENDMDL
MODEL 7
REMARK VINA RESULT:      -8.9      6.673      9.344
REMARK  Name = 
REMARK  6 active torsions:
REMARK  status: ('A' for Active; 'I' for Inactive)
REMARK    1  A    between atoms: C_2  and  C_24
REMARK    2  A    between atoms: N_3  and  C_4
REMARK    3  A    between atoms: C_7  and  O_8
REMARK    4  A    between atoms: O_8  and  S_9
REMARK    5  A    between atoms: S_9  and  C_12
REMARK    6  A    between atoms: C_15  and  C_16
REMARK                            x       y       z     vdW  Elec       q    Type
REMARK                         _______ _______ _______ _____ _____    ______ ____
ROOT
ATOM      1  C   UNL     1       8.194   7.466  18.594  0.00  0.00    +0.000 A 
ATOM      2  C   UNL     1       8.016   6.435  19.519  0.00  0.00    +0.000 A 
ATOM      3  C   UNL     1       7.283   5.289  19.186  0.00  0.00    +0.000 A 
ATOM      4  C   UNL     1       6.702   5.166  17.925  0.00  0.00    +0.000 A 
ATOM      5  C   UNL     1       6.867   6.193  16.997  0.00  0.00    +0.000 A 
ATOM      6  C   UNL     1       7.594   7.346  17.337  0.00  0.00    +0.000 A 
ENDROOT
BRANCH   1   9
ATOM      7  O   UNL     1       7.676  10.198  17.707  0.00  0.00    +0.000 OA
ATOM      8  C   UNL     1       8.665   9.892  18.366  0.00  0.00    +0.000 C 
ATOM      9  N   UNL     1       8.946   8.632  18.867  0.00  0.00    +0.000 N 
ATOM     10  H   UNL     1       9.651   8.562  19.588  0.00  0.00    +0.000 HD
BRANCH   8  11
ATOM     11  C   UNL     1       9.643  10.975  18.671  0.00  0.00    +0.000 A 
ATOM     12  C   UNL     1      10.677  11.320  17.797  0.00  0.00    +0.000 A 
ATOM     13  C   UNL     1      11.423  12.480  18.030  0.00  0.00    +0.000 A 
ATOM     14  C   UNL     1      11.144  13.308  19.132  0.00  0.00    +0.000 A 
ATOM     15  C   UNL     1      11.787  14.543  19.305  0.00  0.00    +0.000 A 
ATOM     16  C   UNL     1      11.490  15.358  20.400  0.00  0.00    +0.000 A 
ATOM     17  C   UNL     1      10.585  14.924  21.364  0.00  0.00    +0.000 A 
ATOM     18  C   UNL     1       9.928  13.705  21.203  0.00  0.00    +0.000 A 
ATOM     19  C   UNL     1      10.165  12.910  20.069  0.00  0.00    +0.000 A 
ATOM     20  C   UNL     1       9.420  11.749  19.822  0.00  0.00    +0.000 A 
ENDBRANCH   8  11
ENDBRANCH   1   9
BRANCH   4  21
ATOM     21  O   UNL     1       6.029   3.992  17.686  0.00  0.00    +0.000 OA
BRANCH  21  22
ATOM     22  S   UNL     1       4.491   3.994  17.140  0.00  0.00    +0.000 S 
ATOM     23  O   UNL     1       4.466   4.529  15.790  0.00  0.00    +0.000 OA
ATOM     24  O   UNL     1       3.881   2.712  17.436  0.00  0.00    +0.000 OA
BRANCH  22  25
ATOM     25  C   UNL     1       3.675   5.196  18.178  0.00  0.00    +0.000 A 
ATOM     26  C   UNL     1       3.393   6.472  17.675  0.00  0.00    +0.000 A 
ATOM     27  C   UNL     1       2.674   7.380  18.456  0.00  0.00    +0.000 A 
ATOM     28  C   UNL     1       2.230   7.025  19.742  0.00  0.00    +0.000 A 
ATOM     29  C   UNL     1       2.515   5.738  20.230  0.00  0.00    +0.000 A 
ATOM     30  C   UNL     1       3.234   4.828  19.456  0.00  0.00    +0.000 A 
BRANCH  28  31
ATOM     31  C   UNL     1       1.441   7.988  20.602  0.00  0.00    +0.000 C 
ATOM     32  F   UNL     1       0.341   7.431  21.178  0.00  0.00    +0.000 F 
ATOM     33  F   UNL     1       2.188   8.488  21.626  0.00  0.00    +0.000 F 
ATOM     34  F   UNL     1       0.995   9.069  19.904  0.00  0.00    +0.000 F 
ENDBRANCH  28  31
ENDBRANCH  22  25
ENDBRANCH  21  22
ENDBRANCH   4  21
TORSDOF 6
ENDMDL
MODEL 8
REMARK VINA RESULT:      -8.7      3.311      4.520
REMARK  Name = 
REMARK  6 active torsions:
REMARK  status: ('A' for Active; 'I' for Inactive)
REMARK    1  A    between atoms: C_2  and  C_24
REMARK    2  A    between atoms: N_3  and  C_4
REMARK    3  A    between atoms: C_7  and  O_8
REMARK    4  A    between atoms: O_8  and  S_9
REMARK    5  A    between atoms: S_9  and  C_12
REMARK    6  A    between atoms: C_15  and  C_16
REMARK                            x       y       z     vdW  Elec       q    Type
REMARK                         _______ _______ _______ _____ _____    ______ ____
ROOT
ATOM      1  C   UNL     1       1.847   7.339  19.528  0.00  0.00    +0.000 A 
ATOM      2  C   UNL     1       1.782   6.456  20.609  0.00  0.00    +0.000 A 
ATOM      3  C   UNL     1       1.880   5.073  20.416  0.00  0.00    +0.000 A 
ATOM      4  C   UNL     1       2.029   4.550  19.133  0.00  0.00    +0.000 A 
ATOM      5  C   UNL     1       2.088   5.421  18.046  0.00  0.00    +0.000 A 
ATOM      6  C   UNL     1       1.979   6.808  18.242  0.00  0.00    +0.000 A 
ENDROOT
BRANCH   1   9
ATOM      7  O   UNL     1      -0.218   8.926  20.844  0.00  0.00    +0.000 OA
ATOM      8  C   UNL     1       0.737   9.433  20.264  0.00  0.00    +0.000 C 
ATOM      9  N   UNL     1       1.781   8.744  19.668  0.00  0.00    +0.000 N 
ATOM     10  H   UNL     1       2.616   9.266  19.442  0.00  0.00    +0.000 HD
BRANCH   8  11
ATOM     11  C   UNL     1       0.792  10.921  20.211  0.00  0.00    +0.000 A 
ATOM     12  C   UNL     1       0.295  11.726  21.239  0.00  0.00    +0.000 A 
ATOM     13  C   UNL     1       0.570  13.098  21.238  0.00  0.00    +0.000 A 
ATOM     14  C   UNL     1       1.344  13.678  20.217  0.00  0.00    +0.000 A 
ATOM     15  C   UNL     1       1.746  15.022  20.273  0.00  0.00    +0.000 A 
ATOM     16  C   UNL     1       2.523  15.579  19.256  0.00  0.00    +0.000 A 
ATOM     17  C   UNL     1       2.866  14.815  18.144  0.00  0.00    +0.000 A 
ATOM     18  C   UNL     1       2.486  13.476  18.078  0.00  0.00    +0.000 A 
ATOM     19  C   UNL     1       1.764  12.884  19.128  0.00  0.00    +0.000 A 
ATOM     20  C   UNL     1       1.488  11.510  19.143  0.00  0.00    +0.000 A 
ENDBRANCH   8  11
ENDBRANCH   1   9
BRANCH   4  21
ATOM     21  O   UNL     1       2.146   3.184  19.051  0.00  0.00    +0.000 OA
BRANCH  21  22
ATOM     22  S   UNL     1       3.597   2.448  19.185  0.00  0.00    +0.000 S 
ATOM     23  O   UNL     1       3.866   2.177  20.585  0.00  0.00    +0.000 OA
ATOM     24  O   UNL     1       3.684   1.389  18.198  0.00  0.00    +0.000 OA
BRANCH  22  25
ATOM     25  C   UNL     1       4.757   3.708  18.679  0.00  0.00    +0.000 A 
ATOM     26  C   UNL     1       4.976   3.945  17.316  0.00  0.00    +0.000 A 
ATOM     27  C   UNL     1       5.814   4.990  16.922  0.00  0.00    +0.000 A 
ATOM     28  C   UNL     1       6.440   5.808  17.880  0.00  0.00    +0.000 A 
ATOM     29  C   UNL     1       6.204   5.562  19.243  0.00  0.00    +0.000 A 
ATOM     30  C   UNL     1       5.370   4.519  19.644  0.00  0.00    +0.000 A 
BRANCH  28  31
ATOM     31  C   UNL     1       7.343   6.953  17.477  0.00  0.00    +0.000 C 
ATOM     32  F   UNL     1       7.960   6.766  16.278  0.00  0.00    +0.000 F 
ATOM     33  F   UNL     1       6.662   8.128  17.370  0.00  0.00    +0.000 F 
ATOM     34  F   UNL     1       8.336   7.180  18.381  0.00  0.00    +0.000 F 
ENDBRANCH  28  31
ENDBRANCH  22  25
ENDBRANCH  21  22
ENDBRANCH   4  21
TORSDOF 6
ENDMDL
MODEL 9
REMARK VINA RESULT:      -8.7      6.609     12.387
REMARK  Name = 
REMARK  6 active torsions:
REMARK  status: ('A' for Active; 'I' for Inactive)
REMARK    1  A    between atoms: C_2  and  C_24
REMARK    2  A    between atoms: N_3  and  C_4
REMARK    3  A    between atoms: C_7  and  O_8
REMARK    4  A    between atoms: O_8  and  S_9
REMARK    5  A    between atoms: S_9  and  C_12
REMARK    6  A    between atoms: C_15  and  C_16
REMARK                            x       y       z     vdW  Elec       q    Type
REMARK                         _______ _______ _______ _____ _____    ______ ____
ROOT
ATOM      1  C   UNL     1       0.851  10.184  18.894  0.00  0.00    +0.000 A 
ATOM      2  C   UNL     1      -0.411  10.186  19.492  0.00  0.00    +0.000 A 
ATOM      3  C   UNL     1      -1.050  11.389  19.818  0.00  0.00    +0.000 A 
ATOM      4  C   UNL     1      -0.427  12.609  19.565  0.00  0.00    +0.000 A 
ATOM      5  C   UNL     1       0.837  12.618  18.974  0.00  0.00    +0.000 A 
ATOM      6  C   UNL     1       1.480  11.410  18.658  0.00  0.00    +0.000 A 
ENDROOT
BRANCH   1   9
ATOM      7  O   UNL     1       1.691   7.968  20.596  0.00  0.00    +0.000 OA
ATOM      8  C   UNL     1       1.944   8.013  19.397  0.00  0.00    +0.000 C 
ATOM      9  N   UNL     1       1.530   9.001  18.519  0.00  0.00    +0.000 N 
ATOM     10  H   UNL     1       1.592   8.804  17.530  0.00  0.00    +0.000 HD
BRANCH   8  11
ATOM     11  C   UNL     1       2.751   6.897  18.827  0.00  0.00    +0.000 A 
ATOM     12  C   UNL     1       2.551   5.564  19.195  0.00  0.00    +0.000 A 
ATOM     13  C   UNL     1       3.179   4.545  18.472  0.00  0.00    +0.000 A 
ATOM     14  C   UNL     1       4.006   4.843  17.374  0.00  0.00    +0.000 A 
ATOM     15  C   UNL     1       4.531   3.832  16.553  0.00  0.00    +0.000 A 
ATOM     16  C   UNL     1       5.341   4.146  15.460  0.00  0.00    +0.000 A 
ATOM     17  C   UNL     1       5.680   5.472  15.204  0.00  0.00    +0.000 A 
ATOM     18  C   UNL     1       5.159   6.489  16.002  0.00  0.00    +0.000 A 
ATOM     19  C   UNL     1       4.284   6.191  17.061  0.00  0.00    +0.000 A 
ATOM     20  C   UNL     1       3.646   7.204  17.789  0.00  0.00    +0.000 A 
ENDBRANCH   8  11
ENDBRANCH   1   9
BRANCH   4  21
ATOM     21  O   UNL     1      -1.148  13.731  19.893  0.00  0.00    +0.000 OA
BRANCH  21  22
ATOM     22  S   UNL     1      -1.029  14.410  21.373  0.00  0.00    +0.000 S 
ATOM     23  O   UNL     1       0.005  13.727  22.129  0.00  0.00    +0.000 OA
ATOM     24  O   UNL     1      -1.007  15.854  21.232  0.00  0.00    +0.000 OA
BRANCH  22  25
ATOM     25  C   UNL     1      -2.583  14.001  22.152  0.00  0.00    +0.000 A 
ATOM     26  C   UNL     1      -3.775  14.534  21.647  0.00  0.00    +0.000 A 
ATOM     27  C   UNL     1      -4.997  14.141  22.199  0.00  0.00    +0.000 A 
ATOM     28  C   UNL     1      -5.041  13.216  23.258  0.00  0.00    +0.000 A 
ATOM     29  C   UNL     1      -3.836  12.685  23.749  0.00  0.00    +0.000 A 
ATOM     30  C   UNL     1      -2.613  13.074  23.203  0.00  0.00    +0.000 A 
BRANCH  28  31
ATOM     31  C   UNL     1      -6.352  12.768  23.865  0.00  0.00    +0.000 C 
ATOM     32  F   UNL     1      -7.098  13.789  24.368  0.00  0.00    +0.000 F 
ATOM     33  F   UNL     1      -7.145  12.134  22.957  0.00  0.00    +0.000 F 
ATOM     34  F   UNL     1      -6.180  11.886  24.889  0.00  0.00    +0.000 F 
ENDBRANCH  28  31
ENDBRANCH  22  25
ENDBRANCH  21  22
ENDBRANCH   4  21
TORSDOF 6
ENDMDL
