MODEL 1
REMARK VINA RESULT:      -8.4      0.000      0.000
REMARK  Name = 
REMARK  9 active torsions:
REMARK  status: ('A' for Active; 'I' for Inactive)
REMARK    1  A    between atoms: C_2  and  C_4
REMARK    2  A    between atoms: C_7  and  N_8
REMARK    3  A    between atoms: C_9  and  C_11
REMARK    4  A    between atoms: C_11  and  C_12
REMARK    5  A    between atoms: C_12  and  C_13
REMARK    6  A    between atoms: C_13  and  C_14
REMARK    7  A    between atoms: C_14  and  C_15
REMARK    8  A    between atoms: N_17  and  C_18
REMARK    9  A    between atoms: C_22  and  C_23
REMARK                            x       y       z     vdW  Elec       q    Type
REMARK                         _______ _______ _______ _____ _____    ______ ____
ROOT
ATOM      1  C   UNL     1       0.878   4.157  20.441  0.00  0.00    +0.000 C 
ENDROOT
BRANCH   1   2
ATOM      2  C   UNL     1       2.130   4.922  20.860  0.00  0.00    +0.000 C 
BRANCH   2   4
ATOM      3  N   UNL     1       1.423   7.234  20.908  0.00  0.00    +0.000 N 
ATOM      4  C   UNL     1       2.184   6.295  20.234  0.00  0.00    +0.000 C 
ATOM      5  O   UNL     1       2.899   6.494  19.255  0.00  0.00    +0.000 OA
ATOM      6  H   UNL     1       1.049   6.970  21.810  0.00  0.00    +0.000 HD
BRANCH   3  10
ATOM      7  C   UNL     1       0.918  11.281  19.855  0.00  0.00    +0.000 A 
ATOM      8  C   UNL     1       1.139  10.335  18.854  0.00  0.00    +0.000 A 
ATOM      9  C   UNL     1       1.306   8.991  19.188  0.00  0.00    +0.000 A 
ATOM     10  C   UNL     1       1.241   8.576  20.520  0.00  0.00    +0.000 A 
ATOM     11  C   UNL     1       0.967   9.520  21.517  0.00  0.00    +0.000 A 
ATOM     12  C   UNL     1       0.824  10.873  21.189  0.00  0.00    +0.000 A 
BRANCH   7  14
ATOM     13  N   UNL     1       0.710  13.607  20.414  0.00  0.00    +0.000 NA
ATOM     14  C   UNL     1       0.786  12.715  19.483  0.00  0.00    +0.000 C 
ATOM     15  N   UNL     1       0.720  13.077  18.169  0.00  0.00    +0.000 N 
ATOM     16  H   UNL     1       0.655  14.539  20.002  0.00  0.00    +0.000 HD
ATOM     17  H   UNL     1       0.297  13.980  17.994  0.00  0.00    +0.000 HD
ATOM     18  H   UNL     1       0.344  12.367  17.547  0.00  0.00    +0.000 HD
ENDBRANCH   7  14
ENDBRANCH   3  10
ENDBRANCH   2   4
ENDBRANCH   1   2
BRANCH   1  19
ATOM     19  C   UNL     1       1.186   2.719  20.030  0.00  0.00    +0.000 C 
BRANCH  19  20
ATOM     20  C   UNL     1       1.595   2.610  18.565  0.00  0.00    +0.000 C 
BRANCH  20  21
ATOM     21  C   UNL     1       3.094   2.708  18.400  0.00  0.00    +0.000 C 
ATOM     22  O   UNL     1       3.816   1.803  18.806  0.00  0.00    +0.000 OA
ATOM     23  N   UNL     1       3.500   3.891  17.803  0.00  0.00    +0.000 N 
ATOM     24  H   UNL     1       2.805   4.621  17.703  0.00  0.00    +0.000 HD
BRANCH  23  25
ATOM     25  C   UNL     1       4.823   4.226  17.454  0.00  0.00    +0.000 A 
ATOM     26  C   UNL     1       5.379   3.904  16.215  0.00  0.00    +0.000 A 
ATOM     27  C   UNL     1       6.698   4.238  15.915  0.00  0.00    +0.000 A 
ATOM     28  C   UNL     1       7.484   4.895  16.858  0.00  0.00    +0.000 A 
ATOM     29  C   UNL     1       6.942   5.224  18.104  0.00  0.00    +0.000 A 
ATOM     30  C   UNL     1       5.603   4.914  18.392  0.00  0.00    +0.000 A 
BRANCH  29  31
ATOM     31  C   UNL     1       7.790   5.882  19.139  0.00  0.00    +0.000 C 
ATOM     32  N   UNL     1       7.997   5.371  20.310  0.00  0.00    +0.000 NA
ATOM     33  N   UNL     1       8.401   7.072  18.883  0.00  0.00    +0.000 N 
ATOM     34  H   UNL     1       7.463   4.507  20.441  0.00  0.00    +0.000 HD
ATOM     35  H   UNL     1       8.788   7.181  17.955  0.00  0.00    +0.000 HD
ATOM     36  H   UNL     1       9.086   7.275  19.608  0.00  0.00    +0.000 HD
ENDBRANCH  29  31
ENDBRANCH  23  25
ENDBRANCH  20  21
ENDBRANCH  19  20
ENDBRANCH   1  19
TORSDOF 9
ENDMDL
MODEL 2
REMARK VINA RESULT:      -8.3      2.097      2.623
REMARK  Name = 
REMARK  9 active torsions:
REMARK  status: ('A' for Active; 'I' for Inactive)
REMARK    1  A    between atoms: C_2  and  C_4
REMARK    2  A    between atoms: C_7  and  N_8
REMARK    3  A    between atoms: C_9  and  C_11
REMARK    4  A    between atoms: C_11  and  C_12
REMARK    5  A    between atoms: C_12  and  C_13
REMARK    6  A    between atoms: C_13  and  C_14
REMARK    7  A    between atoms: C_14  and  C_15
REMARK    8  A    between atoms: N_17  and  C_18
REMARK    9  A    between atoms: C_22  and  C_23
REMARK                            x       y       z     vdW  Elec       q    Type
REMARK                         _______ _______ _______ _____ _____    ______ ____
ROOT
ATOM      1  C   UNL     1       1.969   3.302  21.311  0.00  0.00    +0.000 C 
ENDROOT
BRANCH   1   2
ATOM      2  C   UNL     1       2.574   4.703  21.351  0.00  0.00    +0.000 C 
BRANCH   2   4
ATOM      3  N   UNL     1       2.149   7.005  20.746  0.00  0.00    +0.000 N 
ATOM      4  C   UNL     1       1.747   5.693  20.567  0.00  0.00    +0.000 C 
ATOM      5  O   UNL     1       0.856   5.293  19.822  0.00  0.00    +0.000 OA
ATOM      6  H   UNL     1       3.022   7.163  21.232  0.00  0.00    +0.000 HD
BRANCH   3  10
ATOM      7  C   UNL     1       0.277  10.440  19.184  0.00  0.00    +0.000 A 
ATOM      8  C   UNL     1       1.187   9.737  18.395  0.00  0.00    +0.000 A 
ATOM      9  C   UNL     1       1.813   8.597  18.898  0.00  0.00    +0.000 A 
ATOM     10  C   UNL     1       1.528   8.139  20.187  0.00  0.00    +0.000 A 
ATOM     11  C   UNL     1       0.576   8.818  20.957  0.00  0.00    +0.000 A 
ATOM     12  C   UNL     1      -0.037   9.976  20.465  0.00  0.00    +0.000 A 
BRANCH   7  14
ATOM     13  N   UNL     1      -1.632  11.801  18.667  0.00  0.00    +0.000 NA
ATOM     14  C   UNL     1      -0.347  11.678  18.645  0.00  0.00    +0.000 C 
ATOM     15  N   UNL     1       0.435  12.661  18.111  0.00  0.00    +0.000 N 
ATOM     16  H   UNL     1      -1.903  12.712  18.294  0.00  0.00    +0.000 HD
ATOM     17  H   UNL     1      -0.041  13.287  17.473  0.00  0.00    +0.000 HD
ATOM     18  H   UNL     1       1.319  12.343  17.724  0.00  0.00    +0.000 HD
ENDBRANCH   7  14
ENDBRANCH   3  10
ENDBRANCH   2   4
ENDBRANCH   1   2
BRANCH   1  19
ATOM     19  C   UNL     1       2.834   2.318  20.527  0.00  0.00    +0.000 C 
BRANCH  19  20
ATOM     20  C   UNL     1       2.202   1.924  19.196  0.00  0.00    +0.000 C 
BRANCH  20  21
ATOM     21  C   UNL     1       2.564   2.900  18.101  0.00  0.00    +0.000 C 
ATOM     22  O   UNL     1       1.818   3.042  17.136  0.00  0.00    +0.000 OA
ATOM     23  N   UNL     1       3.779   3.531  18.311  0.00  0.00    +0.000 N 
ATOM     24  H   UNL     1       4.369   3.165  19.050  0.00  0.00    +0.000 HD
BRANCH  23  25
ATOM     25  C   UNL     1       4.335   4.541  17.501  0.00  0.00    +0.000 A 
ATOM     26  C   UNL     1       4.067   5.896  17.699  0.00  0.00    +0.000 A 
ATOM     27  C   UNL     1       4.624   6.863  16.864  0.00  0.00    +0.000 A 
ATOM     28  C   UNL     1       5.452   6.484  15.810  0.00  0.00    +0.000 A 
ATOM     29  C   UNL     1       5.730   5.130  15.600  0.00  0.00    +0.000 A 
ATOM     30  C   UNL     1       5.193   4.160  16.461  0.00  0.00    +0.000 A 
BRANCH  29  31
ATOM     31  C   UNL     1       6.574   4.711  14.445  0.00  0.00    +0.000 C 
ATOM     32  N   UNL     1       7.620   5.368  14.060  0.00  0.00    +0.000 NA
ATOM     33  N   UNL     1       6.273   3.587  13.736  0.00  0.00    +0.000 N 
ATOM     34  H   UNL     1       7.747   6.224  14.608  0.00  0.00    +0.000 HD
ATOM     35  H   UNL     1       5.955   2.794  14.279  0.00  0.00    +0.000 HD
ATOM     36  H   UNL     1       7.048   3.344  13.124  0.00  0.00    +0.000 HD
ENDBRANCH  29  31
ENDBRANCH  23  25
ENDBRANCH  20  21
ENDBRANCH  19  20
ENDBRANCH   1  19
TORSDOF 9
ENDMDL
MODEL 3
REMARK VINA RESULT:      -8.3      2.036      2.692
REMARK  Name = 
REMARK  9 active torsions:
REMARK  status: ('A' for Active; 'I' for Inactive)
REMARK    1  A    between atoms: C_2  and  C_4
REMARK    2  A    between atoms: C_7  and  N_8
REMARK    3  A    between atoms: C_9  and  C_11
REMARK    4  A    between atoms: C_11  and  C_12
REMARK    5  A    between atoms: C_12  and  C_13
REMARK    6  A    between atoms: C_13  and  C_14
REMARK    7  A    between atoms: C_14  and  C_15
REMARK    8  A    between atoms: N_17  and  C_18
REMARK    9  A    between atoms: C_22  and  C_23
REMARK                            x       y       z     vdW  Elec       q    Type
REMARK                         _______ _______ _______ _____ _____    ______ ____
ROOT
ATOM      1  C   UNL     1       1.542   2.665  20.951  0.00  0.00    +0.000 C 
ENDROOT
BRANCH   1   2
ATOM      2  C   UNL     1       2.412   3.902  21.153  0.00  0.00    +0.000 C 
BRANCH   2   4
ATOM      3  N   UNL     1       2.617   6.059  20.079  0.00  0.00    +0.000 N 
ATOM      4  C   UNL     1       1.736   5.152  20.640  0.00  0.00    +0.000 C 
ATOM      5  O   UNL     1       0.514   5.256  20.701  0.00  0.00    +0.000 OA
ATOM      6  H   UNL     1       3.567   5.750  19.919  0.00  0.00    +0.000 HD
BRANCH   3  10
ATOM      7  C   UNL     1       1.611   9.902  18.679  0.00  0.00    +0.000 A 
ATOM      8  C   UNL     1       2.224   8.997  17.814  0.00  0.00    +0.000 A 
ATOM      9  C   UNL     1       2.562   7.720  18.263  0.00  0.00    +0.000 A 
ATOM     10  C   UNL     1       2.278   7.330  19.574  0.00  0.00    +0.000 A 
ATOM     11  C   UNL     1       1.616   8.223  20.424  0.00  0.00    +0.000 A 
ATOM     12  C   UNL     1       1.298   9.514  19.985  0.00  0.00    +0.000 A 
BRANCH   7  14
ATOM     13  N   UNL     1       0.072  11.674  18.173  0.00  0.00    +0.000 NA
ATOM     14  C   UNL     1       1.300  11.273  18.194  0.00  0.00    +0.000 C 
ATOM     15  N   UNL     1       2.303  12.087  17.752  0.00  0.00    +0.000 N 
ATOM     16  H   UNL     1       0.025  12.640  17.847  0.00  0.00    +0.000 HD
ATOM     17  H   UNL     1       2.007  12.834  17.137  0.00  0.00    +0.000 HD
ATOM     18  H   UNL     1       3.115  11.603  17.381  0.00  0.00    +0.000 HD
ENDBRANCH   7  14
ENDBRANCH   3  10
ENDBRANCH   2   4
ENDBRANCH   1   2
BRANCH   1  19
ATOM     19  C   UNL     1       0.933   2.605  19.551  0.00  0.00    +0.000 C 
BRANCH  19  20
ATOM     20  C   UNL     1       1.916   2.072  18.514  0.00  0.00    +0.000 C 
BRANCH  20  21
ATOM     21  C   UNL     1       2.715   3.188  17.883  0.00  0.00    +0.000 C 
ATOM     22  O   UNL     1       2.137   4.137  17.362  0.00  0.00    +0.000 OA
ATOM     23  N   UNL     1       4.083   2.979  17.942  0.00  0.00    +0.000 N 
ATOM     24  H   UNL     1       4.400   2.060  18.226  0.00  0.00    +0.000 HD
BRANCH  23  25
ATOM     25  C   UNL     1       5.074   3.881  17.505  0.00  0.00    +0.000 A 
ATOM     26  C   UNL     1       5.611   4.868  18.333  0.00  0.00    +0.000 A 
ATOM     27  C   UNL     1       6.578   5.752  17.856  0.00  0.00    +0.000 A 
ATOM     28  C   UNL     1       7.014   5.664  16.537  0.00  0.00    +0.000 A 
ATOM     29  C   UNL     1       6.486   4.681  15.696  0.00  0.00    +0.000 A 
ATOM     30  C   UNL     1       5.535   3.772  16.187  0.00  0.00    +0.000 A 
BRANCH  29  31
ATOM     31  C   UNL     1       6.910   4.612  14.268  0.00  0.00    +0.000 C 
ATOM     32  N   UNL     1       6.484   3.704  13.449  0.00  0.00    +0.000 NA
ATOM     33  N   UNL     1       7.778   5.528  13.755  0.00  0.00    +0.000 N 
ATOM     34  H   UNL     1       5.880   3.027  13.922  0.00  0.00    +0.000 HD
ATOM     35  H   UNL     1       7.647   6.483  14.063  0.00  0.00    +0.000 HD
ATOM     36  H   UNL     1       7.803   5.454  12.741  0.00  0.00    +0.000 HD
ENDBRANCH  29  31
ENDBRANCH  23  25
ENDBRANCH  20  21
ENDBRANCH  19  20
ENDBRANCH   1  19
TORSDOF 9
ENDMDL
MODEL 4
REMARK VINA RESULT:      -8.2      0.658      1.302
REMARK  Name = 
REMARK  9 active torsions:
REMARK  status: ('A' for Active; 'I' for Inactive)
REMARK    1  A    between atoms: C_2  and  C_4
REMARK    2  A    between atoms: C_7  and  N_8
REMARK    3  A    between atoms: C_9  and  C_11
REMARK    4  A    between atoms: C_11  and  C_12
REMARK    5  A    between atoms: C_12  and  C_13
REMARK    6  A    between atoms: C_13  and  C_14
REMARK    7  A    between atoms: C_14  and  C_15
REMARK    8  A    between atoms: N_17  and  C_18
REMARK    9  A    between atoms: C_22  and  C_23
REMARK                            x       y       z     vdW  Elec       q    Type
REMARK                         _______ _______ _______ _____ _____    ______ ____
ROOT
ATOM      1  C   UNL     1       1.031   4.138  20.422  0.00  0.00    +0.000 C 
ENDROOT
BRANCH   1   2
ATOM      2  C   UNL     1       1.982   5.162  21.035  0.00  0.00    +0.000 C 
BRANCH   2   4
ATOM      3  N   UNL     1       1.433   7.512  20.877  0.00  0.00    +0.000 N 
ATOM      4  C   UNL     1       2.023   6.440  20.231  0.00  0.00    +0.000 C 
ATOM      5  O   UNL     1       2.590   6.460  19.141  0.00  0.00    +0.000 OA
ATOM      6  H   UNL     1       1.187   7.392  21.851  0.00  0.00    +0.000 HD
BRANCH   3  10
ATOM      7  C   UNL     1       0.932  11.335  19.182  0.00  0.00    +0.000 A 
ATOM      8  C   UNL     1       0.763  11.168  20.556  0.00  0.00    +0.000 A 
ATOM      9  C   UNL     1       0.928   9.908  21.131  0.00  0.00    +0.000 A 
ATOM     10  C   UNL     1       1.276   8.807  20.345  0.00  0.00    +0.000 A 
ATOM     11  C   UNL     1       1.495   8.989  18.974  0.00  0.00    +0.000 A 
ATOM     12  C   UNL     1       1.307  10.246  18.389  0.00  0.00    +0.000 A 
BRANCH   7  14
ATOM     13  N   UNL     1      -0.452  12.970  18.097  0.00  0.00    +0.000 NA
ATOM     14  C   UNL     1       0.709  12.677  18.581  0.00  0.00    +0.000 C 
ATOM     15  N   UNL     1       1.733  13.578  18.521  0.00  0.00    +0.000 N 
ATOM     16  H   UNL     1      -0.455  13.931  17.752  0.00  0.00    +0.000 HD
ATOM     17  H   UNL     1       1.626  14.302  17.821  0.00  0.00    +0.000 HD
ATOM     18  H   UNL     1       2.662  13.170  18.490  0.00  0.00    +0.000 HD
ENDBRANCH   7  14
ENDBRANCH   3  10
ENDBRANCH   2   4
ENDBRANCH   1   2
BRANCH   1  19
ATOM     19  C   UNL     1       1.587   2.716  20.490  0.00  0.00    +0.000 C 
BRANCH  19  20
ATOM     20  C   UNL     1       1.725   2.082  19.110  0.00  0.00    +0.000 C 
BRANCH  20  21
ATOM     21  C   UNL     1       3.132   2.215  18.577  0.00  0.00    +0.000 C 
ATOM     22  O   UNL     1       3.806   1.211  18.369  0.00  0.00    +0.000 OA
ATOM     23  N   UNL     1       3.528   3.532  18.406  0.00  0.00    +0.000 N 
ATOM     24  H   UNL     1       2.935   4.249  18.804  0.00  0.00    +0.000 HD
BRANCH  23  25
ATOM     25  C   UNL     1       4.753   3.959  17.855  0.00  0.00    +0.000 A 
ATOM     26  C   UNL     1       5.128   3.671  16.542  0.00  0.00    +0.000 A 
ATOM     27  C   UNL     1       6.357   4.098  16.041  0.00  0.00    +0.000 A 
ATOM     28  C   UNL     1       7.233   4.814  16.854  0.00  0.00    +0.000 A 
ATOM     29  C   UNL     1       6.870   5.110  18.171  0.00  0.00    +0.000 A 
ATOM     30  C   UNL     1       5.620   4.706  18.663  0.00  0.00    +0.000 A 
BRANCH  29  31
ATOM     31  C   UNL     1       7.821   5.832  19.064  0.00  0.00    +0.000 C 
ATOM     32  N   UNL     1       8.261   7.023  18.812  0.00  0.00    +0.000 NA
ATOM     33  N   UNL     1       8.271   5.253  20.213  0.00  0.00    +0.000 N 
ATOM     34  H   UNL     1       7.919   7.364  17.910  0.00  0.00    +0.000 HD
ATOM     35  H   UNL     1       7.587   4.724  20.739  0.00  0.00    +0.000 HD
ATOM     36  H   UNL     1       8.743   5.945  20.789  0.00  0.00    +0.000 HD
ENDBRANCH  29  31
ENDBRANCH  23  25
ENDBRANCH  20  21
ENDBRANCH  19  20
ENDBRANCH   1  19
TORSDOF 9
ENDMDL
MODEL 5
REMARK VINA RESULT:      -8.0      1.602      2.345
REMARK  Name = 
REMARK  9 active torsions:
REMARK  status: ('A' for Active; 'I' for Inactive)
REMARK    1  A    between atoms: C_2  and  C_4
REMARK    2  A    between atoms: C_7  and  N_8
REMARK    3  A    between atoms: C_9  and  C_11
REMARK    4  A    between atoms: C_11  and  C_12
REMARK    5  A    between atoms: C_12  and  C_13
REMARK    6  A    between atoms: C_13  and  C_14
REMARK    7  A    between atoms: C_14  and  C_15
REMARK    8  A    between atoms: N_17  and  C_18
REMARK    9  A    between atoms: C_22  and  C_23
REMARK                            x       y       z     vdW  Elec       q    Type
REMARK                         _______ _______ _______ _____ _____    ______ ____
ROOT
ATOM      1  C   UNL     1       1.271   3.801  20.705  0.00  0.00    +0.000 C 
ENDROOT
BRANCH   1   2
ATOM      2  C   UNL     1       2.474   4.630  21.147  0.00  0.00    +0.000 C 
BRANCH   2   4
ATOM      3  N   UNL     1       1.580   6.868  20.948  0.00  0.00    +0.000 N 
ATOM      4  C   UNL     1       2.514   5.972  20.457  0.00  0.00    +0.000 C 
ATOM      5  O   UNL     1       3.357   6.192  19.591  0.00  0.00    +0.000 OA
ATOM      6  H   UNL     1       1.089   6.612  21.795  0.00  0.00    +0.000 HD
BRANCH   3  10
ATOM      7  C   UNL     1       0.924  10.801  19.592  0.00  0.00    +0.000 A 
ATOM      8  C   UNL     1       1.296   9.815  18.679  0.00  0.00    +0.000 A 
ATOM      9  C   UNL     1       1.515   8.508  19.114  0.00  0.00    +0.000 A 
ATOM     10  C   UNL     1       1.351   8.168  20.459  0.00  0.00    +0.000 A 
ATOM     11  C   UNL     1       0.927   9.150  21.363  0.00  0.00    +0.000 A 
ATOM     12  C   UNL     1       0.730  10.468  20.936  0.00  0.00    +0.000 A 
BRANCH   7  14
ATOM     13  N   UNL     1       0.096  12.413  18.017  0.00  0.00    +0.000 NA
ATOM     14  C   UNL     1       0.738  12.198  19.116  0.00  0.00    +0.000 C 
ATOM     15  N   UNL     1       1.267  13.237  19.825  0.00  0.00    +0.000 N 
ATOM     16  H   UNL     1       0.026  13.416  17.843  0.00  0.00    +0.000 HD
ATOM     17  H   UNL     1       1.407  14.089  19.296  0.00  0.00    +0.000 HD
ATOM     18  H   UNL     1       2.088  13.007  20.376  0.00  0.00    +0.000 HD
ENDBRANCH   7  14
ENDBRANCH   3  10
ENDBRANCH   2   4
ENDBRANCH   1   2
BRANCH   1  19
ATOM     19  C   UNL     1       1.038   3.875  19.197  0.00  0.00    +0.000 C 
BRANCH  19  20
ATOM     20  C   UNL     1       1.533   2.628  18.473  0.00  0.00    +0.000 C 
BRANCH  20  21
ATOM     21  C   UNL     1       3.032   2.649  18.293  0.00  0.00    +0.000 C 
ATOM     22  O   UNL     1       3.710   1.703  18.682  0.00  0.00    +0.000 OA
ATOM     23  N   UNL     1       3.494   3.816  17.705  0.00  0.00    +0.000 N 
ATOM     24  H   UNL     1       2.838   4.583  17.620  0.00  0.00    +0.000 HD
BRANCH  23  25
ATOM     25  C   UNL     1       4.830   4.085  17.346  0.00  0.00    +0.000 A 
ATOM     26  C   UNL     1       5.821   4.365  18.287  0.00  0.00    +0.000 A 
ATOM     27  C   UNL     1       7.127   4.643  17.889  0.00  0.00    +0.000 A 
ATOM     28  C   UNL     1       7.458   4.652  16.536  0.00  0.00    +0.000 A 
ATOM     29  C   UNL     1       6.477   4.373  15.581  0.00  0.00    +0.000 A 
ATOM     30  C   UNL     1       5.169   4.062  15.986  0.00  0.00    +0.000 A 
BRANCH  29  31
ATOM     31  C   UNL     1       6.809   4.429  14.128  0.00  0.00    +0.000 C 
ATOM     32  N   UNL     1       6.332   3.594  13.263  0.00  0.00    +0.000 NA
ATOM     33  N   UNL     1       7.642   5.392  13.643  0.00  0.00    +0.000 N 
ATOM     34  H   UNL     1       5.760   2.874  13.713  0.00  0.00    +0.000 HD
ATOM     35  H   UNL     1       7.530   6.316  14.041  0.00  0.00    +0.000 HD
ATOM     36  H   UNL     1       7.602   5.406  12.627  0.00  0.00    +0.000 HD
ENDBRANCH  29  31
ENDBRANCH  23  25
ENDBRANCH  20  21
ENDBRANCH  19  20
ENDBRANCH   1  19
TORSDOF 9
ENDMDL
MODEL 6
REMARK VINA RESULT:      -7.9      2.305      3.369
REMARK  Name = 
REMARK  9 active torsions:
REMARK  status: ('A' for Active; 'I' for Inactive)
REMARK    1  A    between atoms: C_2  and  C_4
REMARK    2  A    between atoms: C_7  and  N_8
REMARK    3  A    between atoms: C_9  and  C_11
REMARK    4  A    between atoms: C_11  and  C_12
REMARK    5  A    between atoms: C_12  and  C_13
REMARK    6  A    between atoms: C_13  and  C_14
REMARK    7  A    between atoms: C_14  and  C_15
REMARK    8  A    between atoms: N_17  and  C_18
REMARK    9  A    between atoms: C_22  and  C_23
REMARK                            x       y       z     vdW  Elec       q    Type
REMARK                         _______ _______ _______ _____ _____    ______ ____
ROOT
ATOM      1  C   UNL     1       2.202   2.021  20.888  0.00  0.00    +0.000 C 
ENDROOT
BRANCH   1   2
ATOM      2  C   UNL     1       2.255   3.325  21.679  0.00  0.00    +0.000 C 
BRANCH   2   4
ATOM      3  N   UNL     1       2.467   5.577  20.825  0.00  0.00    +0.000 N 
ATOM      4  C   UNL     1       1.640   4.471  20.911  0.00  0.00    +0.000 C 
ATOM      5  O   UNL     1       0.533   4.340  20.397  0.00  0.00    +0.000 OA
ATOM      6  H   UNL     1       3.427   5.467  21.125  0.00  0.00    +0.000 HD
BRANCH   3  10
ATOM      7  C   UNL     1       1.481   9.197  18.911  0.00  0.00    +0.000 A 
ATOM      8  C   UNL     1       1.077   8.988  20.229  0.00  0.00    +0.000 A 
ATOM      9  C   UNL     1       1.398   7.794  20.876  0.00  0.00    +0.000 A 
ATOM     10  C   UNL     1       2.136   6.806  20.220  0.00  0.00    +0.000 A 
ATOM     11  C   UNL     1       2.584   7.041  18.915  0.00  0.00    +0.000 A 
ATOM     12  C   UNL     1       2.243   8.227  18.253  0.00  0.00    +0.000 A 
BRANCH   7  14
ATOM     13  N   UNL     1      -0.161  10.750  18.100  0.00  0.00    +0.000 NA
ATOM     14  C   UNL     1       1.091  10.457  18.224  0.00  0.00    +0.000 C 
ATOM     15  N   UNL     1       2.050  11.281  17.709  0.00  0.00    +0.000 N 
ATOM     16  H   UNL     1      -0.264  11.655  17.638  0.00  0.00    +0.000 HD
ATOM     17  H   UNL     1       1.730  11.909  16.983  0.00  0.00    +0.000 HD
ATOM     18  H   UNL     1       2.914  10.818  17.441  0.00  0.00    +0.000 HD
ENDBRANCH   7  14
ENDBRANCH   3  10
ENDBRANCH   2   4
ENDBRANCH   1   2
BRANCH   1  19
ATOM     19  C   UNL     1       3.077   2.065  19.637  0.00  0.00    +0.000 C 
BRANCH  19  20
ATOM     20  C   UNL     1       2.256   2.209  18.360  0.00  0.00    +0.000 C 
BRANCH  20  21
ATOM     21  C   UNL     1       2.986   3.027  17.321  0.00  0.00    +0.000 C 
ATOM     22  O   UNL     1       2.363   3.541  16.397  0.00  0.00    +0.000 OA
ATOM     23  N   UNL     1       4.355   3.077  17.529  0.00  0.00    +0.000 N 
ATOM     24  H   UNL     1       4.742   2.444  18.218  0.00  0.00    +0.000 HD
BRANCH  23  25
ATOM     25  C   UNL     1       5.278   3.824  16.769  0.00  0.00    +0.000 A 
ATOM     26  C   UNL     1       5.968   4.919  17.289  0.00  0.00    +0.000 A 
ATOM     27  C   UNL     1       6.860   5.641  16.499  0.00  0.00    +0.000 A 
ATOM     28  C   UNL     1       7.066   5.281  15.169  0.00  0.00    +0.000 A 
ATOM     29  C   UNL     1       6.381   4.187  14.634  0.00  0.00    +0.000 A 
ATOM     30  C   UNL     1       5.507   3.441  15.441  0.00  0.00    +0.000 A 
BRANCH  29  31
ATOM     31  C   UNL     1       6.556   3.824  13.198  0.00  0.00    +0.000 C 
ATOM     32  N   UNL     1       6.000   2.786  12.660  0.00  0.00    +0.000 NA
ATOM     33  N   UNL     1       7.320   4.594  12.375  0.00  0.00    +0.000 N 
ATOM     34  H   UNL     1       5.489   2.234  13.354  0.00  0.00    +0.000 HD
ATOM     35  H   UNL     1       7.240   5.595  12.504  0.00  0.00    +0.000 HD
ATOM     36  H   UNL     1       7.172   4.321  11.407  0.00  0.00    +0.000 HD
ENDBRANCH  29  31
ENDBRANCH  23  25
ENDBRANCH  20  21
ENDBRANCH  19  20
ENDBRANCH   1  19
TORSDOF 9
ENDMDL
MODEL 7
REMARK VINA RESULT:      -7.8      1.098      1.598
REMARK  Name = 
REMARK  9 active torsions:
REMARK  status: ('A' for Active; 'I' for Inactive)
REMARK    1  A    between atoms: C_2  and  C_4
REMARK    2  A    between atoms: C_7  and  N_8
REMARK    3  A    between atoms: C_9  and  C_11
REMARK    4  A    between atoms: C_11  and  C_12
REMARK    5  A    between atoms: C_12  and  C_13
REMARK    6  A    between atoms: C_13  and  C_14
REMARK    7  A    between atoms: C_14  and  C_15
REMARK    8  A    between atoms: N_17  and  C_18
REMARK    9  A    between atoms: C_22  and  C_23
REMARK                            x       y       z     vdW  Elec       q    Type
REMARK                         _______ _______ _______ _____ _____    ______ ____
ROOT
ATOM      1  C   UNL     1       2.519   3.287  20.480  0.00  0.00    +0.000 C 
ENDROOT
BRANCH   1   2
ATOM      2  C   UNL     1       1.919   4.506  21.176  0.00  0.00    +0.000 C 
BRANCH   2   4
ATOM      3  N   UNL     1       1.378   6.813  20.691  0.00  0.00    +0.000 N 
ATOM      4  C   UNL     1       2.284   5.790  20.469  0.00  0.00    +0.000 C 
ATOM      5  O   UNL     1       3.327   5.860  19.824  0.00  0.00    +0.000 OA
ATOM      6  H   UNL     1       0.676   6.667  21.404  0.00  0.00    +0.000 HD
BRANCH   3  10
ATOM      7  C   UNL     1       1.530  10.605  18.865  0.00  0.00    +0.000 A 
ATOM      8  C   UNL     1       1.053  10.492  20.171  0.00  0.00    +0.000 A 
ATOM      9  C   UNL     1       0.999   9.243  20.788  0.00  0.00    +0.000 A 
ATOM     10  C   UNL     1       1.432   8.097  20.117  0.00  0.00    +0.000 A 
ATOM     11  C   UNL     1       1.958   8.222  18.825  0.00  0.00    +0.000 A 
ATOM     12  C   UNL     1       1.991   9.470  18.192  0.00  0.00    +0.000 A 
BRANCH   7  14
ATOM     13  N   UNL     1       2.604  12.337  17.596  0.00  0.00    +0.000 NA
ATOM     14  C   UNL     1       1.538  11.939  18.208  0.00  0.00    +0.000 C 
ATOM     15  N   UNL     1       0.437  12.742  18.277  0.00  0.00    +0.000 N 
ATOM     16  H   UNL     1       2.443  13.252  17.173  0.00  0.00    +0.000 HD
ATOM     17  H   UNL     1       0.615  13.727  18.125  0.00  0.00    +0.000 HD
ATOM     18  H   UNL     1      -0.151  12.596  19.092  0.00  0.00    +0.000 HD
ENDBRANCH   7  14
ENDBRANCH   3  10
ENDBRANCH   2   4
ENDBRANCH   1   2
BRANCH   1  19
ATOM     19  C   UNL     1       1.503   2.565  19.597  0.00  0.00    +0.000 C 
BRANCH  19  20
ATOM     20  C   UNL     1       1.605   2.984  18.134  0.00  0.00    +0.000 C 
BRANCH  20  21
ATOM     21  C   UNL     1       3.043   3.056  17.677  0.00  0.00    +0.000 C 
ATOM     22  O   UNL     1       3.744   2.049  17.694  0.00  0.00    +0.000 OA
ATOM     23  N   UNL     1       3.433   4.332  17.302  0.00  0.00    +0.000 N 
ATOM     24  H   UNL     1       2.805   5.093  17.529  0.00  0.00    +0.000 HD
BRANCH  23  25
ATOM     25  C   UNL     1       4.686   4.687  16.765  0.00  0.00    +0.000 A 
ATOM     26  C   UNL     1       5.188   4.123  15.591  0.00  0.00    +0.000 A 
ATOM     27  C   UNL     1       6.441   4.489  15.102  0.00  0.00    +0.000 A 
ATOM     28  C   UNL     1       7.214   5.421  15.789  0.00  0.00    +0.000 A 
ATOM     29  C   UNL     1       6.725   5.994  16.966  0.00  0.00    +0.000 A 
ATOM     30  C   UNL     1       5.450   5.648  17.440  0.00  0.00    +0.000 A 
BRANCH  29  31
ATOM     31  C   UNL     1       7.566   6.955  17.736  0.00  0.00    +0.000 C 
ATOM     32  N   UNL     1       8.150   6.647  18.849  0.00  0.00    +0.000 NA
ATOM     33  N   UNL     1       7.764   8.225  17.282  0.00  0.00    +0.000 N 
ATOM     34  H   UNL     1       7.910   5.698  19.147  0.00  0.00    +0.000 HD
ATOM     35  H   UNL     1       7.898   8.321  16.284  0.00  0.00    +0.000 HD
ATOM     36  H   UNL     1       8.507   8.672  17.812  0.00  0.00    +0.000 HD
ENDBRANCH  29  31
ENDBRANCH  23  25
ENDBRANCH  20  21
ENDBRANCH  19  20
ENDBRANCH   1  19
TORSDOF 9
ENDMDL
MODEL 8
REMARK VINA RESULT:      -7.8      3.021      4.579
REMARK  Name = 
REMARK  9 active torsions:
REMARK  status: ('A' for Active; 'I' for Inactive)
REMARK    1  A    between atoms: C_2  and  C_4
REMARK    2  A    between atoms: C_7  and  N_8
REMARK    3  A    between atoms: C_9  and  C_11
REMARK    4  A    between atoms: C_11  and  C_12
REMARK    5  A    between atoms: C_12  and  C_13
REMARK    6  A    between atoms: C_13  and  C_14
REMARK    7  A    between atoms: C_14  and  C_15
REMARK    8  A    between atoms: N_17  and  C_18
REMARK    9  A    between atoms: C_22  and  C_23
REMARK                            x       y       z     vdW  Elec       q    Type
REMARK                         _______ _______ _______ _____ _____    ______ ____
ROOT
ATOM      1  C   UNL     1       4.262   3.772  18.624  0.00  0.00    +0.000 C 
ENDROOT
BRANCH   1   2
ATOM      2  C   UNL     1       3.459   3.950  19.909  0.00  0.00    +0.000 C 
BRANCH   2   4
ATOM      3  N   UNL     1       2.849   6.290  19.935  0.00  0.00    +0.000 N 
ATOM      4  C   UNL     1       2.383   4.999  19.756  0.00  0.00    +0.000 C 
ATOM      5  O   UNL     1       1.242   4.667  19.448  0.00  0.00    +0.000 OA
ATOM      6  H   UNL     1       3.851   6.421  19.986  0.00  0.00    +0.000 HD
BRANCH   3  10
ATOM      7  C   UNL     1       0.491   9.774  19.736  0.00  0.00    +0.000 A 
ATOM      8  C   UNL     1       0.507   9.025  20.912  0.00  0.00    +0.000 A 
ATOM      9  C   UNL     1       1.285   7.870  20.992  0.00  0.00    +0.000 A 
ATOM     10  C   UNL     1       2.064   7.459  19.908  0.00  0.00    +0.000 A 
ATOM     11  C   UNL     1       2.084   8.242  18.747  0.00  0.00    +0.000 A 
ATOM     12  C   UNL     1       1.286   9.388  18.653  0.00  0.00    +0.000 A 
BRANCH   7  14
ATOM     13  N   UNL     1      -0.458  11.773  20.669  0.00  0.00    +0.000 NA
ATOM     14  C   UNL     1      -0.379  10.977  19.654  0.00  0.00    +0.000 C 
ATOM     15  N   UNL     1      -1.106  11.220  18.525  0.00  0.00    +0.000 N 
ATOM     16  H   UNL     1      -1.065  12.563  20.448  0.00  0.00    +0.000 HD
ATOM     17  H   UNL     1      -1.907  11.826  18.653  0.00  0.00    +0.000 HD
ATOM     18  H   UNL     1      -1.352  10.395  17.987  0.00  0.00    +0.000 HD
ENDBRANCH   7  14
ENDBRANCH   3  10
ENDBRANCH   2   4
ENDBRANCH   1   2
BRANCH   1  19
ATOM     19  C   UNL     1       4.859   5.087  18.125  0.00  0.00    +0.000 C 
BRANCH  19  20
ATOM     20  C   UNL     1       6.378   5.119  18.253  0.00  0.00    +0.000 C 
BRANCH  20  21
ATOM     21  C   UNL     1       7.052   4.747  16.953  0.00  0.00    +0.000 C 
ATOM     22  O   UNL     1       8.137   4.174  16.968  0.00  0.00    +0.000 OA
ATOM     23  N   UNL     1       6.339   5.147  15.835  0.00  0.00    +0.000 N 
ATOM     24  H   UNL     1       5.561   5.779  15.983  0.00  0.00    +0.000 HD
BRANCH  23  25
ATOM     25  C   UNL     1       6.682   4.871  14.496  0.00  0.00    +0.000 A 
ATOM     26  C   UNL     1       7.701   5.549  13.826  0.00  0.00    +0.000 A 
ATOM     27  C   UNL     1       7.998   5.258  12.496  0.00  0.00    +0.000 A 
ATOM     28  C   UNL     1       7.269   4.287  11.814  0.00  0.00    +0.000 A 
ATOM     29  C   UNL     1       6.245   3.599  12.472  0.00  0.00    +0.000 A 
ATOM     30  C   UNL     1       5.969   3.872  13.821  0.00  0.00    +0.000 A 
BRANCH  29  31
ATOM     31  C   UNL     1       5.426   2.594  11.736  0.00  0.00    +0.000 C 
ATOM     32  N   UNL     1       4.235   2.842  11.293  0.00  0.00    +0.000 NA
ATOM     33  N   UNL     1       5.914   1.346  11.489  0.00  0.00    +0.000 N 
ATOM     34  H   UNL     1       3.923   3.778  11.564  0.00  0.00    +0.000 HD
ATOM     35  H   UNL     1       6.891   1.296  11.233  0.00  0.00    +0.000 HD
ATOM     36  H   UNL     1       5.319   0.866  10.819  0.00  0.00    +0.000 HD
ENDBRANCH  29  31
ENDBRANCH  23  25
ENDBRANCH  20  21
ENDBRANCH  19  20
ENDBRANCH   1  19
TORSDOF 9
ENDMDL
MODEL 9
REMARK VINA RESULT:      -7.8      1.037      1.558
REMARK  Name = 
REMARK  9 active torsions:
REMARK  status: ('A' for Active; 'I' for Inactive)
REMARK    1  A    between atoms: C_2  and  C_4
REMARK    2  A    between atoms: C_7  and  N_8
REMARK    3  A    between atoms: C_9  and  C_11
REMARK    4  A    between atoms: C_11  and  C_12
REMARK    5  A    between atoms: C_12  and  C_13
REMARK    6  A    between atoms: C_13  and  C_14
REMARK    7  A    between atoms: C_14  and  C_15
REMARK    8  A    between atoms: N_17  and  C_18
REMARK    9  A    between atoms: C_22  and  C_23
REMARK                            x       y       z     vdW  Elec       q    Type
REMARK                         _______ _______ _______ _____ _____    ______ ____
ROOT
ATOM      1  C   UNL     1       2.676   2.921  20.585  0.00  0.00    +0.000 C 
ENDROOT
BRANCH   1   2
ATOM      2  C   UNL     1       2.154   4.142  21.338  0.00  0.00    +0.000 C 
BRANCH   2   4
ATOM      3  N   UNL     1       1.949   6.532  21.033  0.00  0.00    +0.000 N 
ATOM      4  C   UNL     1       1.881   5.300  20.407  0.00  0.00    +0.000 C 
ATOM      5  O   UNL     1       1.682   5.092  19.213  0.00  0.00    +0.000 OA
ATOM      6  H   UNL     1       2.319   6.557  21.974  0.00  0.00    +0.000 HD
BRANCH   3  10
ATOM      7  C   UNL     1       1.163  10.200  19.119  0.00  0.00    +0.000 A 
ATOM      8  C   UNL     1       0.716  10.000  20.424  0.00  0.00    +0.000 A 
ATOM      9  C   UNL     1       0.970   8.790  21.071  0.00  0.00    +0.000 A 
ATOM     10  C   UNL     1       1.685   7.777  20.429  0.00  0.00    +0.000 A 
ATOM     11  C   UNL     1       2.177   8.001  19.137  0.00  0.00    +0.000 A 
ATOM     12  C   UNL     1       1.902   9.203  18.475  0.00  0.00    +0.000 A 
BRANCH   7  14
ATOM     13  N   UNL     1      -0.391  11.803  18.235  0.00  0.00    +0.000 NA
ATOM     14  C   UNL     1       0.844  11.480  18.430  0.00  0.00    +0.000 C 
ATOM     15  N   UNL     1       1.851  12.288  17.987  0.00  0.00    +0.000 N 
ATOM     16  H   UNL     1      -0.446  12.716  17.783  0.00  0.00    +0.000 HD
ATOM     17  H   UNL     1       1.589  12.934  17.253  0.00  0.00    +0.000 HD
ATOM     18  H   UNL     1       2.719  11.810  17.765  0.00  0.00    +0.000 HD
ENDBRANCH   7  14
ENDBRANCH   3  10
ENDBRANCH   2   4
ENDBRANCH   1   2
BRANCH   1  19
ATOM     19  C   UNL     1       1.564   2.169  19.856  0.00  0.00    +0.000 C 
BRANCH  19  20
ATOM     20  C   UNL     1       1.815   2.076  18.355  0.00  0.00    +0.000 C 
BRANCH  20  21
ATOM     21  C   UNL     1       3.263   2.342  18.017  0.00  0.00    +0.000 C 
ATOM     22  O   UNL     1       4.086   1.435  18.090  0.00  0.00    +0.000 OA
ATOM     23  N   UNL     1       3.510   3.662  17.677  0.00  0.00    +0.000 N 
ATOM     24  H   UNL     1       2.770   4.332  17.852  0.00  0.00    +0.000 HD
BRANCH  23  25
ATOM     25  C   UNL     1       4.744   4.185  17.244  0.00  0.00    +0.000 A 
ATOM     26  C   UNL     1       5.194   4.061  15.929  0.00  0.00    +0.000 A 
ATOM     27  C   UNL     1       6.430   4.577  15.545  0.00  0.00    +0.000 A 
ATOM     28  C   UNL     1       7.240   5.219  16.478  0.00  0.00    +0.000 A 
ATOM     29  C   UNL     1       6.803   5.351  17.800  0.00  0.00    +0.000 A 
ATOM     30  C   UNL     1       5.544   4.858  18.176  0.00  0.00    +0.000 A 
BRANCH  29  31
ATOM     31  C   UNL     1       7.684   5.992  18.818  0.00  0.00    +0.000 C 
ATOM     32  N   UNL     1       8.229   7.153  18.649  0.00  0.00    +0.000 NA
ATOM     33  N   UNL     1       7.949   5.367  19.999  0.00  0.00    +0.000 N 
ATOM     34  H   UNL     1       8.025   7.531  17.719  0.00  0.00    +0.000 HD
ATOM     35  H   UNL     1       7.172   4.880  20.426  0.00  0.00    +0.000 HD
ATOM     36  H   UNL     1       8.392   6.016  20.644  0.00  0.00    +0.000 HD
ENDBRANCH  29  31
ENDBRANCH  23  25
ENDBRANCH  20  21
ENDBRANCH  19  20
ENDBRANCH   1  19
TORSDOF 9
ENDMDL
