MODEL 1
REMARK VINA RESULT:      -7.7      0.000      0.000
REMARK  Name = 
REMARK  3 active torsions:
REMARK  status: ('A' for Active; 'I' for Inactive)
REMARK    1  A    between atoms: C_1  and  C_2
REMARK    2  A    between atoms: C_2  and  C_3
REMARK    3  A    between atoms: C_9  and  C_10
REMARK                            x       y       z     vdW  Elec       q    Type
REMARK                         _______ _______ _______ _____ _____    ______ ____
ROOT
ATOM      1  C   UNL     1       8.285   6.982  18.609  0.00  0.00    +0.000 C 
ATOM      2  C   UNL     1       7.069   6.207  18.117  0.00  0.00    +0.000 C 
ATOM      3  C   UNL     1       6.608   5.284  19.251  0.00  0.00    +0.000 C 
ATOM      4  O   UNL     1       7.459   5.433  16.980  0.00  0.00    +0.000 OA
ATOM      5  C   UNL     1       6.354   5.462  16.069  0.00  0.00    +0.000 C 
ATOM      6  C   UNL     1       5.596   4.126  16.139  0.00  0.00    +0.000 C 
ATOM      7  N   UNL     1       4.364   4.477  16.824  0.00  0.00    +0.000 N 
ATOM      8  C   UNL     1       4.206   5.817  17.022  0.00  0.00    +0.000 A 
ATOM      9  C   UNL     1       3.025   6.009  17.696  0.00  0.00    +0.000 A 
ATOM     10  C   UNL     1       2.612   4.701  18.141  0.00  0.00    +0.000 A 
ATOM     11  C   UNL     1       1.607   4.233  19.013  0.00  0.00    +0.000 A 
ATOM     12  C   UNL     1       1.615   2.889  19.407  0.00  0.00    +0.000 A 
ATOM     13  C   UNL     1       2.583   2.007  18.932  0.00  0.00    +0.000 A 
ATOM     14  C   UNL     1       3.545   2.425  18.014  0.00  0.00    +0.000 A 
ATOM     15  C   UNL     1       3.532   3.771  17.632  0.00  0.00    +0.000 A 
ATOM     16  C   UNL     1       5.399   6.563  16.573  0.00  0.00    +0.000 C 
ATOM     17  O   UNL     1       6.024   7.109  17.737  0.00  0.00    +0.000 OA
ENDROOT
BRANCH   9  18
ATOM     18  C   UNL     1       2.449   7.272  18.052  0.00  0.00    +0.000 C 
ATOM     19  N   UNL     1       1.997   8.300  18.322  0.00  0.00    +0.000 NA
ENDBRANCH   9  18
TORSDOF 1
ENDMDL
MODEL 2
REMARK VINA RESULT:      -7.6      0.945      1.049
REMARK  Name = 
REMARK  3 active torsions:
REMARK  status: ('A' for Active; 'I' for Inactive)
REMARK    1  A    between atoms: C_1  and  C_2
REMARK    2  A    between atoms: C_2  and  C_3
REMARK    3  A    between atoms: C_9  and  C_10
REMARK                            x       y       z     vdW  Elec       q    Type
REMARK                         _______ _______ _______ _____ _____    ______ ____
ROOT
ATOM      1  C   UNL     1       7.929   6.839  18.068  0.00  0.00    +0.000 C 
ATOM      2  C   UNL     1       6.591   6.116  17.974  0.00  0.00    +0.000 C 
ATOM      3  C   UNL     1       6.337   5.422  19.318  0.00  0.00    +0.000 C 
ATOM      4  O   UNL     1       6.676   5.147  16.927  0.00  0.00    +0.000 OA
ATOM      5  C   UNL     1       5.402   5.142  16.273  0.00  0.00    +0.000 C 
ATOM      6  C   UNL     1       4.600   3.908  16.720  0.00  0.00    +0.000 C 
ATOM      7  N   UNL     1       3.571   4.472  17.578  0.00  0.00    +0.000 N 
ATOM      8  C   UNL     1       3.540   5.836  17.577  0.00  0.00    +0.000 A 
ATOM      9  C   UNL     1       2.549   6.236  18.439  0.00  0.00    +0.000 A 
ATOM     10  C   UNL     1       2.167   5.055  19.173  0.00  0.00    +0.000 A 
ATOM     11  C   UNL     1       1.352   4.820  20.300  0.00  0.00    +0.000 A 
ATOM     12  C   UNL     1       1.367   3.556  20.903  0.00  0.00    +0.000 A 
ATOM     13  C   UNL     1       2.153   2.525  20.392  0.00  0.00    +0.000 A 
ATOM     14  C   UNL     1       2.913   2.708  19.238  0.00  0.00    +0.000 A 
ATOM     15  C   UNL     1       2.896   3.976  18.647  0.00  0.00    +0.000 A 
ATOM     16  C   UNL     1       4.647   6.390  16.772  0.00  0.00    +0.000 C 
ATOM     17  O   UNL     1       5.543   7.044  17.674  0.00  0.00    +0.000 OA
ENDROOT
BRANCH   9  18
ATOM     18  C   UNL     1       2.141   7.587  18.690  0.00  0.00    +0.000 C 
ATOM     19  N   UNL     1       1.790   8.670  18.890  0.00  0.00    +0.000 NA
ENDBRANCH   9  18
TORSDOF 1
ENDMDL
MODEL 3
REMARK VINA RESULT:      -7.1      2.420      4.723
REMARK  Name = 
REMARK  3 active torsions:
REMARK  status: ('A' for Active; 'I' for Inactive)
REMARK    1  A    between atoms: C_1  and  C_2
REMARK    2  A    between atoms: C_2  and  C_3
REMARK    3  A    between atoms: C_9  and  C_10
REMARK                            x       y       z     vdW  Elec       q    Type
REMARK                         _______ _______ _______ _____ _____    ______ ____
ROOT
ATOM      1  C   UNL     1       0.409   2.507  19.161  0.00  0.00    +0.000 C 
ATOM      2  C   UNL     1       1.768   3.148  18.910  0.00  0.00    +0.000 C 
ATOM      3  C   UNL     1       2.141   2.901  17.443  0.00  0.00    +0.000 C 
ATOM      4  O   UNL     1       2.724   2.526  19.772  0.00  0.00    +0.000 OA
ATOM      5  C   UNL     1       3.618   3.559  20.202  0.00  0.00    +0.000 C 
ATOM      6  C   UNL     1       4.940   3.450  19.424  0.00  0.00    +0.000 C 
ATOM      7  N   UNL     1       4.891   4.590  18.523  0.00  0.00    +0.000 N 
ATOM      8  C   UNL     1       3.844   5.432  18.756  0.00  0.00    +0.000 A 
ATOM      9  C   UNL     1       3.899   6.442  17.828  0.00  0.00    +0.000 A 
ATOM     10  C   UNL     1       4.870   6.022  16.849  0.00  0.00    +0.000 A 
ATOM     11  C   UNL     1       5.259   6.505  15.582  0.00  0.00    +0.000 A 
ATOM     12  C   UNL     1       6.096   5.721  14.779  0.00  0.00    +0.000 A 
ATOM     13  C   UNL     1       6.569   4.487  15.223  0.00  0.00    +0.000 A 
ATOM     14  C   UNL     1       6.258   4.018  16.498  0.00  0.00    +0.000 A 
ATOM     15  C   UNL     1       5.416   4.806  17.289  0.00  0.00    +0.000 A 
ATOM     16  C   UNL     1       2.960   4.898  19.812  0.00  0.00    +0.000 C 
ATOM     17  O   UNL     1       1.719   4.550  19.194  0.00  0.00    +0.000 OA
ENDROOT
BRANCH   9  18
ATOM     18  C   UNL     1       3.020   7.571  17.753  0.00  0.00    +0.000 C 
ATOM     19  N   UNL     1       2.328   8.496  17.697  0.00  0.00    +0.000 NA
ENDBRANCH   9  18
TORSDOF 1
ENDMDL
MODEL 4
REMARK VINA RESULT:      -6.9      2.214      4.876
REMARK  Name = 
REMARK  3 active torsions:
REMARK  status: ('A' for Active; 'I' for Inactive)
REMARK    1  A    between atoms: C_1  and  C_2
REMARK    2  A    between atoms: C_2  and  C_3
REMARK    3  A    between atoms: C_9  and  C_10
REMARK                            x       y       z     vdW  Elec       q    Type
REMARK                         _______ _______ _______ _____ _____    ______ ____
ROOT
ATOM      1  C   UNL     1       1.776   7.186  19.968  0.00  0.00    +0.000 C 
ATOM      2  C   UNL     1       2.609   6.183  19.179  0.00  0.00    +0.000 C 
ATOM      3  C   UNL     1       3.060   6.864  17.882  0.00  0.00    +0.000 C 
ATOM      4  O   UNL     1       1.788   5.052  18.882  0.00  0.00    +0.000 OA
ATOM      5  C   UNL     1       2.629   3.898  18.994  0.00  0.00    +0.000 C 
ATOM      6  C   UNL     1       3.014   3.405  17.589  0.00  0.00    +0.000 C 
ATOM      7  N   UNL     1       4.417   3.769  17.480  0.00  0.00    +0.000 N 
ATOM      8  C   UNL     1       4.954   4.244  18.641  0.00  0.00    +0.000 A 
ATOM      9  C   UNL     1       6.264   4.573  18.396  0.00  0.00    +0.000 A 
ATOM     10  C   UNL     1       6.417   4.535  16.963  0.00  0.00    +0.000 A 
ATOM     11  C   UNL     1       7.438   4.930  16.074  0.00  0.00    +0.000 A 
ATOM     12  C   UNL     1       7.174   4.957  14.699  0.00  0.00    +0.000 A 
ATOM     13  C   UNL     1       5.931   4.576  14.198  0.00  0.00    +0.000 A 
ATOM     14  C   UNL     1       4.928   4.113  15.047  0.00  0.00    +0.000 A 
ATOM     15  C   UNL     1       5.200   4.096  16.420  0.00  0.00    +0.000 A 
ATOM     16  C   UNL     1       3.923   4.364  19.691  0.00  0.00    +0.000 C 
ATOM     17  O   UNL     1       3.738   5.758  19.951  0.00  0.00    +0.000 OA
ENDROOT
BRANCH   9  18
ATOM     18  C   UNL     1       7.210   5.054  19.360  0.00  0.00    +0.000 C 
ATOM     19  N   UNL     1       7.990   5.438  20.122  0.00  0.00    +0.000 NA
ENDBRANCH   9  18
TORSDOF 1
ENDMDL
MODEL 5
REMARK VINA RESULT:      -6.2      2.059      3.128
REMARK  Name = 
REMARK  3 active torsions:
REMARK  status: ('A' for Active; 'I' for Inactive)
REMARK    1  A    between atoms: C_1  and  C_2
REMARK    2  A    between atoms: C_2  and  C_3
REMARK    3  A    between atoms: C_9  and  C_10
REMARK                            x       y       z     vdW  Elec       q    Type
REMARK                         _______ _______ _______ _____ _____    ______ ____
ROOT
ATOM      1  C   UNL     1       8.089   8.581  17.334  0.00  0.00    +0.000 C 
ATOM      2  C   UNL     1       7.317   7.307  17.655  0.00  0.00    +0.000 C 
ATOM      3  C   UNL     1       5.839   7.681  17.815  0.00  0.00    +0.000 C 
ATOM      4  O   UNL     1       7.825   6.771  18.879  0.00  0.00    +0.000 OA
ATOM      5  C   UNL     1       7.823   5.347  18.732  0.00  0.00    +0.000 C 
ATOM      6  C   UNL     1       6.632   4.753  19.504  0.00  0.00    +0.000 C 
ATOM      7  N   UNL     1       5.723   4.339  18.449  0.00  0.00    +0.000 N 
ATOM      8  C   UNL     1       6.250   4.445  17.195  0.00  0.00    +0.000 A 
ATOM      9  C   UNL     1       5.288   4.051  16.298  0.00  0.00    +0.000 A 
ATOM     10  C   UNL     1       4.061   3.966  17.052  0.00  0.00    +0.000 A 
ATOM     11  C   UNL     1       2.705   3.792  16.703  0.00  0.00    +0.000 A 
ATOM     12  C   UNL     1       1.719   3.979  17.680  0.00  0.00    +0.000 A 
ATOM     13  C   UNL     1       2.059   4.307  18.991  0.00  0.00    +0.000 A 
ATOM     14  C   UNL     1       3.394   4.415  19.379  0.00  0.00    +0.000 A 
ATOM     15  C   UNL     1       4.370   4.233  18.394  0.00  0.00    +0.000 A 
ATOM     16  C   UNL     1       7.591   5.061  17.235  0.00  0.00    +0.000 C 
ATOM     17  O   UNL     1       7.490   6.343  16.611  0.00  0.00    +0.000 OA
ENDROOT
BRANCH   9  18
ATOM     18  C   UNL     1       5.445   3.953  14.877  0.00  0.00    +0.000 C 
ATOM     19  N   UNL     1       5.593   3.882  13.733  0.00  0.00    +0.000 NA
ENDBRANCH   9  18
TORSDOF 1
ENDMDL
MODEL 6
REMARK VINA RESULT:      -6.2      1.908      3.912
REMARK  Name = 
REMARK  3 active torsions:
REMARK  status: ('A' for Active; 'I' for Inactive)
REMARK    1  A    between atoms: C_1  and  C_2
REMARK    2  A    between atoms: C_2  and  C_3
REMARK    3  A    between atoms: C_9  and  C_10
REMARK                            x       y       z     vdW  Elec       q    Type
REMARK                         _______ _______ _______ _____ _____    ______ ____
ROOT
ATOM      1  C   UNL     1       6.954   4.069  13.283  0.00  0.00    +0.000 C 
ATOM      2  C   UNL     1       6.454   4.640  14.604  0.00  0.00    +0.000 C 
ATOM      3  C   UNL     1       5.139   5.380  14.328  0.00  0.00    +0.000 C 
ATOM      4  O   UNL     1       7.437   5.552  15.100  0.00  0.00    +0.000 OA
ATOM      5  C   UNL     1       7.465   5.385  16.523  0.00  0.00    +0.000 C 
ATOM      6  C   UNL     1       6.717   6.552  17.191  0.00  0.00    +0.000 C 
ATOM      7  N   UNL     1       5.492   5.932  17.668  0.00  0.00    +0.000 N 
ATOM      8  C   UNL     1       5.472   4.575  17.533  0.00  0.00    +0.000 A 
ATOM      9  C   UNL     1       4.260   4.123  17.993  0.00  0.00    +0.000 A 
ATOM     10  C   UNL     1       3.439   5.298  18.155  0.00  0.00    +0.000 A 
ATOM     11  C   UNL     1       2.070   5.509  18.420  0.00  0.00    +0.000 A 
ATOM     12  C   UNL     1       1.542   6.800  18.295  0.00  0.00    +0.000 A 
ATOM     13  C   UNL     1       2.352   7.877  17.940  0.00  0.00    +0.000 A 
ATOM     14  C   UNL     1       3.722   7.709  17.742  0.00  0.00    +0.000 A 
ATOM     15  C   UNL     1       4.238   6.415  17.863  0.00  0.00    +0.000 A 
ATOM     16  C   UNL     1       6.678   4.095  16.829  0.00  0.00    +0.000 C 
ATOM     17  O   UNL     1       6.259   3.591  15.558  0.00  0.00    +0.000 OA
ENDROOT
BRANCH   9  18
ATOM     18  C   UNL     1       3.848   2.754  18.086  0.00  0.00    +0.000 C 
ATOM     19  N   UNL     1       3.497   1.655  18.173  0.00  0.00    +0.000 NA
ENDBRANCH   9  18
TORSDOF 1
ENDMDL
MODEL 7
REMARK VINA RESULT:      -6.2      2.008      3.557
REMARK  Name = 
REMARK  3 active torsions:
REMARK  status: ('A' for Active; 'I' for Inactive)
REMARK    1  A    between atoms: C_1  and  C_2
REMARK    2  A    between atoms: C_2  and  C_3
REMARK    3  A    between atoms: C_9  and  C_10
REMARK                            x       y       z     vdW  Elec       q    Type
REMARK                         _______ _______ _______ _____ _____    ______ ____
ROOT
ATOM      1  C   UNL     1       7.535   4.566  15.997  0.00  0.00    +0.000 C 
ATOM      2  C   UNL     1       6.297   4.648  16.881  0.00  0.00    +0.000 C 
ATOM      3  C   UNL     1       5.181   3.844  16.203  0.00  0.00    +0.000 C 
ATOM      4  O   UNL     1       5.916   6.021  16.994  0.00  0.00    +0.000 OA
ATOM      5  C   UNL     1       5.459   6.207  18.339  0.00  0.00    +0.000 C 
ATOM      6  C   UNL     1       3.922   6.260  18.356  0.00  0.00    +0.000 C 
ATOM      7  N   UNL     1       3.552   4.991  18.962  0.00  0.00    +0.000 N 
ATOM      8  C   UNL     1       4.612   4.282  19.445  0.00  0.00    +0.000 A 
ATOM      9  C   UNL     1       4.132   3.104  19.962  0.00  0.00    +0.000 A 
ATOM     10  C   UNL     1       2.762   3.012  19.519  0.00  0.00    +0.000 A 
ATOM     11  C   UNL     1       1.786   1.994  19.554  0.00  0.00    +0.000 A 
ATOM     12  C   UNL     1       0.601   2.159  18.826  0.00  0.00    +0.000 A 
ATOM     13  C   UNL     1       0.364   3.319  18.092  0.00  0.00    +0.000 A 
ATOM     14  C   UNL     1       1.279   4.371  18.098  0.00  0.00    +0.000 A 
ATOM     15  C   UNL     1       2.462   4.193  18.823  0.00  0.00    +0.000 A 
ATOM     16  C   UNL     1       5.888   4.953  19.125  0.00  0.00    +0.000 C 
ATOM     17  O   UNL     1       6.580   4.128  18.184  0.00  0.00    +0.000 OA
ENDROOT
BRANCH   9  18
ATOM     18  C   UNL     1       4.903   2.093  20.623  0.00  0.00    +0.000 C 
ATOM     19  N   UNL     1       5.507   1.274  21.171  0.00  0.00    +0.000 NA
ENDBRANCH   9  18
TORSDOF 1
ENDMDL
MODEL 8
REMARK VINA RESULT:      -6.0      5.748      8.227
REMARK  Name = 
REMARK  3 active torsions:
REMARK  status: ('A' for Active; 'I' for Inactive)
REMARK    1  A    between atoms: C_1  and  C_2
REMARK    2  A    between atoms: C_2  and  C_3
REMARK    3  A    between atoms: C_9  and  C_10
REMARK                            x       y       z     vdW  Elec       q    Type
REMARK                         _______ _______ _______ _____ _____    ______ ____
ROOT
ATOM      1  C   UNL     1       1.515  15.193  21.144  0.00  0.00    +0.000 C 
ATOM      2  C   UNL     1       1.043  13.844  20.617  0.00  0.00    +0.000 C 
ATOM      3  C   UNL     1       2.270  13.088  20.093  0.00  0.00    +0.000 C 
ATOM      4  O   UNL     1       0.117  14.077  19.553  0.00  0.00    +0.000 OA
ATOM      5  C   UNL     1      -0.900  13.075  19.671  0.00  0.00    +0.000 C 
ATOM      6  C   UNL     1      -0.670  11.983  18.613  0.00  0.00    +0.000 C 
ATOM      7  N   UNL     1      -0.200  10.852  19.396  0.00  0.00    +0.000 N 
ATOM      8  C   UNL     1      -0.269  11.050  20.744  0.00  0.00    +0.000 A 
ATOM      9  C   UNL     1       0.225   9.927  21.361  0.00  0.00    +0.000 A 
ATOM     10  C   UNL     1       0.854   9.153  20.320  0.00  0.00    +0.000 A 
ATOM     11  C   UNL     1       1.681   8.010  20.310  0.00  0.00    +0.000 A 
ATOM     12  C   UNL     1       2.313   7.634  19.118  0.00  0.00    +0.000 A 
ATOM     13  C   UNL     1       2.117   8.355  17.942  0.00  0.00    +0.000 A 
ATOM     14  C   UNL     1       1.249   9.446  17.906  0.00  0.00    +0.000 A 
ATOM     15  C   UNL     1       0.628   9.816  19.104  0.00  0.00    +0.000 A 
ATOM     16  C   UNL     1      -0.714  12.423  21.056  0.00  0.00    +0.000 C 
ATOM     17  O   UNL     1       0.392  13.103  21.655  0.00  0.00    +0.000 OA
ENDROOT
BRANCH   9  18
ATOM     18  C   UNL     1       0.278   9.692  22.773  0.00  0.00    +0.000 C 
ATOM     19  N   UNL     1       0.343   9.507  23.913  0.00  0.00    +0.000 NA
ENDBRANCH   9  18
TORSDOF 1
ENDMDL
MODEL 9
REMARK VINA RESULT:      -5.8      8.304     11.644
REMARK  Name = 
REMARK  3 active torsions:
REMARK  status: ('A' for Active; 'I' for Inactive)
REMARK    1  A    between atoms: C_1  and  C_2
REMARK    2  A    between atoms: C_2  and  C_3
REMARK    3  A    between atoms: C_9  and  C_10
REMARK                            x       y       z     vdW  Elec       q    Type
REMARK                         _______ _______ _______ _____ _____    ______ ____
ROOT
ATOM      1  C   UNL     1       8.732  10.121  18.304  0.00  0.00    +0.000 C 
ATOM      2  C   UNL     1       9.556  11.398  18.406  0.00  0.00    +0.000 C 
ATOM      3  C   UNL     1       8.777  12.517  17.705  0.00  0.00    +0.000 C 
ATOM      4  O   UNL     1      10.805  11.180  17.747  0.00  0.00    +0.000 OA
ATOM      5  C   UNL     1      11.798  11.863  18.521  0.00  0.00    +0.000 C 
ATOM      6  C   UNL     1      12.184  13.175  17.818  0.00  0.00    +0.000 C 
ATOM      7  N   UNL     1      11.580  14.194  18.659  0.00  0.00    +0.000 N 
ATOM      8  C   UNL     1      11.046  13.708  19.816  0.00  0.00    +0.000 A 
ATOM      9  C   UNL     1      10.490  14.760  20.500  0.00  0.00    +0.000 A 
ATOM     10  C   UNL     1      10.468  15.863  19.571  0.00  0.00    +0.000 A 
ATOM     11  C   UNL     1       9.881  17.146  19.584  0.00  0.00    +0.000 A 
ATOM     12  C   UNL     1       9.869  17.903  18.406  0.00  0.00    +0.000 A 
ATOM     13  C   UNL     1      10.448  17.420  17.235  0.00  0.00    +0.000 A 
ATOM     14  C   UNL     1      11.097  16.187  17.212  0.00  0.00    +0.000 A 
ATOM     15  C   UNL     1      11.098  15.436  18.392  0.00  0.00    +0.000 A 
ATOM     16  C   UNL     1      11.132  12.234  19.860  0.00  0.00    +0.000 C 
ATOM     17  O   UNL     1       9.797  11.727  19.778  0.00  0.00    +0.000 OA
ENDROOT
BRANCH   9  18
ATOM     18  C   UNL     1       9.876  14.699  21.793  0.00  0.00    +0.000 C 
ATOM     19  N   UNL     1       9.396  14.636  22.843  0.00  0.00    +0.000 NA
ENDBRANCH   9  18
TORSDOF 1
ENDMDL
