MODEL 1
REMARK VINA RESULT:      -8.7      0.000      0.000
REMARK  Name = 
REMARK  5 active torsions:
REMARK  status: ('A' for Active; 'I' for Inactive)
REMARK    1  A    between atoms: C_1  and  O_2
REMARK    2  A    between atoms: O_2  and  C_3
REMARK    3  A    between atoms: C_4  and  O_5
REMARK    4  A    between atoms: C_13  and  O_14
REMARK    5  A    between atoms: O_14  and  C_15
REMARK                            x       y       z     vdW  Elec       q    Type
REMARK                         _______ _______ _______ _____ _____    ______ ____
ROOT
ATOM      1  C   UNL     1       0.530  11.031  20.221  0.00  0.00    +0.000 A 
ATOM      2  C   UNL     1       0.849  11.328  18.892  0.00  0.00    +0.000 A 
ATOM      3  C   UNL     1       1.501  10.396  18.084  0.00  0.00    +0.000 A 
ATOM      4  C   UNL     1       1.882   9.154  18.574  0.00  0.00    +0.000 A 
ATOM      5  C   UNL     1       2.595   8.282  17.753  0.00  0.00    +0.000 A 
ATOM      6  C   UNL     1       2.990   7.033  18.225  0.00  0.00    +0.000 A 
ATOM      7  N   UNL     1       2.619   6.650  19.479  0.00  0.00    +0.000 N 
ATOM      8  C   UNL     1       1.951   7.502  20.301  0.00  0.00    +0.000 A 
ATOM      9  C   UNL     1       1.558   8.791  19.888  0.00  0.00    +0.000 A 
ATOM     10  C   UNL     1       0.860   9.737  20.707  0.00  0.00    +0.000 A 
ATOM     11  C   UNL     1       2.982   5.294  19.984  0.00  0.00    +0.000 C 
ATOM     12  C   UNL     1       2.813   4.268  18.869  0.00  0.00    +0.000 C 
ATOM     13  C   UNL     1       3.700   4.686  17.725  0.00  0.00    +0.000 A 
ATOM     14  C   UNL     1       4.430   3.736  16.994  0.00  0.00    +0.000 A 
ATOM     15  C   UNL     1       5.300   4.201  16.034  0.00  0.00    +0.000 A 
ATOM     16  C   UNL     1       5.424   5.539  15.764  0.00  0.00    +0.000 A 
ATOM     17  C   UNL     1       4.675   6.492  16.425  0.00  0.00    +0.000 A 
ATOM     18  C   UNL     1       3.790   6.076  17.438  0.00  0.00    +0.000 A 
ATOM     19  O   UNL     1       6.363   5.792  14.815  0.00  0.00    +0.000 OA
ATOM     20  C   UNL     1       6.894   4.466  14.598  0.00  0.00    +0.000 C 
ATOM     21  O   UNL     1       6.144   3.442  15.288  0.00  0.00    +0.000 OA
ENDROOT
BRANCH   1  23
ATOM     22  C   UNL     1      -1.405  12.207  21.112  0.00  0.00    +0.000 C 
ATOM     23  O   UNL     1      -0.024  11.890  21.128  0.00  0.00    +0.000 OA
ENDBRANCH   1  23
BRANCH   2  24
ATOM     24  O   UNL     1       0.587  12.496  18.238  0.00  0.00    +0.000 OA
ATOM     25  H   UNL     1      -0.114  12.359  17.586  0.00  0.00    +0.000 HD
ENDBRANCH   2  24
BRANCH  10  26
ATOM     26  O   UNL     1       0.608   9.278  21.991  0.00  0.00    +0.000 OA
ATOM     27  C   UNL     1      -0.679   8.712  22.251  0.00  0.00    +0.000 C 
ENDBRANCH  10  26
TORSDOF 3
ENDMDL
MODEL 2
REMARK VINA RESULT:      -8.4      2.314      8.290
REMARK  Name = 
REMARK  5 active torsions:
REMARK  status: ('A' for Active; 'I' for Inactive)
REMARK    1  A    between atoms: C_1  and  O_2
REMARK    2  A    between atoms: O_2  and  C_3
REMARK    3  A    between atoms: C_4  and  O_5
REMARK    4  A    between atoms: C_13  and  O_14
REMARK    5  A    between atoms: O_14  and  C_15
REMARK                            x       y       z     vdW  Elec       q    Type
REMARK                         _______ _______ _______ _____ _____    ______ ____
ROOT
ATOM      1  C   UNL     1       3.525   3.178  19.910  0.00  0.00    +0.000 A 
ATOM      2  C   UNL     1       2.643   3.238  20.993  0.00  0.00    +0.000 A 
ATOM      3  C   UNL     1       1.906   4.393  21.258  0.00  0.00    +0.000 A 
ATOM      4  C   UNL     1       2.041   5.532  20.475  0.00  0.00    +0.000 A 
ATOM      5  C   UNL     1       1.340   6.686  20.818  0.00  0.00    +0.000 A 
ATOM      6  C   UNL     1       1.462   7.841  20.049  0.00  0.00    +0.000 A 
ATOM      7  N   UNL     1       2.229   7.810  18.924  0.00  0.00    +0.000 N 
ATOM      8  C   UNL     1       2.943   6.701  18.594  0.00  0.00    +0.000 A 
ATOM      9  C   UNL     1       2.884   5.517  19.357  0.00  0.00    +0.000 A 
ATOM     10  C   UNL     1       3.617   4.319  19.068  0.00  0.00    +0.000 A 
ATOM     11  C   UNL     1       2.330   9.018  18.054  0.00  0.00    +0.000 C 
ATOM     12  C   UNL     1       0.963   9.685  17.942  0.00  0.00    +0.000 C 
ATOM     13  C   UNL     1       0.513  10.044  19.334  0.00  0.00    +0.000 A 
ATOM     14  C   UNL     1      -0.133  11.263  19.592  0.00  0.00    +0.000 A 
ATOM     15  C   UNL     1      -0.418  11.568  20.903  0.00  0.00    +0.000 A 
ATOM     16  C   UNL     1      -0.126  10.701  21.924  0.00  0.00    +0.000 A 
ATOM     17  C   UNL     1       0.455   9.470  21.695  0.00  0.00    +0.000 A 
ATOM     18  C   UNL     1       0.795   9.116  20.375  0.00  0.00    +0.000 A 
ATOM     19  O   UNL     1      -0.447  11.206  23.144  0.00  0.00    +0.000 OA
ATOM     20  C   UNL     1      -0.875  12.538  22.781  0.00  0.00    +0.000 C 
ATOM     21  O   UNL     1      -0.963  12.729  21.351  0.00  0.00    +0.000 OA
ENDROOT
BRANCH   1  23
ATOM     22  C   UNL     1       3.991   1.128  18.685  0.00  0.00    +0.000 C 
ATOM     23  O   UNL     1       4.359   2.139  19.606  0.00  0.00    +0.000 OA
ENDBRANCH   1  23
BRANCH   2  24
ATOM     24  O   UNL     1       2.394   2.241  21.891  0.00  0.00    +0.000 OA
ATOM     25  H   UNL     1       3.223   1.934  22.282  0.00  0.00    +0.000 HD
ENDBRANCH   2  24
BRANCH  10  26
ATOM     26  O   UNL     1       4.432   4.425  17.951  0.00  0.00    +0.000 OA
ATOM     27  C   UNL     1       5.815   4.714  18.166  0.00  0.00    +0.000 C 
ENDBRANCH  10  26
TORSDOF 3
ENDMDL
MODEL 3
REMARK VINA RESULT:      -7.7      2.281      3.977
REMARK  Name = 
REMARK  5 active torsions:
REMARK  status: ('A' for Active; 'I' for Inactive)
REMARK    1  A    between atoms: C_1  and  O_2
REMARK    2  A    between atoms: O_2  and  C_3
REMARK    3  A    between atoms: C_4  and  O_5
REMARK    4  A    between atoms: C_13  and  O_14
REMARK    5  A    between atoms: O_14  and  C_15
REMARK                            x       y       z     vdW  Elec       q    Type
REMARK                         _______ _______ _______ _____ _____    ______ ____
ROOT
ATOM      1  C   UNL     1      -0.979  11.798  21.130  0.00  0.00    +0.000 A 
ATOM      2  C   UNL     1      -0.764  11.017  22.270  0.00  0.00    +0.000 A 
ATOM      3  C   UNL     1       0.011   9.858  22.211  0.00  0.00    +0.000 A 
ATOM      4  C   UNL     1       0.574   9.424  21.018  0.00  0.00    +0.000 A 
ATOM      5  C   UNL     1       1.281   8.223  20.992  0.00  0.00    +0.000 A 
ATOM      6  C   UNL     1       1.851   7.766  19.805  0.00  0.00    +0.000 A 
ATOM      7  N   UNL     1       1.759   8.537  18.686  0.00  0.00    +0.000 N 
ATOM      8  C   UNL     1       1.046   9.695  18.691  0.00  0.00    +0.000 A 
ATOM      9  C   UNL     1       0.419  10.186  19.853  0.00  0.00    +0.000 A 
ATOM     10  C   UNL     1      -0.351  11.393  19.922  0.00  0.00    +0.000 A 
ATOM     11  C   UNL     1       2.411   8.095  17.419  0.00  0.00    +0.000 C 
ATOM     12  C   UNL     1       3.773   7.483  17.729  0.00  0.00    +0.000 C 
ATOM     13  C   UNL     1       3.551   6.326  18.667  0.00  0.00    +0.000 A 
ATOM     14  C   UNL     1       4.271   5.130  18.521  0.00  0.00    +0.000 A 
ATOM     15  C   UNL     1       3.939   4.081  19.347  0.00  0.00    +0.000 A 
ATOM     16  C   UNL     1       2.973   4.203  20.312  0.00  0.00    +0.000 A 
ATOM     17  C   UNL     1       2.291   5.385  20.519  0.00  0.00    +0.000 A 
ATOM     18  C   UNL     1       2.568   6.484  19.683  0.00  0.00    +0.000 A 
ATOM     19  O   UNL     1       2.767   3.044  20.991  0.00  0.00    +0.000 OA
ATOM     20  C   UNL     1       3.640   2.147  20.268  0.00  0.00    +0.000 C 
ATOM     21  O   UNL     1       4.466   2.830  19.298  0.00  0.00    +0.000 OA
ENDROOT
BRANCH   1  23
ATOM     22  C   UNL     1      -3.187  12.785  20.856  0.00  0.00    +0.000 C 
ATOM     23  O   UNL     1      -1.787  12.897  21.047  0.00  0.00    +0.000 OA
ENDBRANCH   1  23
BRANCH   2  24
ATOM     24  O   UNL     1      -1.252  11.258  23.521  0.00  0.00    +0.000 OA
ATOM     25  H   UNL     1      -2.217  11.188  23.519  0.00  0.00    +0.000 HD
ENDBRANCH   2  24
BRANCH  10  26
ATOM     26  O   UNL     1      -0.452  12.054  18.708  0.00  0.00    +0.000 OA
ATOM     27  C   UNL     1       0.337  13.233  18.529  0.00  0.00    +0.000 C 
ENDBRANCH  10  26
TORSDOF 3
ENDMDL
MODEL 4
REMARK VINA RESULT:      -7.7      1.770      8.254
REMARK  Name = 
REMARK  5 active torsions:
REMARK  status: ('A' for Active; 'I' for Inactive)
REMARK    1  A    between atoms: C_1  and  O_2
REMARK    2  A    between atoms: O_2  and  C_3
REMARK    3  A    between atoms: C_4  and  O_5
REMARK    4  A    between atoms: C_13  and  O_14
REMARK    5  A    between atoms: O_14  and  C_15
REMARK                            x       y       z     vdW  Elec       q    Type
REMARK                         _______ _______ _______ _____ _____    ______ ____
ROOT
ATOM      1  C   UNL     1       5.403   4.598  17.896  0.00  0.00    +0.000 A 
ATOM      2  C   UNL     1       4.780   4.125  19.055  0.00  0.00    +0.000 A 
ATOM      3  C   UNL     1       3.768   4.858  19.677  0.00  0.00    +0.000 A 
ATOM      4  C   UNL     1       3.362   6.092  19.186  0.00  0.00    +0.000 A 
ATOM      5  C   UNL     1       2.399   6.822  19.879  0.00  0.00    +0.000 A 
ATOM      6  C   UNL     1       1.979   8.064  19.408  0.00  0.00    +0.000 A 
ATOM      7  N   UNL     1       2.479   8.528  18.228  0.00  0.00    +0.000 N 
ATOM      8  C   UNL     1       3.441   7.840  17.557  0.00  0.00    +0.000 A 
ATOM      9  C   UNL     1       3.928   6.597  18.009  0.00  0.00    +0.000 A 
ATOM     10  C   UNL     1       4.945   5.828  17.353  0.00  0.00    +0.000 A 
ATOM     11  C   UNL     1       2.001   9.828  17.674  0.00  0.00    +0.000 C 
ATOM     12  C   UNL     1       0.496   9.955  17.887  0.00  0.00    +0.000 C 
ATOM     13  C   UNL     1       0.234   9.856  19.366  0.00  0.00    +0.000 A 
ATOM     14  C   UNL     1      -0.717  10.682  19.988  0.00  0.00    +0.000 A 
ATOM     15  C   UNL     1      -0.826  10.610  21.357  0.00  0.00    +0.000 A 
ATOM     16  C   UNL     1      -0.070   9.735  22.094  0.00  0.00    +0.000 A 
ATOM     17  C   UNL     1       0.830   8.869  21.506  0.00  0.00    +0.000 A 
ATOM     18  C   UNL     1       1.004   8.919  20.109  0.00  0.00    +0.000 A 
ATOM     19  O   UNL     1      -0.297   9.849  23.429  0.00  0.00    +0.000 OA
ATOM     20  C   UNL     1      -1.205  10.974  23.455  0.00  0.00    +0.000 C 
ATOM     21  O   UNL     1      -1.627  11.384  22.135  0.00  0.00    +0.000 OA
ENDROOT
BRANCH   1  23
ATOM     22  C   UNL     1       7.799   4.380  17.530  0.00  0.00    +0.000 C 
ATOM     23  O   UNL     1       6.458   4.014  17.254  0.00  0.00    +0.000 OA
ENDBRANCH   1  23
BRANCH   2  24
ATOM     24  O   UNL     1       5.055   2.957  19.704  0.00  0.00    +0.000 OA
ATOM     25  H   UNL     1       6.012   2.835  19.774  0.00  0.00    +0.000 HD
ENDBRANCH   2  24
BRANCH  10  26
ATOM     26  O   UNL     1       5.445   6.433  16.210  0.00  0.00    +0.000 OA
ATOM     27  C   UNL     1       5.379   5.693  14.988  0.00  0.00    +0.000 C 
ENDBRANCH  10  26
TORSDOF 3
ENDMDL
MODEL 5
REMARK VINA RESULT:      -7.7      1.887      3.613
REMARK  Name = 
REMARK  5 active torsions:
REMARK  status: ('A' for Active; 'I' for Inactive)
REMARK    1  A    between atoms: C_1  and  O_2
REMARK    2  A    between atoms: O_2  and  C_3
REMARK    3  A    between atoms: C_4  and  O_5
REMARK    4  A    between atoms: C_13  and  O_14
REMARK    5  A    between atoms: O_14  and  C_15
REMARK                            x       y       z     vdW  Elec       q    Type
REMARK                         _______ _______ _______ _____ _____    ______ ____
ROOT
ATOM      1  C   UNL     1      -0.227  11.154  21.637  0.00  0.00    +0.000 A 
ATOM      2  C   UNL     1      -0.175  10.104  22.558  0.00  0.00    +0.000 A 
ATOM      3  C   UNL     1       0.448   8.897  22.238  0.00  0.00    +0.000 A 
ATOM      4  C   UNL     1       1.014   8.684  20.987  0.00  0.00    +0.000 A 
ATOM      5  C   UNL     1       1.563   7.440  20.686  0.00  0.00    +0.000 A 
ATOM      6  C   UNL     1       2.132   7.203  19.437  0.00  0.00    +0.000 A 
ATOM      7  N   UNL     1       2.199   8.222  18.536  0.00  0.00    +0.000 N 
ATOM      8  C   UNL     1       1.641   9.432  18.805  0.00  0.00    +0.000 A 
ATOM      9  C   UNL     1       1.020   9.714  20.038  0.00  0.00    +0.000 A 
ATOM     10  C   UNL     1       0.407  10.964  20.380  0.00  0.00    +0.000 A 
ATOM     11  C   UNL     1       2.856   8.007  17.213  0.00  0.00    +0.000 C 
ATOM     12  C   UNL     1       4.110   7.159  17.394  0.00  0.00    +0.000 C 
ATOM     13  C   UNL     1       3.694   5.855  18.021  0.00  0.00    +0.000 A 
ATOM     14  C   UNL     1       4.261   4.640  17.605  0.00  0.00    +0.000 A 
ATOM     15  C   UNL     1       3.755   3.481  18.146  0.00  0.00    +0.000 A 
ATOM     16  C   UNL     1       2.762   3.502  19.092  0.00  0.00    +0.000 A 
ATOM     17  C   UNL     1       2.226   4.683  19.564  0.00  0.00    +0.000 A 
ATOM     18  C   UNL     1       2.686   5.900  19.024  0.00  0.00    +0.000 A 
ATOM     19  O   UNL     1       2.374   2.254  19.466  0.00  0.00    +0.000 OA
ATOM     20  C   UNL     1       3.163   1.444  18.566  0.00  0.00    +0.000 C 
ATOM     21  O   UNL     1       4.120   2.217  17.808  0.00  0.00    +0.000 OA
ENDROOT
BRANCH   1  23
ATOM     22  C   UNL     1      -2.263  12.483  21.514  0.00  0.00    +0.000 C 
ATOM     23  O   UNL     1      -0.883  12.341  21.805  0.00  0.00    +0.000 OA
ENDBRANCH   1  23
BRANCH   2  24
ATOM     24  O   UNL     1      -0.694  10.106  23.820  0.00  0.00    +0.000 OA
ATOM     25  H   UNL     1      -0.506   9.264  24.256  0.00  0.00    +0.000 HD
ENDBRANCH   2  24
BRANCH  10  26
ATOM     26  O   UNL     1       0.457  11.902  19.360  0.00  0.00    +0.000 OA
ATOM     27  C   UNL     1       1.459  12.919  19.443  0.00  0.00    +0.000 C 
ENDBRANCH  10  26
TORSDOF 3
ENDMDL
MODEL 6
REMARK VINA RESULT:      -7.5      1.214      1.446
REMARK  Name = 
REMARK  5 active torsions:
REMARK  status: ('A' for Active; 'I' for Inactive)
REMARK    1  A    between atoms: C_1  and  O_2
REMARK    2  A    between atoms: O_2  and  C_3
REMARK    3  A    between atoms: C_4  and  O_5
REMARK    4  A    between atoms: C_13  and  O_14
REMARK    5  A    between atoms: O_14  and  C_15
REMARK                            x       y       z     vdW  Elec       q    Type
REMARK                         _______ _______ _______ _____ _____    ______ ____
ROOT
ATOM      1  C   UNL     1       0.235  11.998  20.616  0.00  0.00    +0.000 A 
ATOM      2  C   UNL     1       0.535  12.106  19.255  0.00  0.00    +0.000 A 
ATOM      3  C   UNL     1       1.069  11.027  18.549  0.00  0.00    +0.000 A 
ATOM      4  C   UNL     1       1.347   9.819  19.175  0.00  0.00    +0.000 A 
ATOM      5  C   UNL     1       1.947   8.792  18.448  0.00  0.00    +0.000 A 
ATOM      6  C   UNL     1       2.239   7.574  19.057  0.00  0.00    +0.000 A 
ATOM      7  N   UNL     1       1.876   7.378  20.355  0.00  0.00    +0.000 N 
ATOM      8  C   UNL     1       1.319   8.381  21.085  0.00  0.00    +0.000 A 
ATOM      9  C   UNL     1       1.035   9.645  20.529  0.00  0.00    +0.000 A 
ATOM     10  C   UNL     1       0.457  10.744  21.246  0.00  0.00    +0.000 A 
ATOM     11  C   UNL     1       2.127   6.061  21.010  0.00  0.00    +0.000 C 
ATOM     12  C   UNL     1       1.824   4.934  20.029  0.00  0.00    +0.000 C 
ATOM     13  C   UNL     1       2.707   5.127  18.825  0.00  0.00    +0.000 A 
ATOM     14  C   UNL     1       3.319   4.031  18.195  0.00  0.00    +0.000 A 
ATOM     15  C   UNL     1       4.196   4.294  17.168  0.00  0.00    +0.000 A 
ATOM     16  C   UNL     1       4.436   5.573  16.737  0.00  0.00    +0.000 A 
ATOM     17  C   UNL     1       3.804   6.665  17.296  0.00  0.00    +0.000 A 
ATOM     18  C   UNL     1       2.918   6.458  18.371  0.00  0.00    +0.000 A 
ATOM     19  O   UNL     1       5.362   5.621  15.744  0.00  0.00    +0.000 OA
ATOM     20  C   UNL     1       5.758   4.233  15.675  0.00  0.00    +0.000 C 
ATOM     21  O   UNL     1       4.939   3.375  16.499  0.00  0.00    +0.000 OA
ENDROOT
BRANCH   1  23
ATOM     22  C   UNL     1       0.626  14.097  21.784  0.00  0.00    +0.000 C 
ATOM     23  O   UNL     1      -0.205  13.007  21.426  0.00  0.00    +0.000 OA
ENDBRANCH   1  23
BRANCH   2  24
ATOM     24  O   UNL     1       0.362  13.210  18.472  0.00  0.00    +0.000 OA
ATOM     25  H   UNL     1      -0.540  13.229  18.123  0.00  0.00    +0.000 HD
ENDBRANCH   2  24
BRANCH  10  26
ATOM     26  O   UNL     1       0.207  10.464  22.580  0.00  0.00    +0.000 OA
ATOM     27  C   UNL     1      -1.157  10.451  23.009  0.00  0.00    +0.000 C 
ENDBRANCH  10  26
TORSDOF 3
ENDMDL
MODEL 7
REMARK VINA RESULT:      -7.5      1.858      7.661
REMARK  Name = 
REMARK  5 active torsions:
REMARK  status: ('A' for Active; 'I' for Inactive)
REMARK    1  A    between atoms: C_1  and  O_2
REMARK    2  A    between atoms: O_2  and  C_3
REMARK    3  A    between atoms: C_4  and  O_5
REMARK    4  A    between atoms: C_13  and  O_14
REMARK    5  A    between atoms: O_14  and  C_15
REMARK                            x       y       z     vdW  Elec       q    Type
REMARK                         _______ _______ _______ _____ _____    ______ ____
ROOT
ATOM      1  C   UNL     1       5.321   5.384  17.256  0.00  0.00    +0.000 A 
ATOM      2  C   UNL     1       5.083   6.372  16.295  0.00  0.00    +0.000 A 
ATOM      3  C   UNL     1       4.152   7.387  16.523  0.00  0.00    +0.000 A 
ATOM      4  C   UNL     1       3.410   7.439  17.696  0.00  0.00    +0.000 A 
ATOM      5  C   UNL     1       2.441   8.428  17.850  0.00  0.00    +0.000 A 
ATOM      6  C   UNL     1       1.682   8.496  19.016  0.00  0.00    +0.000 A 
ATOM      7  N   UNL     1       1.941   7.621  20.028  0.00  0.00    +0.000 N 
ATOM      8  C   UNL     1       2.862   6.632  19.879  0.00  0.00    +0.000 A 
ATOM      9  C   UNL     1       3.632   6.494  18.706  0.00  0.00    +0.000 A 
ATOM     10  C   UNL     1       4.611   5.471  18.484  0.00  0.00    +0.000 A 
ATOM     11  C   UNL     1       1.181   7.712  21.308  0.00  0.00    +0.000 C 
ATOM     12  C   UNL     1       0.993   9.177  21.690  0.00  0.00    +0.000 C 
ATOM     13  C   UNL     1       0.258   9.853  20.563  0.00  0.00    +0.000 A 
ATOM     14  C   UNL     1      -0.750  10.795  20.821  0.00  0.00    +0.000 A 
ATOM     15  C   UNL     1      -1.450  11.291  19.745  0.00  0.00    +0.000 A 
ATOM     16  C   UNL     1      -1.152  10.919  18.460  0.00  0.00    +0.000 A 
ATOM     17  C   UNL     1      -0.127  10.041  18.171  0.00  0.00    +0.000 A 
ATOM     18  C   UNL     1       0.605   9.479  19.235  0.00  0.00    +0.000 A 
ATOM     19  O   UNL     1      -1.984  11.488  17.548  0.00  0.00    +0.000 OA
ATOM     20  C   UNL     1      -2.911  12.175  18.418  0.00  0.00    +0.000 C 
ATOM     21  O   UNL     1      -2.507  12.143  19.805  0.00  0.00    +0.000 OA
ENDROOT
BRANCH   1  23
ATOM     22  C   UNL     1       7.546   4.400  17.228  0.00  0.00    +0.000 C 
ATOM     23  O   UNL     1       6.138   4.299  17.110  0.00  0.00    +0.000 OA
ENDBRANCH   1  23
BRANCH   2  24
ATOM     24  O   UNL     1       5.686   6.478  15.076  0.00  0.00    +0.000 OA
ATOM     25  H   UNL     1       5.157   7.041  14.494  0.00  0.00    +0.000 HD
ENDBRANCH   2  24
BRANCH  10  26
ATOM     26  O   UNL     1       4.733   4.583  19.542  0.00  0.00    +0.000 OA
ATOM     27  C   UNL     1       4.072   3.321  19.426  0.00  0.00    +0.000 C 
ENDBRANCH  10  26
TORSDOF 3
ENDMDL
MODEL 8
REMARK VINA RESULT:      -7.3      2.621      4.361
REMARK  Name = 
REMARK  5 active torsions:
REMARK  status: ('A' for Active; 'I' for Inactive)
REMARK    1  A    between atoms: C_1  and  O_2
REMARK    2  A    between atoms: O_2  and  C_3
REMARK    3  A    between atoms: C_4  and  O_5
REMARK    4  A    between atoms: C_13  and  O_14
REMARK    5  A    between atoms: O_14  and  C_15
REMARK                            x       y       z     vdW  Elec       q    Type
REMARK                         _______ _______ _______ _____ _____    ______ ____
ROOT
ATOM      1  C   UNL     1      -0.464  12.651  20.897  0.00  0.00    +0.000 A 
ATOM      2  C   UNL     1      -0.500  11.893  22.072  0.00  0.00    +0.000 A 
ATOM      3  C   UNL     1       0.034  10.604  22.112  0.00  0.00    +0.000 A 
ATOM      4  C   UNL     1       0.595  10.018  20.985  0.00  0.00    +0.000 A 
ATOM      5  C   UNL     1       1.051   8.703  21.052  0.00  0.00    +0.000 A 
ATOM      6  C   UNL     1       1.613   8.093  19.932  0.00  0.00    +0.000 A 
ATOM      7  N   UNL     1       1.766   8.819  18.789  0.00  0.00    +0.000 N 
ATOM      8  C   UNL     1       1.298  10.092  18.701  0.00  0.00    +0.000 A 
ATOM      9  C   UNL     1       0.688  10.745  19.791  0.00  0.00    +0.000 A 
ATOM     10  C   UNL     1       0.167  12.080  19.760  0.00  0.00    +0.000 A 
ATOM     11  C   UNL     1       2.418   8.204  17.596  0.00  0.00    +0.000 C 
ATOM     12  C   UNL     1       3.603   7.353  18.040  0.00  0.00    +0.000 C 
ATOM     13  C   UNL     1       3.083   6.303  18.985  0.00  0.00    +0.000 A 
ATOM     14  C   UNL     1       3.562   4.984  18.934  0.00  0.00    +0.000 A 
ATOM     15  C   UNL     1       2.965   4.056  19.755  0.00  0.00    +0.000 A 
ATOM     16  C   UNL     1       1.967   4.405  20.629  0.00  0.00    +0.000 A 
ATOM     17  C   UNL     1       1.516   5.705  20.744  0.00  0.00    +0.000 A 
ATOM     18  C   UNL     1       2.072   6.692  19.907  0.00  0.00    +0.000 A 
ATOM     19  O   UNL     1       1.483   3.338  21.318  0.00  0.00    +0.000 OA
ATOM     20  C   UNL     1       2.217   2.259  20.697  0.00  0.00    +0.000 C 
ATOM     21  O   UNL     1       3.236   2.726  19.786  0.00  0.00    +0.000 OA
ENDROOT
BRANCH   1  23
ATOM     22  C   UNL     1      -0.464  15.056  21.271  0.00  0.00    +0.000 C 
ATOM     23  O   UNL     1      -1.030  13.881  20.715  0.00  0.00    +0.000 OA
ENDBRANCH   1  23
BRANCH   2  24
ATOM     24  O   UNL     1      -1.030  12.278  23.269  0.00  0.00    +0.000 OA
ATOM     25  H   UNL     1      -1.332  11.502  23.761  0.00  0.00    +0.000 HD
ENDBRANCH   2  24
BRANCH  10  26
ATOM     26  O   UNL     1       0.297  12.696  18.524  0.00  0.00    +0.000 OA
ATOM     27  C   UNL     1       1.475  13.473  18.293  0.00  0.00    +0.000 C 
ENDBRANCH  10  26
TORSDOF 3
ENDMDL
MODEL 9
REMARK VINA RESULT:      -7.0      2.041      7.652
REMARK  Name = 
REMARK  5 active torsions:
REMARK  status: ('A' for Active; 'I' for Inactive)
REMARK    1  A    between atoms: C_1  and  O_2
REMARK    2  A    between atoms: O_2  and  C_3
REMARK    3  A    between atoms: C_4  and  O_5
REMARK    4  A    between atoms: C_13  and  O_14
REMARK    5  A    between atoms: O_14  and  C_15
REMARK                            x       y       z     vdW  Elec       q    Type
REMARK                         _______ _______ _______ _____ _____    ______ ____
ROOT
ATOM      1  C   UNL     1       3.505   4.228  18.587  0.00  0.00    +0.000 A 
ATOM      2  C   UNL     1       3.890   5.178  17.635  0.00  0.00    +0.000 A 
ATOM      3  C   UNL     1       3.502   6.513  17.755  0.00  0.00    +0.000 A 
ATOM      4  C   UNL     1       2.700   6.942  18.804  0.00  0.00    +0.000 A 
ATOM      5  C   UNL     1       2.277   8.269  18.845  0.00  0.00    +0.000 A 
ATOM      6  C   UNL     1       1.469   8.721  19.886  0.00  0.00    +0.000 A 
ATOM      7  N   UNL     1       1.147   7.864  20.894  0.00  0.00    +0.000 N 
ATOM      8  C   UNL     1       1.526   6.559  20.851  0.00  0.00    +0.000 A 
ATOM      9  C   UNL     1       2.314   6.040  19.804  0.00  0.00    +0.000 A 
ATOM     10  C   UNL     1       2.739   4.676  19.696  0.00  0.00    +0.000 A 
ATOM     11  C   UNL     1       0.330   8.341  22.048  0.00  0.00    +0.000 C 
ATOM     12  C   UNL     1       0.775   9.744  22.447  0.00  0.00    +0.000 C 
ATOM     13  C   UNL     1       0.607  10.636  21.247  0.00  0.00    +0.000 A 
ATOM     14  C   UNL     1       0.113  11.943  21.382  0.00  0.00    +0.000 A 
ATOM     15  C   UNL     1      -0.115  12.661  20.231  0.00  0.00    +0.000 A 
ATOM     16  C   UNL     1       0.169  12.145  18.993  0.00  0.00    +0.000 A 
ATOM     17  C   UNL     1       0.712  10.886  18.831  0.00  0.00    +0.000 A 
ATOM     18  C   UNL     1       0.938  10.094  19.974  0.00  0.00    +0.000 A 
ATOM     19  O   UNL     1      -0.166  12.995  17.986  0.00  0.00    +0.000 OA
ATOM     20  C   UNL     1      -0.796  14.062  18.730  0.00  0.00    +0.000 C 
ATOM     21  O   UNL     1      -0.662  13.902  20.160  0.00  0.00    +0.000 OA
ENDROOT
BRANCH   1  23
ATOM     22  C   UNL     1       2.986   2.020  17.705  0.00  0.00    +0.000 C 
ATOM     23  O   UNL     1       3.749   2.885  18.528  0.00  0.00    +0.000 OA
ENDBRANCH   1  23
BRANCH   2  24
ATOM     24  O   UNL     1       4.649   4.951  16.524  0.00  0.00    +0.000 OA
ATOM     25  H   UNL     1       4.637   5.730  15.951  0.00  0.00    +0.000 HD
ENDBRANCH   2  24
BRANCH  10  26
ATOM     26  O   UNL     1       2.284   3.871  20.730  0.00  0.00    +0.000 OA
ATOM     27  C   UNL     1       1.019   3.227  20.559  0.00  0.00    +0.000 C 
ENDBRANCH  10  26
TORSDOF 3
ENDMDL
