MODEL 1
REMARK VINA RESULT:      -7.7      0.000      0.000
REMARK  Name = 
REMARK  5 active torsions:
REMARK  status: ('A' for Active; 'I' for Inactive)
REMARK    1  A    between atoms: C_1  and  O_2
REMARK    2  A    between atoms: O_2  and  C_3
REMARK    3  A    between atoms: C_3  and  C_4
REMARK    4  A    between atoms: C_7  and  O_8
REMARK    5  A    between atoms: O_8  and  C_9
REMARK                            x       y       z     vdW  Elec       q    Type
REMARK                         _______ _______ _______ _____ _____    ______ ____
ROOT
ATOM      1  C   UNL     1       5.623   6.514  17.586  0.00  0.00    +0.000 C 
ATOM      2  C   UNL     1       5.907   5.941  18.962  0.00  0.00    +0.000 C 
ATOM      3  C   UNL     1       4.931   5.366  19.682  0.00  0.00    +0.000 C 
ATOM      4  C   UNL     1       3.633   4.964  18.992  0.00  0.00    +0.000 C 
ATOM      5  C   UNL     1       3.968   3.543  18.474  0.00  0.00    +0.000 C 
ATOM      6  C   UNL     1       3.014   2.991  17.426  0.00  0.00    +0.000 C 
ATOM      7  C   UNL     1       1.928   2.163  18.081  0.00  0.00    +0.000 C 
ATOM      8  C   UNL     1       0.947   3.024  18.860  0.00  0.00    +0.000 C 
ATOM      9  C   UNL     1       1.529   3.728  20.094  0.00  0.00    +0.000 C 
ATOM     10  C   UNL     1       2.369   5.010  19.890  0.00  0.00    +0.000 C 
ATOM     11  O   UNL     1       3.354   5.803  17.833  0.00  0.00    +0.000 OA
ATOM     12  O   UNL     1       4.260   6.990  17.760  0.00  0.00    +0.000 OA
ENDROOT
BRANCH   1  13
ATOM     13  C   UNL     1       5.767   5.552  16.388  0.00  0.00    +0.000 A 
ATOM     14  C   UNL     1       6.557   4.400  16.446  0.00  0.00    +0.000 A 
ATOM     15  C   UNL     1       6.699   3.573  15.319  0.00  0.00    +0.000 A 
ATOM     16  C   UNL     1       6.044   3.865  14.120  0.00  0.00    +0.000 A 
ATOM     17  C   UNL     1       5.313   5.044  14.021  0.00  0.00    +0.000 A 
ATOM     18  C   UNL     1       5.181   5.873  15.140  0.00  0.00    +0.000 A 
BRANCH  16  19
ATOM     19  O   UNL     1       6.262   2.993  13.103  0.00  0.00    +0.000 OA
BRANCH  19  20
ATOM     20  C   UNL     1       6.734   3.483  11.850  0.00  0.00    +0.000 C 
ATOM     21  F   UNL     1       7.513   4.579  11.937  0.00  0.00    +0.000 F 
ATOM     22  F   UNL     1       7.430   2.506  11.227  0.00  0.00    +0.000 F 
ATOM     23  F   UNL     1       5.668   3.794  11.084  0.00  0.00    +0.000 F 
ENDBRANCH  19  20
ENDBRANCH  16  19
ENDBRANCH   1  13
BRANCH   1  25
ATOM     24  C   UNL     1       7.846   7.340  18.060  0.00  0.00    +0.000 C 
ATOM     25  O   UNL     1       6.582   7.576  17.467  0.00  0.00    +0.000 OA
ENDBRANCH   1  25
TORSDOF 4
ENDMDL
MODEL 2
REMARK VINA RESULT:      -7.6      0.798      1.105
REMARK  Name = 
REMARK  5 active torsions:
REMARK  status: ('A' for Active; 'I' for Inactive)
REMARK    1  A    between atoms: C_1  and  O_2
REMARK    2  A    between atoms: O_2  and  C_3
REMARK    3  A    between atoms: C_3  and  C_4
REMARK    4  A    between atoms: C_7  and  O_8
REMARK    5  A    between atoms: O_8  and  C_9
REMARK                            x       y       z     vdW  Elec       q    Type
REMARK                         _______ _______ _______ _____ _____    ______ ____
ROOT
ATOM      1  C   UNL     1       5.809   6.448  17.596  0.00  0.00    +0.000 C 
ATOM      2  C   UNL     1       6.117   5.767  18.917  0.00  0.00    +0.000 C 
ATOM      3  C   UNL     1       5.147   5.168  19.625  0.00  0.00    +0.000 C 
ATOM      4  C   UNL     1       3.816   4.855  18.950  0.00  0.00    +0.000 C 
ATOM      5  C   UNL     1       4.092   3.467  18.319  0.00  0.00    +0.000 C 
ATOM      6  C   UNL     1       3.090   3.021  17.266  0.00  0.00    +0.000 C 
ATOM      7  C   UNL     1       2.000   2.178  17.895  0.00  0.00    +0.000 C 
ATOM      8  C   UNL     1       1.070   3.007  18.767  0.00  0.00    +0.000 C 
ATOM      9  C   UNL     1       1.710   3.601  20.028  0.00  0.00    +0.000 C 
ATOM     10  C   UNL     1       2.583   4.870  19.890  0.00  0.00    +0.000 C 
ATOM     11  O   UNL     1       3.527   5.785  17.865  0.00  0.00    +0.000 OA
ATOM     12  O   UNL     1       4.467   6.948  17.849  0.00  0.00    +0.000 OA
ENDROOT
BRANCH   1  13
ATOM     13  C   UNL     1       5.886   5.573  16.327  0.00  0.00    +0.000 A 
ATOM     14  C   UNL     1       6.595   4.368  16.293  0.00  0.00    +0.000 A 
ATOM     15  C   UNL     1       6.680   3.622  15.105  0.00  0.00    +0.000 A 
ATOM     16  C   UNL     1       6.047   4.050  13.935  0.00  0.00    +0.000 A 
ATOM     17  C   UNL     1       5.399   5.281  13.931  0.00  0.00    +0.000 A 
ATOM     18  C   UNL     1       5.324   6.028  15.111  0.00  0.00    +0.000 A 
BRANCH  16  19
ATOM     19  O   UNL     1       6.204   3.246  12.854  0.00  0.00    +0.000 OA
BRANCH  19  20
ATOM     20  C   UNL     1       5.122   3.083  11.939  0.00  0.00    +0.000 C 
ATOM     21  F   UNL     1       3.900   3.154  12.503  0.00  0.00    +0.000 F 
ATOM     22  F   UNL     1       5.211   4.028  10.977  0.00  0.00    +0.000 F 
ATOM     23  F   UNL     1       5.237   1.874  11.352  0.00  0.00    +0.000 F 
ENDBRANCH  19  20
ENDBRANCH  16  19
ENDBRANCH   1  13
BRANCH   1  25
ATOM     24  C   UNL     1       7.998   7.254  18.235  0.00  0.00    +0.000 C 
ATOM     25  O   UNL     1       6.796   7.488  17.524  0.00  0.00    +0.000 OA
ENDBRANCH   1  25
TORSDOF 4
ENDMDL
MODEL 3
REMARK VINA RESULT:      -7.5      0.196      1.236
REMARK  Name = 
REMARK  5 active torsions:
REMARK  status: ('A' for Active; 'I' for Inactive)
REMARK    1  A    between atoms: C_1  and  O_2
REMARK    2  A    between atoms: O_2  and  C_3
REMARK    3  A    between atoms: C_3  and  C_4
REMARK    4  A    between atoms: C_7  and  O_8
REMARK    5  A    between atoms: O_8  and  C_9
REMARK                            x       y       z     vdW  Elec       q    Type
REMARK                         _______ _______ _______ _____ _____    ______ ____
ROOT
ATOM      1  C   UNL     1       5.826   6.547  17.574  0.00  0.00    +0.000 C 
ATOM      2  C   UNL     1       6.132   5.913  18.919  0.00  0.00    +0.000 C 
ATOM      3  C   UNL     1       5.164   5.325  19.638  0.00  0.00    +0.000 C 
ATOM      4  C   UNL     1       3.843   4.973  18.963  0.00  0.00    +0.000 C 
ATOM      5  C   UNL     1       4.141   3.570  18.380  0.00  0.00    +0.000 C 
ATOM      6  C   UNL     1       3.154   3.076  17.334  0.00  0.00    +0.000 C 
ATOM      7  C   UNL     1       2.069   2.240  17.981  0.00  0.00    +0.000 C 
ATOM      8  C   UNL     1       1.121   3.085  18.817  0.00  0.00    +0.000 C 
ATOM      9  C   UNL     1       1.743   3.728  20.064  0.00  0.00    +0.000 C 
ATOM     10  C   UNL     1       2.601   5.003  19.892  0.00  0.00    +0.000 C 
ATOM     11  O   UNL     1       3.552   5.864  17.846  0.00  0.00    +0.000 OA
ATOM     12  O   UNL     1       4.477   7.037  17.800  0.00  0.00    +0.000 OA
ENDROOT
BRANCH   1  13
ATOM     13  C   UNL     1       5.926   5.632  16.335  0.00  0.00    +0.000 A 
ATOM     14  C   UNL     1       5.158   5.847  15.186  0.00  0.00    +0.000 A 
ATOM     15  C   UNL     1       5.244   4.965  14.095  0.00  0.00    +0.000 A 
ATOM     16  C   UNL     1       6.106   3.866  14.118  0.00  0.00    +0.000 A 
ATOM     17  C   UNL     1       6.823   3.596  15.280  0.00  0.00    +0.000 A 
ATOM     18  C   UNL     1       6.729   4.468  16.369  0.00  0.00    +0.000 A 
BRANCH  16  19
ATOM     19  O   UNL     1       6.098   3.088  13.007  0.00  0.00    +0.000 OA
BRANCH  19  20
ATOM     20  C   UNL     1       6.767   3.539  11.831  0.00  0.00    +0.000 C 
ATOM     21  F   UNL     1       7.543   2.609  11.240  0.00  0.00    +0.000 F 
ATOM     22  F   UNL     1       5.848   3.968  10.937  0.00  0.00    +0.000 F 
ATOM     23  F   UNL     1       7.552   4.584  12.161  0.00  0.00    +0.000 F 
ENDBRANCH  19  20
ENDBRANCH  16  19
ENDBRANCH   1  13
BRANCH   1  25
ATOM     24  C   UNL     1       7.999   7.402  18.206  0.00  0.00    +0.000 C 
ATOM     25  O   UNL     1       6.801   7.597  17.476  0.00  0.00    +0.000 OA
ENDBRANCH   1  25
TORSDOF 4
ENDMDL
MODEL 4
REMARK VINA RESULT:      -7.2      0.850      1.366
REMARK  Name = 
REMARK  5 active torsions:
REMARK  status: ('A' for Active; 'I' for Inactive)
REMARK    1  A    between atoms: C_1  and  O_2
REMARK    2  A    between atoms: O_2  and  C_3
REMARK    3  A    between atoms: C_3  and  C_4
REMARK    4  A    between atoms: C_7  and  O_8
REMARK    5  A    between atoms: O_8  and  C_9
REMARK                            x       y       z     vdW  Elec       q    Type
REMARK                         _______ _______ _______ _____ _____    ______ ____
ROOT
ATOM      1  C   UNL     1       5.723   6.583  17.543  0.00  0.00    +0.000 C 
ATOM      2  C   UNL     1       6.028   5.920  18.874  0.00  0.00    +0.000 C 
ATOM      3  C   UNL     1       5.074   5.255  19.545  0.00  0.00    +0.000 C 
ATOM      4  C   UNL     1       3.792   4.857  18.822  0.00  0.00    +0.000 C 
ATOM      5  C   UNL     1       4.183   3.493  18.201  0.00  0.00    +0.000 C 
ATOM      6  C   UNL     1       3.252   2.984  17.111  0.00  0.00    +0.000 C 
ATOM      7  C   UNL     1       2.198   2.069  17.698  0.00  0.00    +0.000 C 
ATOM      8  C   UNL     1       1.183   2.831  18.535  0.00  0.00    +0.000 C 
ATOM      9  C   UNL     1       1.736   3.463  19.820  0.00  0.00    +0.000 C 
ATOM     10  C   UNL     1       2.527   4.788  19.716  0.00  0.00    +0.000 C 
ATOM     11  O   UNL     1       3.483   5.769  17.727  0.00  0.00    +0.000 OA
ATOM     12  O   UNL     1       4.343   6.992  17.747  0.00  0.00    +0.000 OA
ENDROOT
BRANCH   1  13
ATOM     13  C   UNL     1       5.905   5.719  16.278  0.00  0.00    +0.000 A 
ATOM     14  C   UNL     1       5.334   6.066  15.049  0.00  0.00    +0.000 A 
ATOM     15  C   UNL     1       5.485   5.230  13.929  0.00  0.00    +0.000 A 
ATOM     16  C   UNL     1       6.221   4.044  14.005  0.00  0.00    +0.000 A 
ATOM     17  C   UNL     1       6.734   3.648  15.236  0.00  0.00    +0.000 A 
ATOM     18  C   UNL     1       6.574   4.475  16.352  0.00  0.00    +0.000 A 
BRANCH  16  19
ATOM     19  O   UNL     1       6.292   3.321  12.859  0.00  0.00    +0.000 OA
BRANCH  19  20
ATOM     20  C   UNL     1       5.120   3.154  12.063  0.00  0.00    +0.000 C 
ATOM     21  F   UNL     1       4.942   4.106  11.126  0.00  0.00    +0.000 F 
ATOM     22  F   UNL     1       5.170   1.949  11.452  0.00  0.00    +0.000 F 
ATOM     23  F   UNL     1       4.045   3.169  12.877  0.00  0.00    +0.000 F 
ENDBRANCH  19  20
ENDBRANCH  16  19
ENDBRANCH   1  13
BRANCH   1  25
ATOM     24  C   UNL     1       7.935   7.435  18.027  0.00  0.00    +0.000 C 
ATOM     25  O   UNL     1       6.641   7.686  17.508  0.00  0.00    +0.000 OA
ENDBRANCH   1  25
TORSDOF 4
ENDMDL
MODEL 5
REMARK VINA RESULT:      -7.0      1.245      1.463
REMARK  Name = 
REMARK  5 active torsions:
REMARK  status: ('A' for Active; 'I' for Inactive)
REMARK    1  A    between atoms: C_1  and  O_2
REMARK    2  A    between atoms: O_2  and  C_3
REMARK    3  A    between atoms: C_3  and  C_4
REMARK    4  A    between atoms: C_7  and  O_8
REMARK    5  A    between atoms: O_8  and  C_9
REMARK                            x       y       z     vdW  Elec       q    Type
REMARK                         _______ _______ _______ _____ _____    ______ ____
ROOT
ATOM      1  C   UNL     1       6.523   6.499  17.287  0.00  0.00    +0.000 C 
ATOM      2  C   UNL     1       6.818   5.742  18.569  0.00  0.00    +0.000 C 
ATOM      3  C   UNL     1       5.821   5.289  19.344  0.00  0.00    +0.000 C 
ATOM      4  C   UNL     1       4.408   5.214  18.776  0.00  0.00    +0.000 C 
ATOM      5  C   UNL     1       4.403   3.818  18.105  0.00  0.00    +0.000 C 
ATOM      6  C   UNL     1       3.262   3.569  17.131  0.00  0.00    +0.000 C 
ATOM      7  C   UNL     1       2.101   2.897  17.834  0.00  0.00    +0.000 C 
ATOM      8  C   UNL     1       1.391   3.841  18.790  0.00  0.00    +0.000 C 
ATOM      9  C   UNL     1       2.216   4.290  20.004  0.00  0.00    +0.000 C 
ATOM     10  C   UNL     1       3.272   5.404  19.813  0.00  0.00    +0.000 C 
ATOM     11  O   UNL     1       4.192   6.208  17.731  0.00  0.00    +0.000 OA
ATOM     12  O   UNL     1       5.305   7.203  17.655  0.00  0.00    +0.000 OA
ENDROOT
BRANCH   1  13
ATOM     13  C   UNL     1       6.357   5.658  16.003  0.00  0.00    +0.000 A 
ATOM     14  C   UNL     1       7.076   4.478  15.786  0.00  0.00    +0.000 A 
ATOM     15  C   UNL     1       6.931   3.764  14.585  0.00  0.00    +0.000 A 
ATOM     16  C   UNL     1       6.056   4.198  13.585  0.00  0.00    +0.000 A 
ATOM     17  C   UNL     1       5.388   5.407  13.754  0.00  0.00    +0.000 A 
ATOM     18  C   UNL     1       5.542   6.123  14.945  0.00  0.00    +0.000 A 
BRANCH  16  19
ATOM     19  O   UNL     1       6.005   3.427  12.471  0.00  0.00    +0.000 OA
BRANCH  19  20
ATOM     20  C   UNL     1       4.741   3.137  11.877  0.00  0.00    +0.000 C 
ATOM     21  F   UNL     1       4.691   1.962  11.220  0.00  0.00    +0.000 F 
ATOM     22  F   UNL     1       3.791   3.137  12.838  0.00  0.00    +0.000 F 
ATOM     23  F   UNL     1       4.449   4.116  10.996  0.00  0.00    +0.000 F 
ENDBRANCH  19  20
ENDBRANCH  16  19
ENDBRANCH   1  13
BRANCH   1  25
ATOM     24  C   UNL     1       7.542   8.643  17.753  0.00  0.00    +0.000 C 
ATOM     25  O   UNL     1       7.659   7.367  17.149  0.00  0.00    +0.000 OA
ENDBRANCH   1  25
TORSDOF 4
ENDMDL
MODEL 6
REMARK VINA RESULT:      -7.0      2.286      3.756
REMARK  Name = 
REMARK  5 active torsions:
REMARK  status: ('A' for Active; 'I' for Inactive)
REMARK    1  A    between atoms: C_1  and  O_2
REMARK    2  A    between atoms: O_2  and  C_3
REMARK    3  A    between atoms: C_3  and  C_4
REMARK    4  A    between atoms: C_7  and  O_8
REMARK    5  A    between atoms: O_8  and  C_9
REMARK                            x       y       z     vdW  Elec       q    Type
REMARK                         _______ _______ _______ _____ _____    ______ ____
ROOT
ATOM      1  C   UNL     1       4.215   3.670  19.255  0.00  0.00    +0.000 C 
ATOM      2  C   UNL     1       2.708   3.491  19.291  0.00  0.00    +0.000 C 
ATOM      3  C   UNL     1       1.901   4.516  19.604  0.00  0.00    +0.000 C 
ATOM      4  C   UNL     1       2.454   5.937  19.574  0.00  0.00    +0.000 C 
ATOM      5  C   UNL     1       2.241   6.336  18.093  0.00  0.00    +0.000 C 
ATOM      6  C   UNL     1       3.010   7.564  17.633  0.00  0.00    +0.000 C 
ATOM      7  C   UNL     1       2.156   8.808  17.771  0.00  0.00    +0.000 C 
ATOM      8  C   UNL     1       1.946   9.195  19.226  0.00  0.00    +0.000 C 
ATOM      9  C   UNL     1       1.115   8.205  20.054  0.00  0.00    +0.000 C 
ATOM     10  C   UNL     1       1.796   6.919  20.578  0.00  0.00    +0.000 C 
ATOM     11  O   UNL     1       3.888   5.966  19.838  0.00  0.00    +0.000 OA
ATOM     12  O   UNL     1       4.403   4.646  20.316  0.00  0.00    +0.000 OA
ENDROOT
BRANCH   1  13
ATOM     13  C   UNL     1       4.830   4.126  17.915  0.00  0.00    +0.000 A 
ATOM     14  C   UNL     1       4.138   4.027  16.703  0.00  0.00    +0.000 A 
ATOM     15  C   UNL     1       4.749   4.410  15.498  0.00  0.00    +0.000 A 
ATOM     16  C   UNL     1       6.052   4.915  15.475  0.00  0.00    +0.000 A 
ATOM     17  C   UNL     1       6.781   4.953  16.659  0.00  0.00    +0.000 A 
ATOM     18  C   UNL     1       6.175   4.561  17.858  0.00  0.00    +0.000 A 
BRANCH  16  19
ATOM     19  O   UNL     1       6.533   5.248  14.251  0.00  0.00    +0.000 OA
BRANCH  19  20
ATOM     20  C   UNL     1       6.492   4.287  13.197  0.00  0.00    +0.000 C 
ATOM     21  F   UNL     1       5.303   4.197  12.570  0.00  0.00    +0.000 F 
ATOM     22  F   UNL     1       7.441   4.591  12.285  0.00  0.00    +0.000 F 
ATOM     23  F   UNL     1       6.778   3.074  13.715  0.00  0.00    +0.000 F 
ENDBRANCH  19  20
ENDBRANCH  16  19
ENDBRANCH   1  13
BRANCH   1  25
ATOM     24  C   UNL     1       3.979   1.270  19.070  0.00  0.00    +0.000 C 
ATOM     25  O   UNL     1       4.710   2.365  19.592  0.00  0.00    +0.000 OA
ENDBRANCH   1  25
TORSDOF 4
ENDMDL
MODEL 7
REMARK VINA RESULT:      -6.8      4.956      7.720
REMARK  Name = 
REMARK  5 active torsions:
REMARK  status: ('A' for Active; 'I' for Inactive)
REMARK    1  A    between atoms: C_1  and  O_2
REMARK    2  A    between atoms: O_2  and  C_3
REMARK    3  A    between atoms: C_3  and  C_4
REMARK    4  A    between atoms: C_7  and  O_8
REMARK    5  A    between atoms: O_8  and  C_9
REMARK                            x       y       z     vdW  Elec       q    Type
REMARK                         _______ _______ _______ _____ _____    ______ ____
ROOT
ATOM      1  C   UNL     1       2.018   3.661  18.050  0.00  0.00    +0.000 C 
ATOM      2  C   UNL     1       3.043   2.623  18.468  0.00  0.00    +0.000 C 
ATOM      3  C   UNL     1       4.289   2.648  17.970  0.00  0.00    +0.000 C 
ATOM      4  C   UNL     1       4.788   3.908  17.269  0.00  0.00    +0.000 C 
ATOM      5  C   UNL     1       5.338   4.740  18.454  0.00  0.00    +0.000 C 
ATOM      6  C   UNL     1       5.586   6.210  18.156  0.00  0.00    +0.000 C 
ATOM      7  C   UNL     1       7.023   6.431  17.731  0.00  0.00    +0.000 C 
ATOM      8  C   UNL     1       7.303   5.862  16.350  0.00  0.00    +0.000 C 
ATOM      9  C   UNL     1       7.223   4.333  16.242  0.00  0.00    +0.000 C 
ATOM     10  C   UNL     1       5.830   3.667  16.147  0.00  0.00    +0.000 C 
ATOM     11  O   UNL     1       3.693   4.662  16.670  0.00  0.00    +0.000 OA
ATOM     12  O   UNL     1       2.409   3.897  16.670  0.00  0.00    +0.000 OA
ENDROOT
BRANCH   1  13
ATOM     13  C   UNL     1       1.963   4.960  18.881  0.00  0.00    +0.000 A 
ATOM     14  C   UNL     1       1.762   4.953  20.266  0.00  0.00    +0.000 A 
ATOM     15  C   UNL     1       1.674   6.159  20.981  0.00  0.00    +0.000 A 
ATOM     16  C   UNL     1       1.801   7.393  20.338  0.00  0.00    +0.000 A 
ATOM     17  C   UNL     1       1.929   7.421  18.953  0.00  0.00    +0.000 A 
ATOM     18  C   UNL     1       2.006   6.220  18.240  0.00  0.00    +0.000 A 
BRANCH  16  19
ATOM     19  O   UNL     1       1.694   8.486  21.135  0.00  0.00    +0.000 OA
BRANCH  19  20
ATOM     20  C   UNL     1       0.405   9.039  21.395  0.00  0.00    +0.000 C 
ATOM     21  F   UNL     1      -0.568   8.125  21.573  0.00  0.00    +0.000 F 
ATOM     22  F   UNL     1       0.474   9.819  22.497  0.00  0.00    +0.000 F 
ATOM     23  F   UNL     1       0.056   9.817  20.350  0.00  0.00    +0.000 F 
ENDBRANCH  19  20
ENDBRANCH  16  19
ENDBRANCH   1  13
BRANCH   1  25
ATOM     24  C   UNL     1       0.768   1.847  19.050  0.00  0.00    +0.000 C 
ATOM     25  O   UNL     1       0.771   2.959  18.173  0.00  0.00    +0.000 OA
ENDBRANCH   1  25
TORSDOF 4
ENDMDL
MODEL 8
REMARK VINA RESULT:      -6.8      4.160      6.436
REMARK  Name = 
REMARK  5 active torsions:
REMARK  status: ('A' for Active; 'I' for Inactive)
REMARK    1  A    between atoms: C_1  and  O_2
REMARK    2  A    between atoms: O_2  and  C_3
REMARK    3  A    between atoms: C_3  and  C_4
REMARK    4  A    between atoms: C_7  and  O_8
REMARK    5  A    between atoms: O_8  and  C_9
REMARK                            x       y       z     vdW  Elec       q    Type
REMARK                         _______ _______ _______ _____ _____    ______ ____
ROOT
ATOM      1  C   UNL     1       6.725   5.351  18.532  0.00  0.00    +0.000 C 
ATOM      2  C   UNL     1       6.928   6.643  17.760  0.00  0.00    +0.000 C 
ATOM      3  C   UNL     1       7.256   6.621  16.458  0.00  0.00    +0.000 C 
ATOM      4  C   UNL     1       7.078   5.331  15.665  0.00  0.00    +0.000 C 
ATOM      5  C   UNL     1       5.605   5.438  15.201  0.00  0.00    +0.000 C 
ATOM      6  C   UNL     1       4.989   4.146  14.687  0.00  0.00    +0.000 C 
ATOM      7  C   UNL     1       5.135   4.050  13.183  0.00  0.00    +0.000 C 
ATOM      8  C   UNL     1       6.576   3.806  12.765  0.00  0.00    +0.000 C 
ATOM      9  C   UNL     1       7.548   4.958  13.056  0.00  0.00    +0.000 C 
ATOM     10  C   UNL     1       8.079   5.134  14.497  0.00  0.00    +0.000 C 
ATOM     11  O   UNL     1       7.190   4.153  16.516  0.00  0.00    +0.000 OA
ATOM     12  O   UNL     1       7.696   4.485  17.883  0.00  0.00    +0.000 OA
ENDROOT
BRANCH   1  13
ATOM     13  C   UNL     1       5.302   4.754  18.527  0.00  0.00    +0.000 A 
ATOM     14  C   UNL     1       4.163   5.540  18.321  0.00  0.00    +0.000 A 
ATOM     15  C   UNL     1       2.881   4.967  18.370  0.00  0.00    +0.000 A 
ATOM     16  C   UNL     1       2.707   3.601  18.606  0.00  0.00    +0.000 A 
ATOM     17  C   UNL     1       3.823   2.818  18.884  0.00  0.00    +0.000 A 
ATOM     18  C   UNL     1       5.098   3.391  18.846  0.00  0.00    +0.000 A 
BRANCH  16  19
ATOM     19  O   UNL     1       1.422   3.167  18.632  0.00  0.00    +0.000 OA
BRANCH  19  20
ATOM     20  C   UNL     1       0.748   3.051  19.884  0.00  0.00    +0.000 C 
ATOM     21  F   UNL     1       0.519   4.225  20.504  0.00  0.00    +0.000 F 
ATOM     22  F   UNL     1      -0.435   2.425  19.692  0.00  0.00    +0.000 F 
ATOM     23  F   UNL     1       1.499   2.289  20.705  0.00  0.00    +0.000 F 
ENDBRANCH  19  20
ENDBRANCH  16  19
ENDBRANCH   1  13
BRANCH   1  25
ATOM     24  C   UNL     1       8.401   5.346  20.276  0.00  0.00    +0.000 C 
ATOM     25  O   UNL     1       7.092   5.709  19.873  0.00  0.00    +0.000 OA
ENDBRANCH   1  25
TORSDOF 4
ENDMDL
MODEL 9
REMARK VINA RESULT:      -6.7      4.837      7.503
REMARK  Name = 
REMARK  5 active torsions:
REMARK  status: ('A' for Active; 'I' for Inactive)
REMARK    1  A    between atoms: C_1  and  O_2
REMARK    2  A    between atoms: O_2  and  C_3
REMARK    3  A    between atoms: C_3  and  C_4
REMARK    4  A    between atoms: C_7  and  O_8
REMARK    5  A    between atoms: O_8  and  C_9
REMARK                            x       y       z     vdW  Elec       q    Type
REMARK                         _______ _______ _______ _____ _____    ______ ____
ROOT
ATOM      1  C   UNL     1       2.226   4.239  18.885  0.00  0.00    +0.000 C 
ATOM      2  C   UNL     1       3.349   3.534  19.623  0.00  0.00    +0.000 C 
ATOM      3  C   UNL     1       4.579   3.456  19.091  0.00  0.00    +0.000 C 
ATOM      4  C   UNL     1       4.948   4.369  17.927  0.00  0.00    +0.000 C 
ATOM      5  C   UNL     1       5.440   5.642  18.658  0.00  0.00    +0.000 C 
ATOM      6  C   UNL     1       5.547   6.889  17.794  0.00  0.00    +0.000 C 
ATOM      7  C   UNL     1       6.951   7.033  17.243  0.00  0.00    +0.000 C 
ATOM      8  C   UNL     1       7.257   5.987  16.183  0.00  0.00    +0.000 C 
ATOM      9  C   UNL     1       7.316   4.539  16.690  0.00  0.00    +0.000 C 
ATOM     10  C   UNL     1       5.988   3.785  16.937  0.00  0.00    +0.000 C 
ATOM     11  O   UNL     1       3.779   4.737  17.137  0.00  0.00    +0.000 OA
ATOM     12  O   UNL     1       2.570   3.938  17.505  0.00  0.00    +0.000 OA
ENDROOT
BRANCH   1  13
ATOM     13  C   UNL     1       2.067   5.752  19.140  0.00  0.00    +0.000 A 
ATOM     14  C   UNL     1       1.878   6.277  20.423  0.00  0.00    +0.000 A 
ATOM     15  C   UNL     1       1.692   7.658  20.610  0.00  0.00    +0.000 A 
ATOM     16  C   UNL     1       1.709   8.543  19.529  0.00  0.00    +0.000 A 
ATOM     17  C   UNL     1       1.824   8.031  18.240  0.00  0.00    +0.000 A 
ATOM     18  C   UNL     1       1.998   6.656  18.054  0.00  0.00    +0.000 A 
BRANCH  16  19
ATOM     19  O   UNL     1       1.515   9.850  19.836  0.00  0.00    +0.000 OA
BRANCH  19  20
ATOM     20  C   UNL     1       0.263  10.463  19.533  0.00  0.00    +0.000 C 
ATOM     21  F   UNL     1       0.085  10.751  18.229  0.00  0.00    +0.000 F 
ATOM     22  F   UNL     1      -0.736   9.648  19.938  0.00  0.00    +0.000 F 
ATOM     23  F   UNL     1       0.173  11.616  20.228  0.00  0.00    +0.000 F 
ENDBRANCH  19  20
ENDBRANCH  16  19
ENDBRANCH   1  13
BRANCH   1  25
ATOM     24  C   UNL     1       0.827   2.268  18.777  0.00  0.00    +0.000 C 
ATOM     25  O   UNL     1       1.051   3.549  19.339  0.00  0.00    +0.000 OA
ENDBRANCH   1  25
TORSDOF 4
ENDMDL
