MODEL 1
REMARK VINA RESULT:      -7.6      0.000      0.000
REMARK  Name = 
REMARK  6 active torsions:
REMARK  status: ('A' for Active; 'I' for Inactive)
REMARK    1  A    between atoms: C_2  and  C_4
REMARK    2  A    between atoms: C_4  and  S_5
REMARK    3  A    between atoms: S_5  and  C_6
REMARK    4  A    between atoms: C_8  and  C_9
REMARK    5  A    between atoms: C_15  and  S_16
REMARK    6  A    between atoms: S_16  and  C_19
REMARK                            x       y       z     vdW  Elec       q    Type
REMARK                         _______ _______ _______ _____ _____    ______ ____
ROOT
ATOM      1  C   UNL     1       2.885   4.820  20.038  0.00  0.00    +0.000 A 
ATOM      2  O   UNL     1       1.973   5.845  19.929  0.00  0.00    +0.000 OA
ATOM      3  C   UNL     1       2.634   6.870  19.289  0.00  0.00    +0.000 A 
ATOM      4  N   UNL     1       3.888   6.576  19.000  0.00  0.00    +0.000 NA
ATOM      5  C   UNL     1       4.051   5.273  19.447  0.00  0.00    +0.000 A 
ENDROOT
BRANCH   3   6
ATOM      6  C   UNL     1       2.030   8.136  18.964  0.00  0.00    +0.000 A 
ATOM      7  C   UNL     1       1.213   8.928  19.757  0.00  0.00    +0.000 A 
ATOM      8  C   UNL     1       0.873  10.079  19.003  0.00  0.00    +0.000 A 
ATOM      9  C   UNL     1       1.497   9.928  17.790  0.00  0.00    +0.000 A 
ATOM     10  O   UNL     1       2.198   8.766  17.754  0.00  0.00    +0.000 OA
ENDBRANCH   3   6
BRANCH   5  11
ATOM     11  S   UNL     1       5.527   4.392  19.241  0.00  0.00    +0.000 S 
ATOM     12  O   UNL     1       6.553   5.181  19.889  0.00  0.00    +0.000 OA
ATOM     13  O   UNL     1       5.235   3.039  19.679  0.00  0.00    +0.000 OA
BRANCH  11  14
ATOM     14  C   UNL     1       5.850   4.329  17.497  0.00  0.00    +0.000 A 
ATOM     15  C   UNL     1       4.800   4.093  16.603  0.00  0.00    +0.000 A 
ATOM     16  C   UNL     1       5.045   4.132  15.227  0.00  0.00    +0.000 A 
ATOM     17  C   UNL     1       6.329   4.412  14.757  0.00  0.00    +0.000 A 
ATOM     18 BR   UNL     1       6.651   4.481  12.896  0.00  0.00    +0.000 Br
ATOM     19  C   UNL     1       7.374   4.658  15.650  0.00  0.00    +0.000 A 
ATOM     20  C   UNL     1       7.135   4.620  17.026  0.00  0.00    +0.000 A 
ENDBRANCH  11  14
ENDBRANCH   5  11
BRANCH   1  21
ATOM     21  S   UNL     1       2.518   3.321  20.850  0.00  0.00    +0.000 S 
BRANCH  21  22
ATOM     22  C   UNL     1       1.340   2.532  19.716  0.00  0.00    +0.000 C 
BRANCH  22  24
ATOM     23  N   UNL     1       3.015   1.458  18.275  0.00  0.00    +0.000 N 
ATOM     24  C   UNL     1       1.991   2.362  18.351  0.00  0.00    +0.000 C 
ATOM     25  O   UNL     1       1.666   3.013  17.362  0.00  0.00    +0.000 OA
ATOM     26  H   UNL     1       3.403   1.275  17.357  0.00  0.00    +0.000 HD
ATOM     27  H   UNL     1       3.200   0.787  19.009  0.00  0.00    +0.000 HD
ENDBRANCH  22  24
ENDBRANCH  21  22
ENDBRANCH   1  21
TORSDOF 6
ENDMDL
MODEL 2
REMARK VINA RESULT:      -7.6      3.304      6.844
REMARK  Name = 
REMARK  6 active torsions:
REMARK  status: ('A' for Active; 'I' for Inactive)
REMARK    1  A    between atoms: C_2  and  C_4
REMARK    2  A    between atoms: C_4  and  S_5
REMARK    3  A    between atoms: S_5  and  C_6
REMARK    4  A    between atoms: C_8  and  C_9
REMARK    5  A    between atoms: C_15  and  S_16
REMARK    6  A    between atoms: S_16  and  C_19
REMARK                            x       y       z     vdW  Elec       q    Type
REMARK                         _______ _______ _______ _____ _____    ______ ____
ROOT
ATOM      1  C   UNL     1       6.007   4.913  17.604  0.00  0.00    +0.000 A 
ATOM      2  O   UNL     1       6.739   5.129  16.459  0.00  0.00    +0.000 OA
ATOM      3  C   UNL     1       6.093   4.429  15.464  0.00  0.00    +0.000 A 
ATOM      4  N   UNL     1       5.025   3.783  15.894  0.00  0.00    +0.000 NA
ATOM      5  C   UNL     1       4.947   4.102  17.242  0.00  0.00    +0.000 A 
ENDROOT
BRANCH   3   6
ATOM      6  C   UNL     1       6.529   4.397  14.091  0.00  0.00    +0.000 A 
ATOM      7  C   UNL     1       6.127   3.536  13.081  0.00  0.00    +0.000 A 
ATOM      8  C   UNL     1       6.830   3.901  11.906  0.00  0.00    +0.000 A 
ATOM      9  C   UNL     1       7.625   4.962  12.260  0.00  0.00    +0.000 A 
ATOM     10  O   UNL     1       7.451   5.273  13.570  0.00  0.00    +0.000 OA
ENDBRANCH   3   6
BRANCH   5  11
ATOM     11  S   UNL     1       3.663   3.544  18.261  0.00  0.00    +0.000 S 
ATOM     12  O   UNL     1       2.736   2.854  17.390  0.00  0.00    +0.000 OA
ATOM     13  O   UNL     1       4.313   2.853  19.359  0.00  0.00    +0.000 OA
BRANCH  11  14
ATOM     14  C   UNL     1       2.875   4.986  18.931  0.00  0.00    +0.000 A 
ATOM     15  C   UNL     1       2.294   4.936  20.203  0.00  0.00    +0.000 A 
ATOM     16  C   UNL     1       1.753   6.099  20.760  0.00  0.00    +0.000 A 
ATOM     17  C   UNL     1       1.802   7.298  20.049  0.00  0.00    +0.000 A 
ATOM     18 BR   UNL     1       1.085   8.871  20.814  0.00  0.00    +0.000 Br
ATOM     19  C   UNL     1       2.391   7.350  18.784  0.00  0.00    +0.000 A 
ATOM     20  C   UNL     1       2.933   6.192  18.221  0.00  0.00    +0.000 A 
ENDBRANCH  11  14
ENDBRANCH   5  11
BRANCH   1  21
ATOM     21  S   UNL     1       6.484   5.550  19.156  0.00  0.00    +0.000 S 
BRANCH  21  22
ATOM     22  C   UNL     1       8.155   6.181  18.829  0.00  0.00    +0.000 C 
BRANCH  22  24
ATOM     23  N   UNL     1       7.335   7.779  17.153  0.00  0.00    +0.000 N 
ATOM     24  C   UNL     1       8.062   7.604  18.298  0.00  0.00    +0.000 C 
ATOM     25  O   UNL     1       8.629   8.558  18.822  0.00  0.00    +0.000 OA
ATOM     26  H   UNL     1       7.197   8.730  16.834  0.00  0.00    +0.000 HD
ATOM     27  H   UNL     1       6.720   7.063  16.789  0.00  0.00    +0.000 HD
ENDBRANCH  22  24
ENDBRANCH  21  22
ENDBRANCH   1  21
TORSDOF 6
ENDMDL
MODEL 3
REMARK VINA RESULT:      -7.6      0.533      1.114
REMARK  Name = 
REMARK  6 active torsions:
REMARK  status: ('A' for Active; 'I' for Inactive)
REMARK    1  A    between atoms: C_2  and  C_4
REMARK    2  A    between atoms: C_4  and  S_5
REMARK    3  A    between atoms: S_5  and  C_6
REMARK    4  A    between atoms: C_8  and  C_9
REMARK    5  A    between atoms: C_15  and  S_16
REMARK    6  A    between atoms: S_16  and  C_19
REMARK                            x       y       z     vdW  Elec       q    Type
REMARK                         _______ _______ _______ _____ _____    ______ ____
ROOT
ATOM      1  C   UNL     1       2.904   4.925  20.179  0.00  0.00    +0.000 A 
ATOM      2  O   UNL     1       1.991   5.952  20.097  0.00  0.00    +0.000 OA
ATOM      3  C   UNL     1       2.605   6.940  19.359  0.00  0.00    +0.000 A 
ATOM      4  N   UNL     1       3.829   6.621  18.983  0.00  0.00    +0.000 NA
ATOM      5  C   UNL     1       4.020   5.338  19.476  0.00  0.00    +0.000 A 
ENDROOT
BRANCH   3   6
ATOM      6  C   UNL     1       1.984   8.196  19.025  0.00  0.00    +0.000 A 
ATOM      7  C   UNL     1       1.167   8.989  19.817  0.00  0.00    +0.000 A 
ATOM      8  C   UNL     1       0.807  10.127  19.054  0.00  0.00    +0.000 A 
ATOM      9  C   UNL     1       1.419   9.967  17.835  0.00  0.00    +0.000 A 
ATOM     10  O   UNL     1       2.132   8.812  17.806  0.00  0.00    +0.000 OA
ENDBRANCH   3   6
BRANCH   5  11
ATOM     11  S   UNL     1       5.470   4.434  19.193  0.00  0.00    +0.000 S 
ATOM     12  O   UNL     1       6.536   5.192  19.811  0.00  0.00    +0.000 OA
ATOM     13  O   UNL     1       5.171   3.080  19.619  0.00  0.00    +0.000 OA
BRANCH  11  14
ATOM     14  C   UNL     1       5.718   4.398  17.436  0.00  0.00    +0.000 A 
ATOM     15  C   UNL     1       6.985   4.665  16.906  0.00  0.00    +0.000 A 
ATOM     16  C   UNL     1       7.194   4.549  15.528  0.00  0.00    +0.000 A 
ATOM     17  C   UNL     1       6.143   4.163  14.696  0.00  0.00    +0.000 A 
ATOM     18 BR   UNL     1       6.436   3.990  12.836  0.00  0.00    +0.000 Br
ATOM     19  C   UNL     1       4.881   3.886  15.227  0.00  0.00    +0.000 A 
ATOM     20  C   UNL     1       4.666   4.001  16.603  0.00  0.00    +0.000 A 
ENDBRANCH  11  14
ENDBRANCH   5  11
BRANCH   1  21
ATOM     21  S   UNL     1       2.595   3.468  21.087  0.00  0.00    +0.000 S 
BRANCH  21  22
ATOM     22  C   UNL     1       0.975   2.943  20.458  0.00  0.00    +0.000 C 
BRANCH  22  24
ATOM     23  N   UNL     1       2.413   1.746  18.865  0.00  0.00    +0.000 N 
ATOM     24  C   UNL     1       1.160   2.227  19.127  0.00  0.00    +0.000 C 
ATOM     25  O   UNL     1       0.265   2.107  18.296  0.00  0.00    +0.000 OA
ATOM     26  H   UNL     1       2.530   1.198  18.021  0.00  0.00    +0.000 HD
ATOM     27  H   UNL     1       3.124   1.672  19.581  0.00  0.00    +0.000 HD
ENDBRANCH  22  24
ENDBRANCH  21  22
ENDBRANCH   1  21
TORSDOF 6
ENDMDL
MODEL 4
REMARK VINA RESULT:      -7.5      3.684      7.231
REMARK  Name = 
REMARK  6 active torsions:
REMARK  status: ('A' for Active; 'I' for Inactive)
REMARK    1  A    between atoms: C_2  and  C_4
REMARK    2  A    between atoms: C_4  and  S_5
REMARK    3  A    between atoms: S_5  and  C_6
REMARK    4  A    between atoms: C_8  and  C_9
REMARK    5  A    between atoms: C_15  and  S_16
REMARK    6  A    between atoms: S_16  and  C_19
REMARK                            x       y       z     vdW  Elec       q    Type
REMARK                         _______ _______ _______ _____ _____    ______ ____
ROOT
ATOM      1  C   UNL     1       7.046   5.900  17.122  0.00  0.00    +0.000 A 
ATOM      2  O   UNL     1       7.466   5.801  15.815  0.00  0.00    +0.000 OA
ATOM      3  C   UNL     1       6.659   4.849  15.233  0.00  0.00    +0.000 A 
ATOM      4  N   UNL     1       5.778   4.335  16.070  0.00  0.00    +0.000 NA
ATOM      5  C   UNL     1       5.997   5.011  17.262  0.00  0.00    +0.000 A 
ENDROOT
BRANCH   3   6
ATOM      6  C   UNL     1       6.758   4.447  13.853  0.00  0.00    +0.000 A 
ATOM      7  C   UNL     1       7.578   4.966  12.863  0.00  0.00    +0.000 A 
ATOM      8  C   UNL     1       7.320   4.241  11.673  0.00  0.00    +0.000 A 
ATOM      9  C   UNL     1       6.355   3.321  11.998  0.00  0.00    +0.000 A 
ATOM     10  O   UNL     1       6.010   3.432  13.306  0.00  0.00    +0.000 OA
ENDBRANCH   3   6
BRANCH   5  11
ATOM     11  S   UNL     1       5.039   4.741  18.679  0.00  0.00    +0.000 S 
ATOM     12  O   UNL     1       4.375   3.472  18.473  0.00  0.00    +0.000 OA
ATOM     13  O   UNL     1       5.940   4.941  19.799  0.00  0.00    +0.000 OA
BRANCH  11  14
ATOM     14  C   UNL     1       3.826   6.035  18.734  0.00  0.00    +0.000 A 
ATOM     15  C   UNL     1       2.986   6.157  19.846  0.00  0.00    +0.000 A 
ATOM     16  C   UNL     1       2.093   7.230  19.921  0.00  0.00    +0.000 A 
ATOM     17  C   UNL     1       2.051   8.173  18.894  0.00  0.00    +0.000 A 
ATOM     18 BR   UNL     1       0.855   9.632  19.009  0.00  0.00    +0.000 Br
ATOM     19  C   UNL     1       2.897   8.057  17.788  0.00  0.00    +0.000 A 
ATOM     20  C   UNL     1       3.791   6.986  17.707  0.00  0.00    +0.000 A 
ENDBRANCH  11  14
ENDBRANCH   5  11
BRANCH   1  21
ATOM     21  S   UNL     1       7.827   6.944  18.280  0.00  0.00    +0.000 S 
BRANCH  21  22
ATOM     22  C   UNL     1       7.617   8.588  17.540  0.00  0.00    +0.000 C 
BRANCH  22  24
ATOM     23  N   UNL     1       9.104   9.143  19.415  0.00  0.00    +0.000 N 
ATOM     24  C   UNL     1       8.508   9.586  18.266  0.00  0.00    +0.000 C 
ATOM     25  O   UNL     1       8.671  10.743  17.890  0.00  0.00    +0.000 OA
ATOM     26  H   UNL     1       9.762   9.769  19.864  0.00  0.00    +0.000 HD
ATOM     27  H   UNL     1       9.134   8.164  19.666  0.00  0.00    +0.000 HD
ENDBRANCH  22  24
ENDBRANCH  21  22
ENDBRANCH   1  21
TORSDOF 6
ENDMDL
MODEL 5
REMARK VINA RESULT:      -7.5      3.388      6.890
REMARK  Name = 
REMARK  6 active torsions:
REMARK  status: ('A' for Active; 'I' for Inactive)
REMARK    1  A    between atoms: C_2  and  C_4
REMARK    2  A    between atoms: C_4  and  S_5
REMARK    3  A    between atoms: S_5  and  C_6
REMARK    4  A    between atoms: C_8  and  C_9
REMARK    5  A    between atoms: C_15  and  S_16
REMARK    6  A    between atoms: S_16  and  C_19
REMARK                            x       y       z     vdW  Elec       q    Type
REMARK                         _______ _______ _______ _____ _____    ______ ____
ROOT
ATOM      1  C   UNL     1       5.838   4.902  17.497  0.00  0.00    +0.000 A 
ATOM      2  O   UNL     1       6.645   5.061  16.394  0.00  0.00    +0.000 OA
ATOM      3  C   UNL     1       5.988   4.439  15.355  0.00  0.00    +0.000 A 
ATOM      4  N   UNL     1       4.843   3.893  15.720  0.00  0.00    +0.000 NA
ATOM      5  C   UNL     1       4.726   4.201  17.068  0.00  0.00    +0.000 A 
ENDROOT
BRANCH   3   6
ATOM      6  C   UNL     1       6.488   4.384  14.006  0.00  0.00    +0.000 A 
ATOM      7  C   UNL     1       6.132   3.508  12.992  0.00  0.00    +0.000 A 
ATOM      8  C   UNL     1       6.891   3.851  11.846  0.00  0.00    +0.000 A 
ATOM      9  C   UNL     1       7.673   4.915  12.220  0.00  0.00    +0.000 A 
ATOM     10  O   UNL     1       7.439   5.248  13.516  0.00  0.00    +0.000 OA
ENDBRANCH   3   6
BRANCH   5  11
ATOM     11  S   UNL     1       3.345   3.755  18.012  0.00  0.00    +0.000 S 
ATOM     12  O   UNL     1       2.335   3.336  17.064  0.00  0.00    +0.000 OA
ATOM     13  O   UNL     1       3.845   2.844  19.025  0.00  0.00    +0.000 OA
BRANCH  11  14
ATOM     14  C   UNL     1       2.795   5.224  18.843  0.00  0.00    +0.000 A 
ATOM     15  C   UNL     1       2.772   6.444  18.159  0.00  0.00    +0.000 A 
ATOM     16  C   UNL     1       2.256   7.579  18.791  0.00  0.00    +0.000 A 
ATOM     17  C   UNL     1       1.762   7.486  20.092  0.00  0.00    +0.000 A 
ATOM     18 BR   UNL     1       1.048   9.020  20.935  0.00  0.00    +0.000 Br
ATOM     19  C   UNL     1       1.775   6.266  20.771  0.00  0.00    +0.000 A 
ATOM     20  C   UNL     1       2.291   5.128  20.145  0.00  0.00    +0.000 A 
ENDBRANCH  11  14
ENDBRANCH   5  11
BRANCH   1  21
ATOM     21  S   UNL     1       6.295   5.471  19.081  0.00  0.00    +0.000 S 
BRANCH  21  22
ATOM     22  C   UNL     1       8.013   6.002  18.834  0.00  0.00    +0.000 C 
BRANCH  22  24
ATOM     23  N   UNL     1       8.736   8.340  19.047  0.00  0.00    +0.000 N 
ATOM     24  C   UNL     1       8.029   7.430  18.309  0.00  0.00    +0.000 C 
ATOM     25  O   UNL     1       7.420   7.787  17.305  0.00  0.00    +0.000 OA
ATOM     26  H   UNL     1       8.822   9.275  18.667  0.00  0.00    +0.000 HD
ATOM     27  H   UNL     1       9.382   8.062  19.773  0.00  0.00    +0.000 HD
ENDBRANCH  22  24
ENDBRANCH  21  22
ENDBRANCH   1  21
TORSDOF 6
ENDMDL
MODEL 6
REMARK VINA RESULT:      -7.4      1.617      2.099
REMARK  Name = 
REMARK  6 active torsions:
REMARK  status: ('A' for Active; 'I' for Inactive)
REMARK    1  A    between atoms: C_2  and  C_4
REMARK    2  A    between atoms: C_4  and  S_5
REMARK    3  A    between atoms: S_5  and  C_6
REMARK    4  A    between atoms: C_8  and  C_9
REMARK    5  A    between atoms: C_15  and  S_16
REMARK    6  A    between atoms: S_16  and  C_19
REMARK                            x       y       z     vdW  Elec       q    Type
REMARK                         _______ _______ _______ _____ _____    ______ ____
ROOT
ATOM      1  C   UNL     1       3.141   4.872  18.784  0.00  0.00    +0.000 A 
ATOM      2  O   UNL     1       2.089   5.751  18.914  0.00  0.00    +0.000 OA
ATOM      3  C   UNL     1       2.638   7.010  18.815  0.00  0.00    +0.000 A 
ATOM      4  N   UNL     1       3.947   6.993  18.646  0.00  0.00    +0.000 NA
ATOM      5  C   UNL     1       4.273   5.645  18.600  0.00  0.00    +0.000 A 
ENDROOT
BRANCH   3   6
ATOM      6  C   UNL     1       1.872   8.228  18.886  0.00  0.00    +0.000 A 
ATOM      7  C   UNL     1       1.537   9.094  17.857  0.00  0.00    +0.000 A 
ATOM      8  C   UNL     1       0.771  10.147  18.417  0.00  0.00    +0.000 A 
ATOM      9  C   UNL     1       0.682   9.870  19.759  0.00  0.00    +0.000 A 
ATOM     10  O   UNL     1       1.337   8.718  20.054  0.00  0.00    +0.000 OA
ENDBRANCH   3   6
BRANCH   5  11
ATOM     11  S   UNL     1       5.888   5.083  18.327  0.00  0.00    +0.000 S 
ATOM     12  O   UNL     1       6.756   6.187  18.674  0.00  0.00    +0.000 OA
ATOM     13  O   UNL     1       5.978   3.813  19.023  0.00  0.00    +0.000 OA
BRANCH  11  14
ATOM     14  C   UNL     1       6.029   4.750  16.589  0.00  0.00    +0.000 A 
ATOM     15  C   UNL     1       7.190   5.118  15.901  0.00  0.00    +0.000 A 
ATOM     16  C   UNL     1       7.331   4.775  14.553  0.00  0.00    +0.000 A 
ATOM     17  C   UNL     1       6.319   4.064  13.908  0.00  0.00    +0.000 A 
ATOM     18 BR   UNL     1       6.522   3.586  12.090  0.00  0.00    +0.000 Br
ATOM     19  C   UNL     1       5.164   3.687  14.598  0.00  0.00    +0.000 A 
ATOM     20  C   UNL     1       5.018   4.028  15.945  0.00  0.00    +0.000 A 
ENDBRANCH  11  14
ENDBRANCH   5  11
BRANCH   1  21
ATOM     21  S   UNL     1       2.940   3.145  18.914  0.00  0.00    +0.000 S 
BRANCH  21  22
ATOM     22  C   UNL     1       3.000   2.871  20.708  0.00  0.00    +0.000 C 
BRANCH  22  24
ATOM     23  N   UNL     1       0.589   3.247  20.422  0.00  0.00    +0.000 N 
ATOM     24  C   UNL     1       1.581   2.809  21.256  0.00  0.00    +0.000 C 
ATOM     25  O   UNL     1       1.313   2.431  22.392  0.00  0.00    +0.000 OA
ATOM     26  H   UNL     1      -0.366   3.135  20.742  0.00  0.00    +0.000 HD
ATOM     27  H   UNL     1       0.742   3.403  19.434  0.00  0.00    +0.000 HD
ENDBRANCH  22  24
ENDBRANCH  21  22
ENDBRANCH   1  21
TORSDOF 6
ENDMDL
MODEL 7
REMARK VINA RESULT:      -7.4      3.752      7.237
REMARK  Name = 
REMARK  6 active torsions:
REMARK  status: ('A' for Active; 'I' for Inactive)
REMARK    1  A    between atoms: C_2  and  C_4
REMARK    2  A    between atoms: C_4  and  S_5
REMARK    3  A    between atoms: S_5  and  C_6
REMARK    4  A    between atoms: C_8  and  C_9
REMARK    5  A    between atoms: C_15  and  S_16
REMARK    6  A    between atoms: S_16  and  C_19
REMARK                            x       y       z     vdW  Elec       q    Type
REMARK                         _______ _______ _______ _____ _____    ______ ____
ROOT
ATOM      1  C   UNL     1       7.018   5.915  17.122  0.00  0.00    +0.000 A 
ATOM      2  O   UNL     1       7.444   5.792  15.819  0.00  0.00    +0.000 OA
ATOM      3  C   UNL     1       6.613   4.859  15.239  0.00  0.00    +0.000 A 
ATOM      4  N   UNL     1       5.710   4.379  16.074  0.00  0.00    +0.000 NA
ATOM      5  C   UNL     1       5.941   5.058  17.262  0.00  0.00    +0.000 A 
ENDROOT
BRANCH   3   6
ATOM      6  C   UNL     1       6.710   4.443  13.863  0.00  0.00    +0.000 A 
ATOM      7  C   UNL     1       5.991   3.451  13.213  0.00  0.00    +0.000 A 
ATOM      8  C   UNL     1       6.434   3.416  11.868  0.00  0.00    +0.000 A 
ATOM      9  C   UNL     1       7.402   4.385  11.768  0.00  0.00    +0.000 A 
ATOM     10  O   UNL     1       7.575   5.012  12.960  0.00  0.00    +0.000 OA
ENDBRANCH   3   6
BRANCH   5  11
ATOM     11  S   UNL     1       4.965   4.829  18.674  0.00  0.00    +0.000 S 
ATOM     12  O   UNL     1       4.206   3.620  18.439  0.00  0.00    +0.000 OA
ATOM     13  O   UNL     1       5.879   4.933  19.797  0.00  0.00    +0.000 OA
BRANCH  11  14
ATOM     14  C   UNL     1       3.855   6.211  18.761  0.00  0.00    +0.000 A 
ATOM     15  C   UNL     1       3.797   7.125  17.703  0.00  0.00    +0.000 A 
ATOM     16  C   UNL     1       2.858   8.161  17.739  0.00  0.00    +0.000 A 
ATOM     17  C   UNL     1       1.985   8.271  18.821  0.00  0.00    +0.000 A 
ATOM     18 BR   UNL     1       0.706   9.663  18.856  0.00  0.00    +0.000 Br
ATOM     19  C   UNL     1       2.036   7.352  19.871  0.00  0.00    +0.000 A 
ATOM     20  C   UNL     1       2.972   6.314  19.842  0.00  0.00    +0.000 A 
ENDBRANCH  11  14
ENDBRANCH   5  11
BRANCH   1  21
ATOM     21  S   UNL     1       7.822   6.944  18.278  0.00  0.00    +0.000 S 
BRANCH  21  22
ATOM     22  C   UNL     1       7.632   8.593  17.542  0.00  0.00    +0.000 C 
BRANCH  22  24
ATOM     23  N   UNL     1       9.116   9.126  19.426  0.00  0.00    +0.000 N 
ATOM     24  C   UNL     1       8.530   9.578  18.276  0.00  0.00    +0.000 C 
ATOM     25  O   UNL     1       8.709  10.734  17.904  0.00  0.00    +0.000 OA
ATOM     26  H   UNL     1       9.780   9.743  19.880  0.00  0.00    +0.000 HD
ATOM     27  H   UNL     1       9.135   8.145  19.674  0.00  0.00    +0.000 HD
ENDBRANCH  22  24
ENDBRANCH  21  22
ENDBRANCH   1  21
TORSDOF 6
ENDMDL
MODEL 8
REMARK VINA RESULT:      -7.3      0.854      1.001
REMARK  Name = 
REMARK  6 active torsions:
REMARK  status: ('A' for Active; 'I' for Inactive)
REMARK    1  A    between atoms: C_2  and  C_4
REMARK    2  A    between atoms: C_4  and  S_5
REMARK    3  A    between atoms: S_5  and  C_6
REMARK    4  A    between atoms: C_8  and  C_9
REMARK    5  A    between atoms: C_15  and  S_16
REMARK    6  A    between atoms: S_16  and  C_19
REMARK                            x       y       z     vdW  Elec       q    Type
REMARK                         _______ _______ _______ _____ _____    ______ ____
ROOT
ATOM      1  C   UNL     1       2.930   4.834  20.086  0.00  0.00    +0.000 A 
ATOM      2  O   UNL     1       2.005   5.847  19.974  0.00  0.00    +0.000 OA
ATOM      3  C   UNL     1       2.646   6.868  19.308  0.00  0.00    +0.000 A 
ATOM      4  N   UNL     1       3.898   6.582  19.005  0.00  0.00    +0.000 NA
ATOM      5  C   UNL     1       4.082   5.288  19.471  0.00  0.00    +0.000 A 
ENDROOT
BRANCH   3   6
ATOM      6  C   UNL     1       2.023   8.122  18.970  0.00  0.00    +0.000 A 
ATOM      7  C   UNL     1       2.022   8.780  17.749  0.00  0.00    +0.000 A 
ATOM      8  C   UNL     1       1.273   9.972  17.909  0.00  0.00    +0.000 A 
ATOM      9  C   UNL     1       0.860   9.982  19.218  0.00  0.00    +0.000 A 
ATOM     10  O   UNL     1       1.302   8.874  19.866  0.00  0.00    +0.000 OA
ENDBRANCH   3   6
BRANCH   5  11
ATOM     11  S   UNL     1       5.564   4.419  19.258  0.00  0.00    +0.000 S 
ATOM     12  O   UNL     1       6.591   5.229  19.879  0.00  0.00    +0.000 OA
ATOM     13  O   UNL     1       5.292   3.071  19.720  0.00  0.00    +0.000 OA
BRANCH  11  14
ATOM     14  C   UNL     1       5.863   4.334  17.511  0.00  0.00    +0.000 A 
ATOM     15  C   UNL     1       4.804   4.072  16.635  0.00  0.00    +0.000 A 
ATOM     16  C   UNL     1       5.030   4.093  15.255  0.00  0.00    +0.000 A 
ATOM     17  C   UNL     1       6.303   4.379  14.763  0.00  0.00    +0.000 A 
ATOM     18 BR   UNL     1       6.598   4.424  12.896  0.00  0.00    +0.000 Br
ATOM     19  C   UNL     1       7.358   4.651  15.637  0.00  0.00    +0.000 A 
ATOM     20  C   UNL     1       7.139   4.631  17.017  0.00  0.00    +0.000 A 
ENDBRANCH  11  14
ENDBRANCH   5  11
BRANCH   1  21
ATOM     21  S   UNL     1       2.591   3.345  20.929  0.00  0.00    +0.000 S 
BRANCH  21  22
ATOM     22  C   UNL     1       1.339   2.565  19.871  0.00  0.00    +0.000 C 
BRANCH  22  24
ATOM     23  N   UNL     1       1.216   3.771  17.734  0.00  0.00    +0.000 N 
ATOM     24  C   UNL     1       1.750   2.709  18.413  0.00  0.00    +0.000 C 
ATOM     25  O   UNL     1       2.485   1.914  17.838  0.00  0.00    +0.000 OA
ATOM     26  H   UNL     1       1.544   3.925  16.788  0.00  0.00    +0.000 HD
ATOM     27  H   UNL     1       0.750   4.535  18.205  0.00  0.00    +0.000 HD
ENDBRANCH  22  24
ENDBRANCH  21  22
ENDBRANCH   1  21
TORSDOF 6
ENDMDL
MODEL 9
REMARK VINA RESULT:      -7.3      1.408      1.683
REMARK  Name = 
REMARK  6 active torsions:
REMARK  status: ('A' for Active; 'I' for Inactive)
REMARK    1  A    between atoms: C_2  and  C_4
REMARK    2  A    between atoms: C_4  and  S_5
REMARK    3  A    between atoms: S_5  and  C_6
REMARK    4  A    between atoms: C_8  and  C_9
REMARK    5  A    between atoms: C_15  and  S_16
REMARK    6  A    between atoms: S_16  and  C_19
REMARK                            x       y       z     vdW  Elec       q    Type
REMARK                         _______ _______ _______ _____ _____    ______ ____
ROOT
ATOM      1  C   UNL     1       2.643   4.795  18.800  0.00  0.00    +0.000 A 
ATOM      2  O   UNL     1       1.711   5.808  18.824  0.00  0.00    +0.000 OA
ATOM      3  C   UNL     1       2.429   6.975  18.971  0.00  0.00    +0.000 A 
ATOM      4  N   UNL     1       3.731   6.775  19.053  0.00  0.00    +0.000 NA
ATOM      5  C   UNL     1       3.880   5.401  18.922  0.00  0.00    +0.000 A 
ENDROOT
BRANCH   3   6
ATOM      6  C   UNL     1       1.831   8.284  19.029  0.00  0.00    +0.000 A 
ATOM      7  C   UNL     1       1.663   9.199  18.001  0.00  0.00    +0.000 A 
ATOM      8  C   UNL     1       1.021  10.339  18.545  0.00  0.00    +0.000 A 
ATOM      9  C   UNL     1       0.833  10.061  19.877  0.00  0.00    +0.000 A 
ATOM     10  O   UNL     1       1.313   8.828  20.180  0.00  0.00    +0.000 OA
ENDBRANCH   3   6
BRANCH   5  11
ATOM     11  S   UNL     1       5.428   4.627  18.901  0.00  0.00    +0.000 S 
ATOM     12  O   UNL     1       6.333   5.531  19.578  0.00  0.00    +0.000 OA
ATOM     13  O   UNL     1       5.197   3.285  19.402  0.00  0.00    +0.000 OA
BRANCH  11  14
ATOM     14  C   UNL     1       5.909   4.485  17.198  0.00  0.00    +0.000 A 
ATOM     15  C   UNL     1       4.989   4.021  16.251  0.00  0.00    +0.000 A 
ATOM     16  C   UNL     1       5.346   3.995  14.900  0.00  0.00    +0.000 A 
ATOM     17  C   UNL     1       6.609   4.435  14.505  0.00  0.00    +0.000 A 
ATOM     18 BR   UNL     1       7.079   4.414  12.674  0.00  0.00    +0.000 Br
ATOM     19  C   UNL     1       7.523   4.908  15.449  0.00  0.00    +0.000 A 
ATOM     20  C   UNL     1       7.173   4.936  16.802  0.00  0.00    +0.000 A 
ENDBRANCH  11  14
ENDBRANCH   5  11
BRANCH   1  21
ATOM     21  S   UNL     1       2.195   3.113  18.697  0.00  0.00    +0.000 S 
BRANCH  21  22
ATOM     22  C   UNL     1       1.015   2.931  20.065  0.00  0.00    +0.000 C 
BRANCH  22  24
ATOM     23  N   UNL     1       3.131   2.499  21.237  0.00  0.00    +0.000 N 
ATOM     24  C   UNL     1       1.775   2.641  21.351  0.00  0.00    +0.000 C 
ATOM     25  O   UNL     1       1.228   2.497  22.440  0.00  0.00    +0.000 OA
ATOM     26  H   UNL     1       3.657   2.386  22.095  0.00  0.00    +0.000 HD
ATOM     27  H   UNL     1       3.635   2.774  20.404  0.00  0.00    +0.000 HD
ENDBRANCH  22  24
ENDBRANCH  21  22
ENDBRANCH   1  21
TORSDOF 6
ENDMDL
