MODEL 1
REMARK VINA RESULT:      -7.3      0.000      0.000
REMARK  Name = 
REMARK  4 active torsions:
REMARK  status: ('A' for Active; 'I' for Inactive)
REMARK    1  A    between atoms: C_1  and  N_2
REMARK    2  A    between atoms: C_3  and  C_5
REMARK    3  A    between atoms: C_10  and  O_11
REMARK    4  A    between atoms: O_11  and  C_12
REMARK                            x       y       z     vdW  Elec       q    Type
REMARK                         _______ _______ _______ _____ _____    ______ ____
ROOT
ATOM      1  C   UNL     1       6.119   4.341  15.938  0.00  0.00    +0.000 A 
ATOM      2  C   UNL     1       6.824   4.505  17.117  0.00  0.00    +0.000 A 
ATOM      3  N   UNL     1       6.269   4.408  18.352  0.00  0.00    +0.000 NA
ATOM      4  C   UNL     1       4.948   4.154  18.436  0.00  0.00    +0.000 A 
ATOM      5  C   UNL     1       4.332   4.057  19.679  0.00  0.00    +0.000 A 
ATOM      6  C   UNL     1       2.963   3.795  19.815  0.00  0.00    +0.000 A 
ATOM      7  C   UNL     1       2.185   3.626  18.674  0.00  0.00    +0.000 A 
ATOM      8  C   UNL     1       2.774   3.721  17.413  0.00  0.00    +0.000 A 
ATOM      9  C   UNL     1       4.145   3.985  17.288  0.00  0.00    +0.000 A 
ATOM     10  C   UNL     1       4.753   4.088  16.030  0.00  0.00    +0.000 A 
ENDROOT
BRANCH   1  13
ATOM     11  C   UNL     1       6.819   3.724  12.279  0.00  0.00    +0.000 C 
ATOM     12  N   UNL     1       6.285   3.632  13.615  0.00  0.00    +0.000 N 
ATOM     13  C   UNL     1       6.750   4.469  14.607  0.00  0.00    +0.000 C 
ATOM     14  O   UNL     1       7.622   5.312  14.427  0.00  0.00    +0.000 OA
ATOM     15  H   UNL     1       5.433   3.106  13.751  0.00  0.00    +0.000 HD
ENDBRANCH   1  13
BRANCH   6  16
ATOM     16  O   UNL     1       2.510   3.729  21.106  0.00  0.00    +0.000 OA
ATOM     17  C   UNL     1       1.451   2.814  21.369  0.00  0.00    +0.000 C 
ENDBRANCH   6  16
TORSDOF 2
ENDMDL
MODEL 2
REMARK VINA RESULT:      -7.1      1.085      1.130
REMARK  Name = 
REMARK  4 active torsions:
REMARK  status: ('A' for Active; 'I' for Inactive)
REMARK    1  A    between atoms: C_1  and  N_2
REMARK    2  A    between atoms: C_3  and  C_5
REMARK    3  A    between atoms: C_10  and  O_11
REMARK    4  A    between atoms: O_11  and  C_12
REMARK                            x       y       z     vdW  Elec       q    Type
REMARK                         _______ _______ _______ _____ _____    ______ ____
ROOT
ATOM      1  C   UNL     1       5.990   4.593  16.727  0.00  0.00    +0.000 A 
ATOM      2  C   UNL     1       6.384   4.587  18.054  0.00  0.00    +0.000 A 
ATOM      3  N   UNL     1       5.605   4.145  19.074  0.00  0.00    +0.000 NA
ATOM      4  C   UNL     1       4.366   3.702  18.780  0.00  0.00    +0.000 A 
ATOM      5  C   UNL     1       3.526   3.251  19.792  0.00  0.00    +0.000 A 
ATOM      6  C   UNL     1       2.231   2.781  19.534  0.00  0.00    +0.000 A 
ATOM      7  C   UNL     1       1.761   2.765  18.225  0.00  0.00    +0.000 A 
ATOM      8  C   UNL     1       2.579   3.215  17.189  0.00  0.00    +0.000 A 
ATOM      9  C   UNL     1       3.872   3.684  17.457  0.00  0.00    +0.000 A 
ATOM     10  C   UNL     1       4.706   4.143  16.431  0.00  0.00    +0.000 A 
ENDROOT
BRANCH   1  13
ATOM     11  C   UNL     1       7.495   4.964  13.284  0.00  0.00    +0.000 C 
ATOM     12  N   UNL     1       6.717   4.502  14.405  0.00  0.00    +0.000 N 
ATOM     13  C   UNL     1       6.858   5.097  15.641  0.00  0.00    +0.000 C 
ATOM     14  O   UNL     1       7.633   6.021  15.861  0.00  0.00    +0.000 OA
ATOM     15  H   UNL     1       5.929   3.895  14.220  0.00  0.00    +0.000 HD
ENDBRANCH   1  13
BRANCH   6  16
ATOM     16  O   UNL     1       1.532   2.371  20.638  0.00  0.00    +0.000 OA
ATOM     17  C   UNL     1       1.970   2.871  21.898  0.00  0.00    +0.000 C 
ENDBRANCH   6  16
TORSDOF 2
ENDMDL
MODEL 3
REMARK VINA RESULT:      -6.8      1.036      1.036
REMARK  Name = 
REMARK  4 active torsions:
REMARK  status: ('A' for Active; 'I' for Inactive)
REMARK    1  A    between atoms: C_1  and  N_2
REMARK    2  A    between atoms: C_3  and  C_5
REMARK    3  A    between atoms: C_10  and  O_11
REMARK    4  A    between atoms: O_11  and  C_12
REMARK                            x       y       z     vdW  Elec       q    Type
REMARK                         _______ _______ _______ _____ _____    ______ ____
ROOT
ATOM      1  C   UNL     1       6.103   4.331  15.784  0.00  0.00    +0.000 A 
ATOM      2  C   UNL     1       6.843   4.505  16.940  0.00  0.00    +0.000 A 
ATOM      3  N   UNL     1       6.329   4.397  18.192  0.00  0.00    +0.000 NA
ATOM      4  C   UNL     1       5.016   4.122  18.318  0.00  0.00    +0.000 A 
ATOM      5  C   UNL     1       4.442   4.013  19.579  0.00  0.00    +0.000 A 
ATOM      6  C   UNL     1       3.081   3.728  19.759  0.00  0.00    +0.000 A 
ATOM      7  C   UNL     1       2.271   3.548  18.642  0.00  0.00    +0.000 A 
ATOM      8  C   UNL     1       2.818   3.654  17.364  0.00  0.00    +0.000 A 
ATOM      9  C   UNL     1       4.179   3.941  17.195  0.00  0.00    +0.000 A 
ATOM     10  C   UNL     1       4.745   4.055  15.919  0.00  0.00    +0.000 A 
ENDROOT
BRANCH   1  13
ATOM     11  C   UNL     1       8.298   5.624  12.997  0.00  0.00    +0.000 C 
ATOM     12  N   UNL     1       7.647   5.450  14.271  0.00  0.00    +0.000 N 
ATOM     13  C   UNL     1       6.690   4.472  14.433  0.00  0.00    +0.000 C 
ATOM     14  O   UNL     1       6.336   3.716  13.536  0.00  0.00    +0.000 OA
ATOM     15  H   UNL     1       8.053   5.904  15.078  0.00  0.00    +0.000 HD
ENDBRANCH   1  13
BRANCH   6  16
ATOM     16  O   UNL     1       2.671   3.653  21.062  0.00  0.00    +0.000 OA
ATOM     17  C   UNL     1       1.508   2.875  21.326  0.00  0.00    +0.000 C 
ENDBRANCH   6  16
TORSDOF 2
ENDMDL
MODEL 4
REMARK VINA RESULT:      -6.7      1.242      1.323
REMARK  Name = 
REMARK  4 active torsions:
REMARK  status: ('A' for Active; 'I' for Inactive)
REMARK    1  A    between atoms: C_1  and  N_2
REMARK    2  A    between atoms: C_3  and  C_5
REMARK    3  A    between atoms: C_10  and  O_11
REMARK    4  A    between atoms: O_11  and  C_12
REMARK                            x       y       z     vdW  Elec       q    Type
REMARK                         _______ _______ _______ _____ _____    ______ ____
ROOT
ATOM      1  C   UNL     1       5.676   4.852  15.491  0.00  0.00    +0.000 A 
ATOM      2  C   UNL     1       5.273   6.073  16.004  0.00  0.00    +0.000 A 
ATOM      3  N   UNL     1       4.427   6.212  17.057  0.00  0.00    +0.000 NA
ATOM      4  C   UNL     1       3.935   5.094  17.626  0.00  0.00    +0.000 A 
ATOM      5  C   UNL     1       3.056   5.185  18.700  0.00  0.00    +0.000 A 
ATOM      6  C   UNL     1       2.520   4.050  19.324  0.00  0.00    +0.000 A 
ATOM      7  C   UNL     1       2.872   2.787  18.859  0.00  0.00    +0.000 A 
ATOM      8  C   UNL     1       3.749   2.665  17.781  0.00  0.00    +0.000 A 
ATOM      9  C   UNL     1       4.279   3.805  17.163  0.00  0.00    +0.000 A 
ATOM     10  C   UNL     1       5.157   3.701  16.078  0.00  0.00    +0.000 A 
ENDROOT
BRANCH   1  13
ATOM     11  C   UNL     1       7.010   3.745  12.137  0.00  0.00    +0.000 C 
ATOM     12  N   UNL     1       6.199   3.883  13.320  0.00  0.00    +0.000 N 
ATOM     13  C   UNL     1       6.587   4.736  14.331  0.00  0.00    +0.000 C 
ATOM     14  O   UNL     1       7.613   5.405  14.296  0.00  0.00    +0.000 OA
ATOM     15  H   UNL     1       5.258   3.516  13.297  0.00  0.00    +0.000 HD
ENDBRANCH   1  13
BRANCH   6  16
ATOM     16  O   UNL     1       1.671   4.309  20.366  0.00  0.00    +0.000 OA
ATOM     17  C   UNL     1       1.287   3.199  21.172  0.00  0.00    +0.000 C 
ENDBRANCH   6  16
TORSDOF 2
ENDMDL
MODEL 5
REMARK VINA RESULT:      -6.6      1.852      1.975
REMARK  Name = 
REMARK  4 active torsions:
REMARK  status: ('A' for Active; 'I' for Inactive)
REMARK    1  A    between atoms: C_1  and  N_2
REMARK    2  A    between atoms: C_3  and  C_5
REMARK    3  A    between atoms: C_10  and  O_11
REMARK    4  A    between atoms: O_11  and  C_12
REMARK                            x       y       z     vdW  Elec       q    Type
REMARK                         _______ _______ _______ _____ _____    ______ ____
ROOT
ATOM      1  C   UNL     1       5.755   4.775  15.489  0.00  0.00    +0.000 A 
ATOM      2  C   UNL     1       5.448   3.635  16.211  0.00  0.00    +0.000 A 
ATOM      3  N   UNL     1       4.623   3.620  17.290  0.00  0.00    +0.000 NA
ATOM      4  C   UNL     1       4.085   4.788  17.694  0.00  0.00    +0.000 A 
ATOM      5  C   UNL     1       3.244   4.825  18.800  0.00  0.00    +0.000 A 
ATOM      6  C   UNL     1       2.662   6.016  19.256  0.00  0.00    +0.000 A 
ATOM      7  C   UNL     1       2.930   7.205  18.585  0.00  0.00    +0.000 A 
ATOM      8  C   UNL     1       3.773   7.199  17.474  0.00  0.00    +0.000 A 
ATOM      9  C   UNL     1       4.351   6.004  17.027  0.00  0.00    +0.000 A 
ATOM     10  C   UNL     1       5.203   5.980  15.916  0.00  0.00    +0.000 A 
ENDROOT
BRANCH   1  13
ATOM     11  C   UNL     1       7.132   3.915  12.080  0.00  0.00    +0.000 C 
ATOM     12  N   UNL     1       6.315   3.953  13.267  0.00  0.00    +0.000 N 
ATOM     13  C   UNL     1       6.670   4.760  14.328  0.00  0.00    +0.000 C 
ATOM     14  O   UNL     1       7.672   5.466  14.334  0.00  0.00    +0.000 OA
ATOM     15  H   UNL     1       5.387   3.555  13.219  0.00  0.00    +0.000 HD
ENDBRANCH   1  13
BRANCH   6  16
ATOM     16  O   UNL     1       1.858   5.884  20.356  0.00  0.00    +0.000 OA
ATOM     17  C   UNL     1       1.944   4.656  21.071  0.00  0.00    +0.000 C 
ENDBRANCH   6  16
TORSDOF 2
ENDMDL
MODEL 6
REMARK VINA RESULT:      -6.5      1.589      1.711
REMARK  Name = 
REMARK  4 active torsions:
REMARK  status: ('A' for Active; 'I' for Inactive)
REMARK    1  A    between atoms: C_1  and  N_2
REMARK    2  A    between atoms: C_3  and  C_5
REMARK    3  A    between atoms: C_10  and  O_11
REMARK    4  A    between atoms: O_11  and  C_12
REMARK                            x       y       z     vdW  Elec       q    Type
REMARK                         _______ _______ _______ _____ _____    ______ ____
ROOT
ATOM      1  C   UNL     1       5.668   5.025  15.612  0.00  0.00    +0.000 A 
ATOM      2  C   UNL     1       5.748   6.237  16.275  0.00  0.00    +0.000 A 
ATOM      3  N   UNL     1       4.979   6.569  17.344  0.00  0.00    +0.000 NA
ATOM      4  C   UNL     1       4.070   5.671  17.775  0.00  0.00    +0.000 A 
ATOM      5  C   UNL     1       3.252   5.970  18.859  0.00  0.00    +0.000 A 
ATOM      6  C   UNL     1       2.294   5.068  19.342  0.00  0.00    +0.000 A 
ATOM      7  C   UNL     1       2.149   3.832  18.721  0.00  0.00    +0.000 A 
ATOM      8  C   UNL     1       2.953   3.506  17.629  0.00  0.00    +0.000 A 
ATOM      9  C   UNL     1       3.908   4.414  17.153  0.00  0.00    +0.000 A 
ATOM     10  C   UNL     1       4.721   4.106  16.056  0.00  0.00    +0.000 A 
ENDROOT
BRANCH   1  13
ATOM     11  C   UNL     1       6.701   3.526  12.304  0.00  0.00    +0.000 C 
ATOM     12  N   UNL     1       5.963   3.857  13.496  0.00  0.00    +0.000 N 
ATOM     13  C   UNL     1       6.509   4.702  14.440  0.00  0.00    +0.000 C 
ATOM     14  O   UNL     1       7.623   5.203  14.334  0.00  0.00    +0.000 OA
ATOM     15  H   UNL     1       4.976   3.638  13.521  0.00  0.00    +0.000 HD
ENDBRANCH   1  13
BRANCH   6  16
ATOM     16  O   UNL     1       1.570   5.512  20.415  0.00  0.00    +0.000 OA
ATOM     17  C   UNL     1       1.646   6.902  20.712  0.00  0.00    +0.000 C 
ENDBRANCH   6  16
TORSDOF 2
ENDMDL
MODEL 7
REMARK VINA RESULT:      -6.4      1.657      6.199
REMARK  Name = 
REMARK  4 active torsions:
REMARK  status: ('A' for Active; 'I' for Inactive)
REMARK    1  A    between atoms: C_1  and  N_2
REMARK    2  A    between atoms: C_3  and  C_5
REMARK    3  A    between atoms: C_10  and  O_11
REMARK    4  A    between atoms: O_11  and  C_12
REMARK                            x       y       z     vdW  Elec       q    Type
REMARK                         _______ _______ _______ _____ _____    ______ ____
ROOT
ATOM      1  C   UNL     1       3.816   3.534  18.647  0.00  0.00    +0.000 A 
ATOM      2  C   UNL     1       5.001   3.976  19.208  0.00  0.00    +0.000 A 
ATOM      3  N   UNL     1       6.054   4.442  18.488  0.00  0.00    +0.000 NA
ATOM      4  C   UNL     1       5.946   4.459  17.144  0.00  0.00    +0.000 A 
ATOM      5  C   UNL     1       7.001   4.917  16.364  0.00  0.00    +0.000 A 
ATOM      6  C   UNL     1       6.934   4.954  14.965  0.00  0.00    +0.000 A 
ATOM      7  C   UNL     1       5.777   4.518  14.327  0.00  0.00    +0.000 A 
ATOM      8  C   UNL     1       4.702   4.050  15.084  0.00  0.00    +0.000 A 
ATOM      9  C   UNL     1       4.780   4.016  16.483  0.00  0.00    +0.000 A 
ATOM     10  C   UNL     1       3.713   3.546  17.258  0.00  0.00    +0.000 A 
ENDROOT
BRANCH   1  13
ATOM     11  C   UNL     1       1.764   2.649  21.691  0.00  0.00    +0.000 C 
ATOM     12  N   UNL     1       2.831   3.093  20.829  0.00  0.00    +0.000 N 
ATOM     13  C   UNL     1       2.694   3.017  19.459  0.00  0.00    +0.000 C 
ATOM     14  O   UNL     1       1.694   2.576  18.903  0.00  0.00    +0.000 OA
ATOM     15  H   UNL     1       3.571   3.648  21.236  0.00  0.00    +0.000 HD
ENDBRANCH   1  13
BRANCH   6  16
ATOM     16  O   UNL     1       8.056   5.432  14.342  0.00  0.00    +0.000 OA
ATOM     17  C   UNL     1       8.061   5.405  12.919  0.00  0.00    +0.000 C 
ENDBRANCH   6  16
TORSDOF 2
ENDMDL
MODEL 8
REMARK VINA RESULT:      -6.3      1.687      6.173
REMARK  Name = 
REMARK  4 active torsions:
REMARK  status: ('A' for Active; 'I' for Inactive)
REMARK    1  A    between atoms: C_1  and  N_2
REMARK    2  A    between atoms: C_3  and  C_5
REMARK    3  A    between atoms: C_10  and  O_11
REMARK    4  A    between atoms: O_11  and  C_12
REMARK                            x       y       z     vdW  Elec       q    Type
REMARK                         _______ _______ _______ _____ _____    ______ ____
ROOT
ATOM      1  C   UNL     1       4.316   3.940  18.881  0.00  0.00    +0.000 A 
ATOM      2  C   UNL     1       5.317   4.821  19.251  0.00  0.00    +0.000 A 
ATOM      3  N   UNL     1       6.233   5.334  18.389  0.00  0.00    +0.000 NA
ATOM      4  C   UNL     1       6.177   4.947  17.099  0.00  0.00    +0.000 A 
ATOM      5  C   UNL     1       7.100   5.435  16.182  0.00  0.00    +0.000 A 
ATOM      6  C   UNL     1       7.080   5.062  14.832  0.00  0.00    +0.000 A 
ATOM      7  C   UNL     1       6.108   4.172  14.386  0.00  0.00    +0.000 A 
ATOM      8  C   UNL     1       5.170   3.663  15.283  0.00  0.00    +0.000 A 
ATOM      9  C   UNL     1       5.200   4.041  16.632  0.00  0.00    +0.000 A 
ATOM     10  C   UNL     1       4.268   3.537  17.549  0.00  0.00    +0.000 A 
ENDROOT
BRANCH   1  13
ATOM     11  C   UNL     1       1.054   3.409  20.707  0.00  0.00    +0.000 C 
ATOM     12  N   UNL     1       2.073   3.922  19.825  0.00  0.00    +0.000 N 
ATOM     13  C   UNL     1       3.343   3.387  19.848  0.00  0.00    +0.000 C 
ATOM     14  O   UNL     1       3.681   2.477  20.597  0.00  0.00    +0.000 OA
ATOM     15  H   UNL     1       1.784   4.516  19.060  0.00  0.00    +0.000 HD
ENDBRANCH   1  13
BRANCH   6  16
ATOM     16  O   UNL     1       8.056   5.631  14.058  0.00  0.00    +0.000 OA
ATOM     17  C   UNL     1       7.967   5.418  12.653  0.00  0.00    +0.000 C 
ENDBRANCH   6  16
TORSDOF 2
ENDMDL
MODEL 9
REMARK VINA RESULT:      -6.3      2.847      2.984
REMARK  Name = 
REMARK  4 active torsions:
REMARK  status: ('A' for Active; 'I' for Inactive)
REMARK    1  A    between atoms: C_1  and  N_2
REMARK    2  A    between atoms: C_3  and  C_5
REMARK    3  A    between atoms: C_10  and  O_11
REMARK    4  A    between atoms: O_11  and  C_12
REMARK                            x       y       z     vdW  Elec       q    Type
REMARK                         _______ _______ _______ _____ _____    ______ ____
ROOT
ATOM      1  C   UNL     1       5.322   4.999  16.878  0.00  0.00    +0.000 A 
ATOM      2  C   UNL     1       5.147   4.225  18.012  0.00  0.00    +0.000 A 
ATOM      3  N   UNL     1       4.310   4.550  19.030  0.00  0.00    +0.000 NA
ATOM      4  C   UNL     1       3.622   5.705  18.942  0.00  0.00    +0.000 A 
ATOM      5  C   UNL     1       2.762   6.087  19.965  0.00  0.00    +0.000 A 
ATOM      6  C   UNL     1       2.026   7.278  19.917  0.00  0.00    +0.000 A 
ATOM      7  C   UNL     1       2.155   8.114  18.812  0.00  0.00    +0.000 A 
ATOM      8  C   UNL     1       3.013   7.759  17.771  0.00  0.00    +0.000 A 
ATOM      9  C   UNL     1       3.746   6.566  17.830  0.00  0.00    +0.000 A 
ATOM     10  C   UNL     1       4.615   6.196  16.796  0.00  0.00    +0.000 A 
ENDROOT
BRANCH   1  13
ATOM     11  C   UNL     1       6.536   3.961  13.457  0.00  0.00    +0.000 C 
ATOM     12  N   UNL     1       5.694   4.297  14.577  0.00  0.00    +0.000 N 
ATOM     13  C   UNL     1       6.255   4.624  15.793  0.00  0.00    +0.000 C 
ATOM     14  O   UNL     1       7.463   4.644  15.997  0.00  0.00    +0.000 OA
ATOM     15  H   UNL     1       4.719   4.494  14.397  0.00  0.00    +0.000 HD
ENDBRANCH   1  13
BRANCH   6  16
ATOM     16  O   UNL     1       1.223   7.510  21.002  0.00  0.00    +0.000 OA
ATOM     17  C   UNL     1       1.333   8.787  21.621  0.00  0.00    +0.000 C 
ENDBRANCH   6  16
TORSDOF 2
ENDMDL
