MODEL 1
REMARK VINA RESULT:      -8.5      0.000      0.000
REMARK  Name = 
REMARK  9 active torsions:
REMARK  status: ('A' for Active; 'I' for Inactive)
REMARK    1  A    between atoms: C_1  and  O_2
REMARK    2  A    between atoms: O_2  and  C_3
REMARK    3  A    between atoms: C_11  and  C_12
REMARK    4  A    between atoms: N_14  and  C_15
REMARK    5  A    between atoms: C_15  and  C_16
REMARK    6  A    between atoms: C_15  and  C_28
REMARK    7  A    between atoms: C_19  and  C_20
REMARK    8  A    between atoms: C_28  and  C_29
REMARK    9  A    between atoms: C_28  and  C_30
REMARK                            x       y       z     vdW  Elec       q    Type
REMARK                         _______ _______ _______ _____ _____    ______ ____
ROOT
ATOM      1  C   UNL     1       2.403   4.626  18.830  0.00  0.00    +0.000 C 
ENDROOT
BRANCH   1   2
ATOM      2  C   UNL     1       2.168   6.114  18.951  0.00  0.00    +0.000 A 
ATOM      3  N   UNL     1       2.193   6.983  17.959  0.00  0.00    +0.000 NA
ATOM      4  C   UNL     1       1.976   8.207  18.517  0.00  0.00    +0.000 A 
ATOM      5  C   UNL     1       1.745   8.103  19.880  0.00  0.00    +0.000 A 
ATOM      6  N   UNL     1       1.926   6.761  20.138  0.00  0.00    +0.000 N 
ATOM      7  H   UNL     1       1.791   6.282  21.020  0.00  0.00    +0.000 HD
BRANCH   5   8
ATOM      8  C   UNL     1       1.203   9.099  20.803  0.00  0.00    +0.000 A 
ATOM      9  C   UNL     1       0.739   8.730  22.071  0.00  0.00    +0.000 A 
ATOM     10  C   UNL     1      -0.098   9.585  22.792  0.00  0.00    +0.000 A 
ATOM     11  C   UNL     1      -0.448  10.825  22.263  0.00  0.00    +0.000 A 
ATOM     12 BR   UNL     1      -1.743  11.888  23.137  0.00  0.00    +0.000 Br
ATOM     13  C   UNL     1       0.105  11.260  21.064  0.00  0.00    +0.000 A 
ATOM     14  C   UNL     1       0.940  10.403  20.345  0.00  0.00    +0.000 A 
ENDBRANCH   5   8
ENDBRANCH   1   2
BRANCH   1  17
ATOM     15  C   UNL     1       4.860   4.982  18.168  0.00  0.00    +0.000 C 
ATOM     16  O   UNL     1       5.158   5.776  19.050  0.00  0.00    +0.000 OA
ATOM     17  N   UNL     1       3.641   4.344  18.084  0.00  0.00    +0.000 N 
ATOM     18  H   UNL     1       3.457   3.928  17.192  0.00  0.00    +0.000 HD
BRANCH  15  27
ATOM     19  C   UNL     1       7.715   5.026  13.273  0.00  0.00    +0.000 A 
ATOM     20  C   UNL     1       7.182   4.318  12.193  0.00  0.00    +0.000 A 
ATOM     21  C   UNL     1       6.162   3.391  12.391  0.00  0.00    +0.000 A 
ATOM     22  C   UNL     1       5.672   3.172  13.676  0.00  0.00    +0.000 A 
ATOM     23  C   UNL     1       6.150   3.930  14.754  0.00  0.00    +0.000 A 
ATOM     24  C   UNL     1       7.155   4.882  14.554  0.00  0.00    +0.000 A 
ATOM     25  O   UNL     1       7.538   5.751  15.543  0.00  0.00    +0.000 OA
ATOM     26  C   UNL     1       7.022   5.554  16.875  0.00  0.00    +0.000 C 
ATOM     27  C   UNL     1       5.770   4.727  16.990  0.00  0.00    +0.000 C 
ATOM     28  C   UNL     1       5.463   3.836  16.035  0.00  0.00    +0.000 C 
BRANCH  19  30
ATOM     29  C   UNL     1       8.512   6.625  11.762  0.00  0.00    +0.000 C 
ATOM     30  O   UNL     1       8.743   5.877  12.953  0.00  0.00    +0.000 OA
ENDBRANCH  19  30
ENDBRANCH  15  27
ENDBRANCH   1  17
BRANCH   1  31
ATOM     31  C   UNL     1       2.497   3.971  20.264  0.00  0.00    +0.000 C 
ATOM     32  C   UNL     1       1.149   3.452  20.791  0.00  0.00    +0.000 C 
ATOM     33  C   UNL     1       3.485   2.792  20.346  0.00  0.00    +0.000 C 
ENDBRANCH   1  31
TORSDOF 6
ENDMDL
MODEL 2
REMARK VINA RESULT:      -8.2      4.113      6.696
REMARK  Name = 
REMARK  9 active torsions:
REMARK  status: ('A' for Active; 'I' for Inactive)
REMARK    1  A    between atoms: C_1  and  O_2
REMARK    2  A    between atoms: O_2  and  C_3
REMARK    3  A    between atoms: C_11  and  C_12
REMARK    4  A    between atoms: N_14  and  C_15
REMARK    5  A    between atoms: C_15  and  C_16
REMARK    6  A    between atoms: C_15  and  C_28
REMARK    7  A    between atoms: C_19  and  C_20
REMARK    8  A    between atoms: C_28  and  C_29
REMARK    9  A    between atoms: C_28  and  C_30
REMARK                            x       y       z     vdW  Elec       q    Type
REMARK                         _______ _______ _______ _____ _____    ______ ____
ROOT
ATOM      1  C   UNL     1       0.641  10.709  19.639  0.00  0.00    +0.000 C 
ENDROOT
BRANCH   1   2
ATOM      2  C   UNL     1      -0.079  10.873  20.958  0.00  0.00    +0.000 A 
ATOM      3  N   UNL     1      -0.091   9.997  21.944  0.00  0.00    +0.000 NA
ATOM      4  C   UNL     1      -0.892  10.524  22.914  0.00  0.00    +0.000 A 
ATOM      5  C   UNL     1      -1.341  11.787  22.561  0.00  0.00    +0.000 A 
ATOM      6  N   UNL     1      -0.850  11.962  21.284  0.00  0.00    +0.000 N 
ATOM      7  H   UNL     1      -0.924  12.789  20.706  0.00  0.00    +0.000 HD
BRANCH   5   8
ATOM      8  C   UNL     1      -1.973  12.809  23.395  0.00  0.00    +0.000 A 
ATOM      9  C   UNL     1      -3.322  12.711  23.756  0.00  0.00    +0.000 A 
ATOM     10  C   UNL     1      -4.010  13.834  24.223  0.00  0.00    +0.000 A 
ATOM     11  C   UNL     1      -3.345  15.049  24.361  0.00  0.00    +0.000 A 
ATOM     12 BR   UNL     1      -4.319  16.611  24.788  0.00  0.00    +0.000 Br
ATOM     13  C   UNL     1      -1.977  15.134  24.127  0.00  0.00    +0.000 A 
ATOM     14  C   UNL     1      -1.293  14.010  23.660  0.00  0.00    +0.000 A 
ENDBRANCH   5   8
ENDBRANCH   1   2
BRANCH   1  17
ATOM     15  C   UNL     1       2.038   8.853  18.541  0.00  0.00    +0.000 C 
ATOM     16  O   UNL     1       2.193   9.384  17.449  0.00  0.00    +0.000 OA
ATOM     17  N   UNL     1       1.425   9.463  19.615  0.00  0.00    +0.000 N 
ATOM     18  H   UNL     1       1.153   8.832  20.343  0.00  0.00    +0.000 HD
BRANCH  15  27
ATOM     19  C   UNL     1       2.361   3.199  18.712  0.00  0.00    +0.000 A 
ATOM     20  C   UNL     1       1.677   2.530  19.731  0.00  0.00    +0.000 A 
ATOM     21  C   UNL     1       1.195   3.229  20.835  0.00  0.00    +0.000 A 
ATOM     22  C   UNL     1       1.398   4.605  20.919  0.00  0.00    +0.000 A 
ATOM     23  C   UNL     1       2.017   5.294  19.867  0.00  0.00    +0.000 A 
ATOM     24  C   UNL     1       2.477   4.598  18.744  0.00  0.00    +0.000 A 
ATOM     25  O   UNL     1       2.943   5.247  17.630  0.00  0.00    +0.000 OA
ATOM     26  C   UNL     1       3.135   6.675  17.690  0.00  0.00    +0.000 C 
ATOM     27  C   UNL     1       2.389   7.403  18.775  0.00  0.00    +0.000 C 
ATOM     28  C   UNL     1       2.010   6.751  19.885  0.00  0.00    +0.000 C 
BRANCH  19  30
ATOM     29  C   UNL     1       3.741   1.396  18.146  0.00  0.00    +0.000 C 
ATOM     30  O   UNL     1       2.822   2.391  17.703  0.00  0.00    +0.000 OA
ENDBRANCH  19  30
ENDBRANCH  15  27
ENDBRANCH   1  17
BRANCH   1  31
ATOM     31  C   UNL     1      -0.398  10.697  18.450  0.00  0.00    +0.000 C 
ATOM     32  C   UNL     1      -1.605   9.778  18.700  0.00  0.00    +0.000 C 
ATOM     33  C   UNL     1      -0.966  12.087  18.106  0.00  0.00    +0.000 C 
ENDBRANCH   1  31
TORSDOF 6
ENDMDL
MODEL 3
REMARK VINA RESULT:      -8.2      3.773      9.458
REMARK  Name = 
REMARK  9 active torsions:
REMARK  status: ('A' for Active; 'I' for Inactive)
REMARK    1  A    between atoms: C_1  and  O_2
REMARK    2  A    between atoms: O_2  and  C_3
REMARK    3  A    between atoms: C_11  and  C_12
REMARK    4  A    between atoms: N_14  and  C_15
REMARK    5  A    between atoms: C_15  and  C_16
REMARK    6  A    between atoms: C_15  and  C_28
REMARK    7  A    between atoms: C_19  and  C_20
REMARK    8  A    between atoms: C_28  and  C_29
REMARK    9  A    between atoms: C_28  and  C_30
REMARK                            x       y       z     vdW  Elec       q    Type
REMARK                         _______ _______ _______ _____ _____    ______ ____
ROOT
ATOM      1  C   UNL     1       2.751   4.905  20.499  0.00  0.00    +0.000 C 
ENDROOT
BRANCH   1   2
ATOM      2  C   UNL     1       3.094   4.445  19.101  0.00  0.00    +0.000 A 
ATOM      3  N   UNL     1       2.241   3.972  18.213  0.00  0.00    +0.000 NA
ATOM      4  C   UNL     1       2.976   3.639  17.114  0.00  0.00    +0.000 A 
ATOM      5  C   UNL     1       4.312   3.969  17.287  0.00  0.00    +0.000 A 
ATOM      6  N   UNL     1       4.367   4.432  18.585  0.00  0.00    +0.000 N 
ATOM      7  H   UNL     1       5.170   4.819  19.065  0.00  0.00    +0.000 HD
BRANCH   5   8
ATOM      8  C   UNL     1       5.380   4.049  16.291  0.00  0.00    +0.000 A 
ATOM      9  C   UNL     1       6.595   4.676  16.587  0.00  0.00    +0.000 A 
ATOM     10  C   UNL     1       7.451   5.076  15.557  0.00  0.00    +0.000 A 
ATOM     11  C   UNL     1       7.110   4.822  14.231  0.00  0.00    +0.000 A 
ATOM     12 BR   UNL     1       8.158   5.546  12.836  0.00  0.00    +0.000 Br
ATOM     13  C   UNL     1       5.969   4.089  13.926  0.00  0.00    +0.000 A 
ATOM     14  C   UNL     1       5.115   3.692  14.957  0.00  0.00    +0.000 A 
ENDBRANCH   5   8
ENDBRANCH   1   2
BRANCH   1  17
ATOM     15  C   UNL     1       2.199   7.264  19.644  0.00  0.00    +0.000 C 
ATOM     16  O   UNL     1       2.904   7.250  18.643  0.00  0.00    +0.000 OA
ATOM     17  N   UNL     1       2.012   6.178  20.471  0.00  0.00    +0.000 N 
ATOM     18  H   UNL     1       1.621   6.406  21.364  0.00  0.00    +0.000 HD
BRANCH  15  27
ATOM     19  C   UNL     1      -1.202  11.358  21.589  0.00  0.00    +0.000 A 
ATOM     20  C   UNL     1      -1.879  12.150  20.659  0.00  0.00    +0.000 A 
ATOM     21  C   UNL     1      -1.502  12.142  19.318  0.00  0.00    +0.000 A 
ATOM     22  C   UNL     1      -0.442  11.338  18.907  0.00  0.00    +0.000 A 
ATOM     23  C   UNL     1       0.195  10.486  19.820  0.00  0.00    +0.000 A 
ATOM     24  C   UNL     1      -0.200  10.470  21.161  0.00  0.00    +0.000 A 
ATOM     25  O   UNL     1       0.284   9.545  22.049  0.00  0.00    +0.000 OA
ATOM     26  C   UNL     1       1.365   8.687  21.633  0.00  0.00    +0.000 C 
ATOM     27  C   UNL     1       1.567   8.539  20.149  0.00  0.00    +0.000 C 
ATOM     28  C   UNL     1       1.141   9.500  19.314  0.00  0.00    +0.000 C 
BRANCH  19  30
ATOM     29  C   UNL     1      -2.024  12.818  23.223  0.00  0.00    +0.000 C 
ATOM     30  O   UNL     1      -1.641  11.488  22.883  0.00  0.00    +0.000 OA
ENDBRANCH  19  30
ENDBRANCH  15  27
ENDBRANCH   1  17
BRANCH   1  31
ATOM     31  C   UNL     1       1.880   3.811  21.233  0.00  0.00    +0.000 C 
ATOM     32  C   UNL     1       0.627   3.395  20.446  0.00  0.00    +0.000 C 
ATOM     33  C   UNL     1       2.650   2.516  21.554  0.00  0.00    +0.000 C 
ENDBRANCH   1  31
TORSDOF 6
ENDMDL
MODEL 4
REMARK VINA RESULT:      -8.0      3.706      9.397
REMARK  Name = 
REMARK  9 active torsions:
REMARK  status: ('A' for Active; 'I' for Inactive)
REMARK    1  A    between atoms: C_1  and  O_2
REMARK    2  A    between atoms: O_2  and  C_3
REMARK    3  A    between atoms: C_11  and  C_12
REMARK    4  A    between atoms: N_14  and  C_15
REMARK    5  A    between atoms: C_15  and  C_16
REMARK    6  A    between atoms: C_15  and  C_28
REMARK    7  A    between atoms: C_19  and  C_20
REMARK    8  A    between atoms: C_28  and  C_29
REMARK    9  A    between atoms: C_28  and  C_30
REMARK                            x       y       z     vdW  Elec       q    Type
REMARK                         _______ _______ _______ _____ _____    ______ ____
ROOT
ATOM      1  C   UNL     1       2.886   5.023  20.352  0.00  0.00    +0.000 C 
ENDROOT
BRANCH   1   2
ATOM      2  C   UNL     1       3.297   4.437  19.021  0.00  0.00    +0.000 A 
ATOM      3  N   UNL     1       2.535   3.704  18.232  0.00  0.00    +0.000 NA
ATOM      4  C   UNL     1       3.311   3.352  17.168  0.00  0.00    +0.000 A 
ATOM      5  C   UNL     1       4.570   3.928  17.254  0.00  0.00    +0.000 A 
ATOM      6  N   UNL     1       4.550   4.572  18.474  0.00  0.00    +0.000 N 
ATOM      7  H   UNL     1       5.275   5.155  18.872  0.00  0.00    +0.000 HD
BRANCH   5   8
ATOM      8  C   UNL     1       5.601   4.051  16.225  0.00  0.00    +0.000 A 
ATOM      9  C   UNL     1       6.787   4.751  16.473  0.00  0.00    +0.000 A 
ATOM     10  C   UNL     1       7.588   5.180  15.412  0.00  0.00    +0.000 A 
ATOM     11  C   UNL     1       7.224   4.882  14.101  0.00  0.00    +0.000 A 
ATOM     12 BR   UNL     1       8.187   5.639  12.662  0.00  0.00    +0.000 Br
ATOM     13  C   UNL     1       6.118   4.080  13.843  0.00  0.00    +0.000 A 
ATOM     14  C   UNL     1       5.319   3.654  14.906  0.00  0.00    +0.000 A 
ENDBRANCH   5   8
ENDBRANCH   1   2
BRANCH   1  17
ATOM     15  C   UNL     1       2.229   7.339  19.456  0.00  0.00    +0.000 C 
ATOM     16  O   UNL     1       3.163   7.489  18.678  0.00  0.00    +0.000 OA
ATOM     17  N   UNL     1       1.998   6.183  20.169  0.00  0.00    +0.000 N 
ATOM     18  H   UNL     1       1.361   6.293  20.934  0.00  0.00    +0.000 HD
BRANCH  15  27
ATOM     19  C   UNL     1      -0.223  12.089  21.335  0.00  0.00    +0.000 A 
ATOM     20  C   UNL     1      -0.787  12.079  22.613  0.00  0.00    +0.000 A 
ATOM     21  C   UNL     1      -1.013  10.874  23.275  0.00  0.00    +0.000 A 
ATOM     22  C   UNL     1      -0.674   9.675  22.654  0.00  0.00    +0.000 A 
ATOM     23  C   UNL     1      -0.041   9.680  21.403  0.00  0.00    +0.000 A 
ATOM     24  C   UNL     1       0.214  10.890  20.749  0.00  0.00    +0.000 A 
ATOM     25  O   UNL     1       0.968  10.950  19.605  0.00  0.00    +0.000 OA
ATOM     26  C   UNL     1       1.350   9.718  18.962  0.00  0.00    +0.000 C 
ATOM     27  C   UNL     1       1.306   8.478  19.815  0.00  0.00    +0.000 C 
ATOM     28  C   UNL     1       0.502   8.430  20.888  0.00  0.00    +0.000 C 
BRANCH  19  30
ATOM     29  C   UNL     1       1.015  14.075  21.286  0.00  0.00    +0.000 C 
ATOM     30  O   UNL     1      -0.091  13.335  20.774  0.00  0.00    +0.000 OA
ENDBRANCH  19  30
ENDBRANCH  15  27
ENDBRANCH   1  17
BRANCH   1  31
ATOM     31  C   UNL     1       2.147   3.931  21.222  0.00  0.00    +0.000 C 
ATOM     32  C   UNL     1       0.762   3.548  20.677  0.00  0.00    +0.000 C 
ATOM     33  C   UNL     1       2.939   2.618  21.376  0.00  0.00    +0.000 C 
ENDBRANCH   1  31
TORSDOF 6
ENDMDL
MODEL 5
REMARK VINA RESULT:      -8.0      4.480      7.083
REMARK  Name = 
REMARK  9 active torsions:
REMARK  status: ('A' for Active; 'I' for Inactive)
REMARK    1  A    between atoms: C_1  and  O_2
REMARK    2  A    between atoms: O_2  and  C_3
REMARK    3  A    between atoms: C_11  and  C_12
REMARK    4  A    between atoms: N_14  and  C_15
REMARK    5  A    between atoms: C_15  and  C_16
REMARK    6  A    between atoms: C_15  and  C_28
REMARK    7  A    between atoms: C_19  and  C_20
REMARK    8  A    between atoms: C_28  and  C_29
REMARK    9  A    between atoms: C_28  and  C_30
REMARK                            x       y       z     vdW  Elec       q    Type
REMARK                         _______ _______ _______ _____ _____    ______ ____
ROOT
ATOM      1  C   UNL     1      -0.137  10.434  20.634  0.00  0.00    +0.000 C 
ENDROOT
BRANCH   1   2
ATOM      2  C   UNL     1       0.155  11.672  19.818  0.00  0.00    +0.000 A 
ATOM      3  N   UNL     1      -0.710  12.320  19.062  0.00  0.00    +0.000 NA
ATOM      4  C   UNL     1      -0.019  13.339  18.477  0.00  0.00    +0.000 A 
ATOM      5  C   UNL     1       1.293  13.376  18.923  0.00  0.00    +0.000 A 
ATOM      6  N   UNL     1       1.390  12.268  19.738  0.00  0.00    +0.000 N 
ATOM      7  H   UNL     1       2.187  11.982  20.294  0.00  0.00    +0.000 HD
BRANCH   5   8
ATOM      8  C   UNL     1       2.287  14.440  18.783  0.00  0.00    +0.000 A 
ATOM      9  C   UNL     1       3.520  14.197  18.167  0.00  0.00    +0.000 A 
ATOM     10  C   UNL     1       4.588  15.078  18.357  0.00  0.00    +0.000 A 
ATOM     11  C   UNL     1       4.417  16.220  19.136  0.00  0.00    +0.000 A 
ATOM     12 BR   UNL     1       5.910  17.296  19.566  0.00  0.00    +0.000 Br
ATOM     13  C   UNL     1       3.166  16.541  19.649  0.00  0.00    +0.000 A 
ATOM     14  C   UNL     1       2.101  15.659  19.459  0.00  0.00    +0.000 A 
ENDBRANCH   5   8
ENDBRANCH   1   2
BRANCH   1  17
ATOM     15  C   UNL     1       1.372   8.932  19.196  0.00  0.00    +0.000 C 
ATOM     16  O   UNL     1       1.181   9.483  18.120  0.00  0.00    +0.000 OA
ATOM     17  N   UNL     1       0.875   9.392  20.397  0.00  0.00    +0.000 N 
ATOM     18  H   UNL     1       0.901   8.717  21.136  0.00  0.00    +0.000 HD
BRANCH  15  27
ATOM     19  C   UNL     1       2.986   3.507  18.941  0.00  0.00    +0.000 A 
ATOM     20  C   UNL     1       2.603   2.656  19.981  0.00  0.00    +0.000 A 
ATOM     21  C   UNL     1       2.115   3.177  21.176  0.00  0.00    +0.000 A 
ATOM     22  C   UNL     1       2.009   4.557  21.332  0.00  0.00    +0.000 A 
ATOM     23  C   UNL     1       2.322   5.415  20.268  0.00  0.00    +0.000 A 
ATOM     24  C   UNL     1       2.785   4.892  19.056  0.00  0.00    +0.000 A 
ATOM     25  O   UNL     1       2.951   5.677  17.945  0.00  0.00    +0.000 OA
ATOM     26  C   UNL     1       2.821   7.107  18.081  0.00  0.00    +0.000 C 
ATOM     27  C   UNL     1       2.068   7.596  19.290  0.00  0.00    +0.000 C 
ATOM     28  C   UNL     1       1.986   6.827  20.387  0.00  0.00    +0.000 C 
BRANCH  19  30
ATOM     29  C   UNL     1       3.729   1.481  18.036  0.00  0.00    +0.000 C 
ATOM     30  O   UNL     1       3.490   2.872  17.834  0.00  0.00    +0.000 OA
ENDBRANCH  19  30
ENDBRANCH  15  27
ENDBRANCH   1  17
BRANCH   1  31
ATOM     31  C   UNL     1      -0.169  10.791  22.172  0.00  0.00    +0.000 C 
ATOM     32  C   UNL     1      -1.418  11.582  22.593  0.00  0.00    +0.000 C 
ATOM     33  C   UNL     1      -0.094   9.562  23.098  0.00  0.00    +0.000 C 
ENDBRANCH   1  31
TORSDOF 6
ENDMDL
MODEL 6
REMARK VINA RESULT:      -8.0      3.936      6.444
REMARK  Name = 
REMARK  9 active torsions:
REMARK  status: ('A' for Active; 'I' for Inactive)
REMARK    1  A    between atoms: C_1  and  O_2
REMARK    2  A    between atoms: O_2  and  C_3
REMARK    3  A    between atoms: C_11  and  C_12
REMARK    4  A    between atoms: N_14  and  C_15
REMARK    5  A    between atoms: C_15  and  C_16
REMARK    6  A    between atoms: C_15  and  C_28
REMARK    7  A    between atoms: C_19  and  C_20
REMARK    8  A    between atoms: C_28  and  C_29
REMARK    9  A    between atoms: C_28  and  C_30
REMARK                            x       y       z     vdW  Elec       q    Type
REMARK                         _______ _______ _______ _____ _____    ______ ____
ROOT
ATOM      1  C   UNL     1       0.184  10.222  20.133  0.00  0.00    +0.000 C 
ENDROOT
BRANCH   1   2
ATOM      2  C   UNL     1       0.485  11.593  19.572  0.00  0.00    +0.000 A 
ATOM      3  N   UNL     1      -0.347  12.342  18.875  0.00  0.00    +0.000 NA
ATOM      4  C   UNL     1       0.343  13.466  18.533  0.00  0.00    +0.000 A 
ATOM      5  C   UNL     1       1.617  13.457  19.080  0.00  0.00    +0.000 A 
ATOM      6  N   UNL     1       1.699  12.225  19.694  0.00  0.00    +0.000 N 
ATOM      7  H   UNL     1       2.464  11.867  20.252  0.00  0.00    +0.000 HD
BRANCH   5   8
ATOM      8  C   UNL     1       2.575  14.555  19.207  0.00  0.00    +0.000 A 
ATOM      9  C   UNL     1       2.758  15.475  18.168  0.00  0.00    +0.000 A 
ATOM     10  C   UNL     1       3.901  16.278  18.130  0.00  0.00    +0.000 A 
ATOM     11  C   UNL     1       4.848  16.187  19.146  0.00  0.00    +0.000 A 
ATOM     12 BR   UNL     1       6.488  17.113  18.989  0.00  0.00    +0.000 Br
ATOM     13  C   UNL     1       4.621  15.371  20.249  0.00  0.00    +0.000 A 
ATOM     14  C   UNL     1       3.479  14.570  20.283  0.00  0.00    +0.000 A 
ENDBRANCH   5   8
ENDBRANCH   1   2
BRANCH   1  17
ATOM     15  C   UNL     1       1.807   9.070  18.508  0.00  0.00    +0.000 C 
ATOM     16  O   UNL     1       1.695   9.854  17.575  0.00  0.00    +0.000 OA
ATOM     17  N   UNL     1       1.217   9.250  19.741  0.00  0.00    +0.000 N 
ATOM     18  H   UNL     1       1.192   8.424  20.307  0.00  0.00    +0.000 HD
BRANCH  15  27
ATOM     19  C   UNL     1       5.270   4.587  18.643  0.00  0.00    +0.000 A 
ATOM     20  C   UNL     1       6.278   4.505  17.679  0.00  0.00    +0.000 A 
ATOM     21  C   UNL     1       6.245   5.320  16.551  0.00  0.00    +0.000 A 
ATOM     22  C   UNL     1       5.198   6.223  16.386  0.00  0.00    +0.000 A 
ATOM     23  C   UNL     1       4.222   6.364  17.383  0.00  0.00    +0.000 A 
ATOM     24  C   UNL     1       4.268   5.566  18.530  0.00  0.00    +0.000 A 
ATOM     25  O   UNL     1       3.432   5.779  19.595  0.00  0.00    +0.000 OA
ATOM     26  C   UNL     1       2.356   6.729  19.452  0.00  0.00    +0.000 C 
ATOM     27  C   UNL     1       2.502   7.740  18.347  0.00  0.00    +0.000 C 
ATOM     28  C   UNL     1       3.276   7.468  17.285  0.00  0.00    +0.000 C 
BRANCH  19  30
ATOM     29  C   UNL     1       4.457   2.629  19.632  0.00  0.00    +0.000 C 
ATOM     30  O   UNL     1       5.394   3.702  19.684  0.00  0.00    +0.000 OA
ENDBRANCH  19  30
ENDBRANCH  15  27
ENDBRANCH   1  17
BRANCH   1  31
ATOM     31  C   UNL     1       0.098  10.287  21.709  0.00  0.00    +0.000 C 
ATOM     32  C   UNL     1      -0.835  11.393  22.228  0.00  0.00    +0.000 C 
ATOM     33  C   UNL     1      -0.372   8.973  22.361  0.00  0.00    +0.000 C 
ENDBRANCH   1  31
TORSDOF 6
ENDMDL
MODEL 7
REMARK VINA RESULT:      -8.0      3.815      9.494
REMARK  Name = 
REMARK  9 active torsions:
REMARK  status: ('A' for Active; 'I' for Inactive)
REMARK    1  A    between atoms: C_1  and  O_2
REMARK    2  A    between atoms: O_2  and  C_3
REMARK    3  A    between atoms: C_11  and  C_12
REMARK    4  A    between atoms: N_14  and  C_15
REMARK    5  A    between atoms: C_15  and  C_16
REMARK    6  A    between atoms: C_15  and  C_28
REMARK    7  A    between atoms: C_19  and  C_20
REMARK    8  A    between atoms: C_28  and  C_29
REMARK    9  A    between atoms: C_28  and  C_30
REMARK                            x       y       z     vdW  Elec       q    Type
REMARK                         _______ _______ _______ _____ _____    ______ ____
ROOT
ATOM      1  C   UNL     1       3.058   4.743  20.182  0.00  0.00    +0.000 C 
ENDROOT
BRANCH   1   2
ATOM      2  C   UNL     1       4.289   4.940  19.326  0.00  0.00    +0.000 A 
ATOM      3  N   UNL     1       5.452   5.402  19.742  0.00  0.00    +0.000 NA
ATOM      4  C   UNL     1       6.257   5.459  18.644  0.00  0.00    +0.000 A 
ATOM      5  C   UNL     1       5.610   4.963  17.523  0.00  0.00    +0.000 A 
ATOM      6  N   UNL     1       4.337   4.688  17.977  0.00  0.00    +0.000 N 
ATOM      7  H   UNL     1       3.580   4.259  17.460  0.00  0.00    +0.000 HD
BRANCH   5   8
ATOM      8  C   UNL     1       6.170   4.581  16.226  0.00  0.00    +0.000 A 
ATOM      9  C   UNL     1       7.291   5.236  15.705  0.00  0.00    +0.000 A 
ATOM     10  C   UNL     1       7.597   5.136  14.345  0.00  0.00    +0.000 A 
ATOM     11  C   UNL     1       6.803   4.355  13.510  0.00  0.00    +0.000 A 
ATOM     12 BR   UNL     1       7.088   4.388  11.642  0.00  0.00    +0.000 Br
ATOM     13  C   UNL     1       5.762   3.598  14.034  0.00  0.00    +0.000 A 
ATOM     14  C   UNL     1       5.458   3.700  15.393  0.00  0.00    +0.000 A 
ENDBRANCH   5   8
ENDBRANCH   1   2
BRANCH   1  17
ATOM     15  C   UNL     1       2.101   6.981  19.358  0.00  0.00    +0.000 C 
ATOM     16  O   UNL     1       2.393   6.863  18.175  0.00  0.00    +0.000 OA
ATOM     17  N   UNL     1       2.290   5.993  20.301  0.00  0.00    +0.000 N 
ATOM     18  H   UNL     1       2.239   6.315  21.247  0.00  0.00    +0.000 HD
BRANCH  15  27
ATOM     19  C   UNL     1      -0.772  11.325  21.589  0.00  0.00    +0.000 A 
ATOM     20  C   UNL     1      -1.412  12.209  20.717  0.00  0.00    +0.000 A 
ATOM     21  C   UNL     1      -1.105  12.207  19.358  0.00  0.00    +0.000 A 
ATOM     22  C   UNL     1      -0.152  11.316  18.871  0.00  0.00    +0.000 A 
ATOM     23  C   UNL     1       0.441  10.376  19.726  0.00  0.00    +0.000 A 
ATOM     24  C   UNL     1       0.113  10.357  21.085  0.00  0.00    +0.000 A 
ATOM     25  O   UNL     1       0.546   9.361  21.921  0.00  0.00    +0.000 OA
ATOM     26  C   UNL     1       1.514   8.414  21.426  0.00  0.00    +0.000 C 
ATOM     27  C   UNL     1       1.626   8.295  19.930  0.00  0.00    +0.000 C 
ATOM     28  C   UNL     1       1.257   9.319  19.144  0.00  0.00    +0.000 C 
BRANCH  19  30
ATOM     29  C   UNL     1      -1.495  12.786  23.268  0.00  0.00    +0.000 C 
ATOM     30  O   UNL     1      -1.131  11.456  22.907  0.00  0.00    +0.000 OA
ENDBRANCH  19  30
ENDBRANCH  15  27
ENDBRANCH   1  17
BRANCH   1  31
ATOM     31  C   UNL     1       2.138   3.620  19.560  0.00  0.00    +0.000 C 
ATOM     32  C   UNL     1       2.735   2.208  19.668  0.00  0.00    +0.000 C 
ATOM     33  C   UNL     1       0.731   3.553  20.184  0.00  0.00    +0.000 C 
ENDBRANCH   1  31
TORSDOF 6
ENDMDL
MODEL 8
REMARK VINA RESULT:      -8.0      5.707     11.711
REMARK  Name = 
REMARK  9 active torsions:
REMARK  status: ('A' for Active; 'I' for Inactive)
REMARK    1  A    between atoms: C_1  and  O_2
REMARK    2  A    between atoms: O_2  and  C_3
REMARK    3  A    between atoms: C_11  and  C_12
REMARK    4  A    between atoms: N_14  and  C_15
REMARK    5  A    between atoms: C_15  and  C_16
REMARK    6  A    between atoms: C_15  and  C_28
REMARK    7  A    between atoms: C_19  and  C_20
REMARK    8  A    between atoms: C_28  and  C_29
REMARK    9  A    between atoms: C_28  and  C_30
REMARK                            x       y       z     vdW  Elec       q    Type
REMARK                         _______ _______ _______ _____ _____    ______ ____
ROOT
ATOM      1  C   UNL     1       0.462  10.815  18.972  0.00  0.00    +0.000 C 
ENDROOT
BRANCH   1   2
ATOM      2  C   UNL     1       0.930   9.546  19.647  0.00  0.00    +0.000 A 
ATOM      3  N   UNL     1       0.628   9.169  20.874  0.00  0.00    +0.000 NA
ATOM      4  C   UNL     1       1.292   7.998  21.089  0.00  0.00    +0.000 A 
ATOM      5  C   UNL     1       1.975   7.594  19.952  0.00  0.00    +0.000 A 
ATOM      6  N   UNL     1       1.769   8.628  19.064  0.00  0.00    +0.000 N 
ATOM      7  H   UNL     1       2.069   8.677  18.099  0.00  0.00    +0.000 HD
BRANCH   5   8
ATOM      8  C   UNL     1       2.572   6.294  19.647  0.00  0.00    +0.000 A 
ATOM      9  C   UNL     1       3.263   6.082  18.449  0.00  0.00    +0.000 A 
ATOM     10  C   UNL     1       3.505   4.782  17.995  0.00  0.00    +0.000 A 
ATOM     11  C   UNL     1       3.086   3.692  18.753  0.00  0.00    +0.000 A 
ATOM     12 BR   UNL     1       3.223   1.946  18.044  0.00  0.00    +0.000 Br
ATOM     13  C   UNL     1       2.512   3.883  20.004  0.00  0.00    +0.000 A 
ATOM     14  C   UNL     1       2.270   5.183  20.455  0.00  0.00    +0.000 A 
ENDBRANCH   5   8
ENDBRANCH   1   2
BRANCH   1  17
ATOM     15  C   UNL     1      -1.964  11.474  18.442  0.00  0.00    +0.000 C 
ATOM     16  O   UNL     1      -1.886  11.433  17.221  0.00  0.00    +0.000 OA
ATOM     17  N   UNL     1      -0.946  11.098  19.292  0.00  0.00    +0.000 N 
ATOM     18  H   UNL     1      -1.061  11.417  20.235  0.00  0.00    +0.000 HD
BRANCH  15  27
ATOM     19  C   UNL     1      -6.247  12.852  21.885  0.00  0.00    +0.000 A 
ATOM     20  C   UNL     1      -7.494  12.265  21.654  0.00  0.00    +0.000 A 
ATOM     21  C   UNL     1      -7.755  11.612  20.452  0.00  0.00    +0.000 A 
ATOM     22  C   UNL     1      -6.763  11.547  19.476  0.00  0.00    +0.000 A 
ATOM     23  C   UNL     1      -5.487  12.070  19.728  0.00  0.00    +0.000 A 
ATOM     24  C   UNL     1      -5.214  12.701  20.946  0.00  0.00    +0.000 A 
ATOM     25  O   UNL     1      -3.944  13.083  21.295  0.00  0.00    +0.000 OA
ATOM     26  C   UNL     1      -2.899  12.999  20.306  0.00  0.00    +0.000 C 
ATOM     27  C   UNL     1      -3.156  12.083  19.140  0.00  0.00    +0.000 C 
ATOM     28  C   UNL     1      -4.415  11.786  18.783  0.00  0.00    +0.000 C 
BRANCH  19  30
ATOM     29  C   UNL     1      -6.059  12.618  24.206  0.00  0.00    +0.000 C 
ATOM     30  O   UNL     1      -6.131  13.501  23.089  0.00  0.00    +0.000 OA
ENDBRANCH  19  30
ENDBRANCH  15  27
ENDBRANCH   1  17
BRANCH   1  31
ATOM     31  C   UNL     1       1.357  12.035  19.427  0.00  0.00    +0.000 C 
ATOM     32  C   UNL     1       1.561  13.089  18.327  0.00  0.00    +0.000 C 
ATOM     33  C   UNL     1       0.811  12.782  20.658  0.00  0.00    +0.000 C 
ENDBRANCH   1  31
TORSDOF 6
ENDMDL
MODEL 9
REMARK VINA RESULT:      -8.0      6.133     11.214
REMARK  Name = 
REMARK  9 active torsions:
REMARK  status: ('A' for Active; 'I' for Inactive)
REMARK    1  A    between atoms: C_1  and  O_2
REMARK    2  A    between atoms: O_2  and  C_3
REMARK    3  A    between atoms: C_11  and  C_12
REMARK    4  A    between atoms: N_14  and  C_15
REMARK    5  A    between atoms: C_15  and  C_16
REMARK    6  A    between atoms: C_15  and  C_28
REMARK    7  A    between atoms: C_19  and  C_20
REMARK    8  A    between atoms: C_28  and  C_29
REMARK    9  A    between atoms: C_28  and  C_30
REMARK                            x       y       z     vdW  Elec       q    Type
REMARK                         _______ _______ _______ _____ _____    ______ ____
ROOT
ATOM      1  C   UNL     1       0.142  11.021  19.000  0.00  0.00    +0.000 C 
ENDROOT
BRANCH   1   2
ATOM      2  C   UNL     1       0.698   9.803  19.701  0.00  0.00    +0.000 A 
ATOM      3  N   UNL     1       0.585   9.535  20.988  0.00  0.00    +0.000 NA
ATOM      4  C   UNL     1       1.266   8.373  21.198  0.00  0.00    +0.000 A 
ATOM      5  C   UNL     1       1.763   7.862  20.010  0.00  0.00    +0.000 A 
ATOM      6  N   UNL     1       1.431   8.823  19.078  0.00  0.00    +0.000 N 
ATOM      7  H   UNL     1       1.580   8.786  18.078  0.00  0.00    +0.000 HD
BRANCH   5   8
ATOM      8  C   UNL     1       2.296   6.529  19.729  0.00  0.00    +0.000 A 
ATOM      9  C   UNL     1       3.021   6.275  18.559  0.00  0.00    +0.000 A 
ATOM     10  C   UNL     1       3.207   4.963  18.116  0.00  0.00    +0.000 A 
ATOM     11  C   UNL     1       2.696   3.900  18.857  0.00  0.00    +0.000 A 
ATOM     12 BR   UNL     1       2.760   2.147  18.153  0.00  0.00    +0.000 Br
ATOM     13  C   UNL     1       2.083   4.127  20.083  0.00  0.00    +0.000 A 
ATOM     14  C   UNL     1       1.899   5.439  20.524  0.00  0.00    +0.000 A 
ENDBRANCH   5   8
ENDBRANCH   1   2
BRANCH   1  17
ATOM     15  C   UNL     1      -1.960  10.281  17.722  0.00  0.00    +0.000 C 
ATOM     16  O   UNL     1      -1.410   9.566  16.893  0.00  0.00    +0.000 OA
ATOM     17  N   UNL     1      -1.306  10.887  18.773  0.00  0.00    +0.000 N 
ATOM     18  H   UNL     1      -1.826  11.624  19.208  0.00  0.00    +0.000 HD
BRANCH  15  27
ATOM     19  C   UNL     1      -6.965  12.923  17.449  0.00  0.00    +0.000 A 
ATOM     20  C   UNL     1      -7.710  13.047  18.625  0.00  0.00    +0.000 A 
ATOM     21  C   UNL     1      -7.388  12.289  19.748  0.00  0.00    +0.000 A 
ATOM     22  C   UNL     1      -6.315  11.402  19.693  0.00  0.00    +0.000 A 
ATOM     23  C   UNL     1      -5.518  11.326  18.543  0.00  0.00    +0.000 A 
ATOM     24  C   UNL     1      -5.822  12.107  17.423  0.00  0.00    +0.000 A 
ATOM     25  O   UNL     1      -4.983  12.181  16.342  0.00  0.00    +0.000 OA
ATOM     26  C   UNL     1      -3.853  11.288  16.280  0.00  0.00    +0.000 C 
ATOM     27  C   UNL     1      -3.409  10.682  17.584  0.00  0.00    +0.000 C 
ATOM     28  C   UNL     1      -4.279  10.562  18.600  0.00  0.00    +0.000 C 
BRANCH  19  30
ATOM     29  C   UNL     1      -7.136  15.081  16.561  0.00  0.00    +0.000 C 
ATOM     30  O   UNL     1      -7.410  13.691  16.402  0.00  0.00    +0.000 OA
ENDBRANCH  19  30
ENDBRANCH  15  27
ENDBRANCH   1  17
BRANCH   1  31
ATOM     31  C   UNL     1       0.418  12.317  19.859  0.00  0.00    +0.000 C 
ATOM     32  C   UNL     1       1.612  13.144  19.355  0.00  0.00    +0.000 C 
ATOM     33  C   UNL     1      -0.782  13.280  19.937  0.00  0.00    +0.000 C 
ENDBRANCH   1  31
TORSDOF 6
ENDMDL
