MODEL 1
REMARK VINA RESULT:      -7.4      0.000      0.000
REMARK  Name = 
REMARK  8 active torsions:
REMARK  status: ('A' for Active; 'I' for Inactive)
REMARK    1  A    between atoms: C_13  and  C_14
REMARK    2  A    between atoms: C_17  and  O_18
REMARK    3  A    between atoms: O_18  and  C_19
REMARK    4  A    between atoms: N_22  and  C_23
REMARK    5  A    between atoms: C_26  and  O_27
REMARK    6  A    between atoms: O_27  and  C_28
REMARK    7  A    between atoms: C_28  and  C_29
REMARK    8  A    between atoms: C_29  and  N_30
REMARK                            x       y       z     vdW  Elec       q    Type
REMARK                         _______ _______ _______ _____ _____    ______ ____
ROOT
ATOM      1  C   UNL     1      -0.588  12.384  22.402  0.00  0.00    +0.000 C 
ATOM      2  C   UNL     1      -1.573  12.250  21.489  0.00  0.00    +0.000 C 
ATOM      3  C   UNL     1      -2.795  12.950  21.856  0.00  0.00    +0.000 A 
ATOM      4  N   UNL     1      -3.153  13.624  22.937  0.00  0.00    +0.000 NA
ATOM      5  C   UNL     1      -4.408  14.118  22.669  0.00  0.00    +0.000 A 
ATOM      6  C   UNL     1      -5.245  14.919  23.461  0.00  0.00    +0.000 A 
ATOM      7  C   UNL     1      -6.489  15.311  22.951  0.00  0.00    +0.000 A 
ATOM      8  C   UNL     1      -6.903  14.907  21.681  0.00  0.00    +0.000 A 
ATOM      9  C   UNL     1      -6.087  14.104  20.880  0.00  0.00    +0.000 A 
ATOM     10  C   UNL     1      -4.842  13.730  21.408  0.00  0.00    +0.000 A 
ATOM     11  N   UNL     1      -3.802  12.980  20.903  0.00  0.00    +0.000 N 
ATOM     12  C   UNL     1      -3.725  12.357  19.674  0.00  0.00    +0.000 C 
ATOM     13  C   UNL     1      -2.615  11.678  19.339  0.00  0.00    +0.000 C 
ATOM     14  N   UNL     1      -1.487  11.577  20.219  0.00  0.00    +0.000 N 
ENDROOT
BRANCH  13  15
ATOM     15  C   UNL     1      -2.712  11.032  18.012  0.00  0.00    +0.000 A 
ATOM     16  C   UNL     1      -2.559  11.794  16.846  0.00  0.00    +0.000 A 
ATOM     17  C   UNL     1      -2.683  11.202  15.588  0.00  0.00    +0.000 A 
ATOM     18  C   UNL     1      -3.010   9.851  15.475  0.00  0.00    +0.000 A 
ATOM     19  C   UNL     1      -3.213   9.096  16.633  0.00  0.00    +0.000 A 
ATOM     20  C   UNL     1      -3.058   9.683  17.895  0.00  0.00    +0.000 A 
BRANCH  18  21
ATOM     21  O   UNL     1      -3.161   9.408  14.191  0.00  0.00    +0.000 OA
ATOM     22  C   UNL     1      -4.155  10.053  13.406  0.00  0.00    +0.000 C 
ENDBRANCH  18  21
ENDBRANCH  13  15
BRANCH  14  23
ATOM     23  C   UNL     1      -0.316  10.834  19.821  0.00  0.00    +0.000 A 
ATOM     24  C   UNL     1       0.516  11.337  18.818  0.00  0.00    +0.000 A 
ATOM     25  C   UNL     1       1.495  10.564  18.207  0.00  0.00    +0.000 A 
ATOM     26  C   UNL     1       1.788   9.288  18.678  0.00  0.00    +0.000 A 
ATOM     27  C   UNL     1       1.099   8.825  19.797  0.00  0.00    +0.000 A 
ATOM     28  C   UNL     1       0.032   9.575  20.341  0.00  0.00    +0.000 A 
BRANCH  26  29
ATOM     29  O   UNL     1       2.719   8.451  18.098  0.00  0.00    +0.000 OA
BRANCH  29  30
ATOM     30  C   UNL     1       2.894   7.233  18.845  0.00  0.00    +0.000 C 
BRANCH  30  31
ATOM     31  C   UNL     1       2.914   5.972  17.981  0.00  0.00    +0.000 C 
BRANCH  31  32
ATOM     32  N   UNL     1       2.574   4.761  18.773  0.00  0.00    +0.000 NA
ATOM     33  C   UNL     1       1.948   5.146  20.046  0.00  0.00    +0.000 C 
ATOM     34  C   UNL     1       1.648   3.925  20.920  0.00  0.00    +0.000 C 
ATOM     35  C   UNL     1       0.778   2.913  20.185  0.00  0.00    +0.000 C 
ATOM     36  C   UNL     1       1.412   2.560  18.847  0.00  0.00    +0.000 C 
ATOM     37  C   UNL     1       1.721   3.817  18.035  0.00  0.00    +0.000 C 
ENDBRANCH  31  32
ENDBRANCH  30  31
ENDBRANCH  29  30
ENDBRANCH  26  29
ENDBRANCH  14  23
TORSDOF 7
ENDMDL
MODEL 2
REMARK VINA RESULT:      -7.3      1.014      1.390
REMARK  Name = 
REMARK  8 active torsions:
REMARK  status: ('A' for Active; 'I' for Inactive)
REMARK    1  A    between atoms: C_13  and  C_14
REMARK    2  A    between atoms: C_17  and  O_18
REMARK    3  A    between atoms: O_18  and  C_19
REMARK    4  A    between atoms: N_22  and  C_23
REMARK    5  A    between atoms: C_26  and  O_27
REMARK    6  A    between atoms: O_27  and  C_28
REMARK    7  A    between atoms: C_28  and  C_29
REMARK    8  A    between atoms: C_29  and  N_30
REMARK                            x       y       z     vdW  Elec       q    Type
REMARK                         _______ _______ _______ _____ _____    ______ ____
ROOT
ATOM      1  C   UNL     1      -0.865  12.717  22.430  0.00  0.00    +0.000 C 
ATOM      2  C   UNL     1      -1.876  12.511  21.559  0.00  0.00    +0.000 C 
ATOM      3  C   UNL     1      -3.141  13.076  22.003  0.00  0.00    +0.000 A 
ATOM      4  N   UNL     1      -3.511  13.682  23.121  0.00  0.00    +0.000 NA
ATOM      5  C   UNL     1      -4.819  14.056  22.926  0.00  0.00    +0.000 A 
ATOM      6  C   UNL     1      -5.691  14.748  23.781  0.00  0.00    +0.000 A 
ATOM      7  C   UNL     1      -6.991  15.029  23.340  0.00  0.00    +0.000 A 
ATOM      8  C   UNL     1      -7.424  14.621  22.079  0.00  0.00    +0.000 A 
ATOM      9  C   UNL     1      -6.573  13.924  21.216  0.00  0.00    +0.000 A 
ATOM     10  C   UNL     1      -5.274  13.662  21.674  0.00  0.00    +0.000 A 
ATOM     11  N   UNL     1      -4.191  13.032  21.099  0.00  0.00    +0.000 N 
ATOM     12  C   UNL     1      -4.113  12.454  19.849  0.00  0.00    +0.000 C 
ATOM     13  C   UNL     1      -2.960  11.897  19.442  0.00  0.00    +0.000 C 
ATOM     14  N   UNL     1      -1.786  11.884  20.266  0.00  0.00    +0.000 N 
ENDROOT
BRANCH  13  15
ATOM     15  C   UNL     1      -3.058  11.281  18.100  0.00  0.00    +0.000 A 
ATOM     16  C   UNL     1      -2.127  10.313  17.701  0.00  0.00    +0.000 A 
ATOM     17  C   UNL     1      -2.189   9.750  16.425  0.00  0.00    +0.000 A 
ATOM     18  C   UNL     1      -3.150  10.182  15.512  0.00  0.00    +0.000 A 
ATOM     19  C   UNL     1      -4.051  11.183  15.885  0.00  0.00    +0.000 A 
ATOM     20  C   UNL     1      -4.008  11.725  17.176  0.00  0.00    +0.000 A 
BRANCH  18  21
ATOM     21  O   UNL     1      -3.066   9.596  14.279  0.00  0.00    +0.000 OA
ATOM     22  C   UNL     1      -4.064   9.956  13.333  0.00  0.00    +0.000 C 
ENDBRANCH  18  21
ENDBRANCH  13  15
BRANCH  14  23
ATOM     23  C   UNL     1      -0.568  11.273  19.791  0.00  0.00    +0.000 A 
ATOM     24  C   UNL     1       0.288  11.992  18.955  0.00  0.00    +0.000 A 
ATOM     25  C   UNL     1       1.325  11.388  18.256  0.00  0.00    +0.000 A 
ATOM     26  C   UNL     1       1.648  10.052  18.478  0.00  0.00    +0.000 A 
ATOM     27  C   UNL     1       0.926   9.353  19.444  0.00  0.00    +0.000 A 
ATOM     28  C   UNL     1      -0.194   9.946  20.068  0.00  0.00    +0.000 A 
BRANCH  26  29
ATOM     29  O   UNL     1       2.638   9.377  17.794  0.00  0.00    +0.000 OA
BRANCH  29  30
ATOM     30  C   UNL     1       2.446   7.952  17.828  0.00  0.00    +0.000 C 
BRANCH  30  31
ATOM     31  C   UNL     1       3.746   7.148  17.783  0.00  0.00    +0.000 C 
BRANCH  31  32
ATOM     32  N   UNL     1       3.505   5.703  18.037  0.00  0.00    +0.000 NA
ATOM     33  C   UNL     1       2.067   5.408  17.968  0.00  0.00    +0.000 C 
ATOM     34  C   UNL     1       1.774   3.941  18.294  0.00  0.00    +0.000 C 
ATOM     35  C   UNL     1       2.554   3.000  17.384  0.00  0.00    +0.000 C 
ATOM     36  C   UNL     1       4.035   3.348  17.426  0.00  0.00    +0.000 C 
ATOM     37  C   UNL     1       4.263   4.830  17.128  0.00  0.00    +0.000 C 
ENDBRANCH  31  32
ENDBRANCH  30  31
ENDBRANCH  29  30
ENDBRANCH  26  29
ENDBRANCH  14  23
TORSDOF 7
ENDMDL
MODEL 3
REMARK VINA RESULT:      -7.0      4.125      8.472
REMARK  Name = 
REMARK  8 active torsions:
REMARK  status: ('A' for Active; 'I' for Inactive)
REMARK    1  A    between atoms: C_13  and  C_14
REMARK    2  A    between atoms: C_17  and  O_18
REMARK    3  A    between atoms: O_18  and  C_19
REMARK    4  A    between atoms: N_22  and  C_23
REMARK    5  A    between atoms: C_26  and  O_27
REMARK    6  A    between atoms: O_27  and  C_28
REMARK    7  A    between atoms: C_28  and  C_29
REMARK    8  A    between atoms: C_29  and  N_30
REMARK                            x       y       z     vdW  Elec       q    Type
REMARK                         _______ _______ _______ _____ _____    ______ ____
ROOT
ATOM      1  C   UNL     1       1.414  16.156  22.515  0.00  0.00    +0.000 C 
ATOM      2  C   UNL     1       1.515  15.377  21.417  0.00  0.00    +0.000 C 
ATOM      3  C   UNL     1       2.764  15.564  20.693  0.00  0.00    +0.000 A 
ATOM      4  N   UNL     1       3.780  16.397  20.857  0.00  0.00    +0.000 NA
ATOM      5  C   UNL     1       4.705  16.047  19.902  0.00  0.00    +0.000 A 
ATOM      6  C   UNL     1       5.973  16.587  19.641  0.00  0.00    +0.000 A 
ATOM      7  C   UNL     1       6.745  16.039  18.608  0.00  0.00    +0.000 A 
ATOM      8  C   UNL     1       6.263  14.979  17.839  0.00  0.00    +0.000 A 
ATOM      9  C   UNL     1       5.000  14.432  18.079  0.00  0.00    +0.000 A 
ATOM     10  C   UNL     1       4.248  14.991  19.123  0.00  0.00    +0.000 A 
ATOM     11  N   UNL     1       3.004  14.697  19.639  0.00  0.00    +0.000 N 
ATOM     12  C   UNL     1       2.123  13.722  19.220  0.00  0.00    +0.000 C 
ATOM     13  C   UNL     1       0.951  13.564  19.858  0.00  0.00    +0.000 C 
ATOM     14  N   UNL     1       0.575  14.379  20.979  0.00  0.00    +0.000 N 
ENDROOT
BRANCH  13  15
ATOM     15  C   UNL     1       0.104  12.511  19.258  0.00  0.00    +0.000 A 
ATOM     16  C   UNL     1      -0.888  12.850  18.328  0.00  0.00    +0.000 A 
ATOM     17  C   UNL     1      -1.716  11.868  17.781  0.00  0.00    +0.000 A 
ATOM     18  C   UNL     1      -1.599  10.540  18.191  0.00  0.00    +0.000 A 
ATOM     19  C   UNL     1      -0.646  10.202  19.155  0.00  0.00    +0.000 A 
ATOM     20  C   UNL     1       0.206  11.182  19.681  0.00  0.00    +0.000 A 
BRANCH  18  21
ATOM     21  O   UNL     1      -2.506   9.689  17.626  0.00  0.00    +0.000 OA
ATOM     22  C   UNL     1      -2.796   9.889  16.248  0.00  0.00    +0.000 C 
ENDBRANCH  18  21
ENDBRANCH  13  15
BRANCH  14  23
ATOM     23  C   UNL     1      -0.694  14.178  21.633  0.00  0.00    +0.000 A 
ATOM     24  C   UNL     1      -1.785  14.982  21.292  0.00  0.00    +0.000 A 
ATOM     25  C   UNL     1      -2.944  15.024  22.055  0.00  0.00    +0.000 A 
ATOM     26  C   UNL     1      -3.126  14.147  23.120  0.00  0.00    +0.000 A 
ATOM     27  C   UNL     1      -2.130  13.206  23.375  0.00  0.00    +0.000 A 
ATOM     28  C   UNL     1      -0.910  13.245  22.662  0.00  0.00    +0.000 A 
BRANCH  26  29
ATOM     29  O   UNL     1      -4.233  14.158  23.943  0.00  0.00    +0.000 OA
BRANCH  29  30
ATOM     30  C   UNL     1      -5.463  14.204  23.198  0.00  0.00    +0.000 C 
BRANCH  30  31
ATOM     31  C   UNL     1      -6.320  12.945  23.333  0.00  0.00    +0.000 C 
BRANCH  31  32
ATOM     32  N   UNL     1      -6.305  12.136  22.087  0.00  0.00    +0.000 NA
ATOM     33  C   UNL     1      -7.660  11.659  21.774  0.00  0.00    +0.000 C 
ATOM     34  C   UNL     1      -7.672  10.762  20.534  0.00  0.00    +0.000 C 
ATOM     35  C   UNL     1      -7.067  11.470  19.328  0.00  0.00    +0.000 C 
ATOM     36  C   UNL     1      -5.685  12.002  19.679  0.00  0.00    +0.000 C 
ATOM     37  C   UNL     1      -5.729  12.859  20.943  0.00  0.00    +0.000 C 
ENDBRANCH  31  32
ENDBRANCH  30  31
ENDBRANCH  29  30
ENDBRANCH  26  29
ENDBRANCH  14  23
TORSDOF 7
ENDMDL
MODEL 4
REMARK VINA RESULT:      -7.0      1.299      1.754
REMARK  Name = 
REMARK  8 active torsions:
REMARK  status: ('A' for Active; 'I' for Inactive)
REMARK    1  A    between atoms: C_13  and  C_14
REMARK    2  A    between atoms: C_17  and  O_18
REMARK    3  A    between atoms: O_18  and  C_19
REMARK    4  A    between atoms: N_22  and  C_23
REMARK    5  A    between atoms: C_26  and  O_27
REMARK    6  A    between atoms: O_27  and  C_28
REMARK    7  A    between atoms: C_28  and  C_29
REMARK    8  A    between atoms: C_29  and  N_30
REMARK                            x       y       z     vdW  Elec       q    Type
REMARK                         _______ _______ _______ _____ _____    ______ ____
ROOT
ATOM      1  C   UNL     1      -0.605  13.221  22.725  0.00  0.00    +0.000 C 
ATOM      2  C   UNL     1      -1.680  13.099  21.920  0.00  0.00    +0.000 C 
ATOM      3  C   UNL     1      -2.853  13.805  22.415  0.00  0.00    +0.000 A 
ATOM      4  N   UNL     1      -3.091  14.477  23.531  0.00  0.00    +0.000 NA
ATOM      5  C   UNL     1      -4.363  14.981  23.397  0.00  0.00    +0.000 A 
ATOM      6  C   UNL     1      -5.106  15.784  24.276  0.00  0.00    +0.000 A 
ATOM      7  C   UNL     1      -6.394  16.188  23.899  0.00  0.00    +0.000 A 
ATOM      8  C   UNL     1      -6.941  15.793  22.678  0.00  0.00    +0.000 A 
ATOM      9  C   UNL     1      -6.219  14.988  21.793  0.00  0.00    +0.000 A 
ATOM     10  C   UNL     1      -4.929  14.603  22.186  0.00  0.00    +0.000 A 
ATOM     11  N   UNL     1      -3.952  13.848  21.572  0.00  0.00    +0.000 N 
ATOM     12  C   UNL     1      -4.009  13.231  20.339  0.00  0.00    +0.000 C 
ATOM     13  C   UNL     1      -2.945  12.545  19.887  0.00  0.00    +0.000 C 
ATOM     14  N   UNL     1      -1.732  12.432  20.645  0.00  0.00    +0.000 N 
ENDROOT
BRANCH  13  15
ATOM     15  C   UNL     1      -3.185  11.907  18.575  0.00  0.00    +0.000 A 
ATOM     16  C   UNL     1      -4.456  11.414  18.253  0.00  0.00    +0.000 A 
ATOM     17  C   UNL     1      -4.686  10.779  17.032  0.00  0.00    +0.000 A 
ATOM     18  C   UNL     1      -3.637  10.584  16.133  0.00  0.00    +0.000 A 
ATOM     19  C   UNL     1      -2.356  11.029  16.466  0.00  0.00    +0.000 A 
ATOM     20  C   UNL     1      -2.133  11.693  17.679  0.00  0.00    +0.000 A 
BRANCH  18  21
ATOM     21  O   UNL     1      -3.980   9.898  15.001  0.00  0.00    +0.000 OA
ATOM     22  C   UNL     1      -3.108  10.031  13.886  0.00  0.00    +0.000 C 
ENDBRANCH  18  21
ENDBRANCH  13  15
BRANCH  14  23
ATOM     23  C   UNL     1      -0.614  11.683  20.124  0.00  0.00    +0.000 A 
ATOM     24  C   UNL     1       0.435  12.354  19.491  0.00  0.00    +0.000 A 
ATOM     25  C   UNL     1       1.397  11.690  18.742  0.00  0.00    +0.000 A 
ATOM     26  C   UNL     1       1.440  10.299  18.713  0.00  0.00    +0.000 A 
ATOM     27  C   UNL     1       0.515   9.597  19.483  0.00  0.00    +0.000 A 
ATOM     28  C   UNL     1      -0.524  10.281  20.153  0.00  0.00    +0.000 A 
BRANCH  26  29
ATOM     29  O   UNL     1       2.342   9.574  17.962  0.00  0.00    +0.000 OA
BRANCH  29  30
ATOM     30  C   UNL     1       2.086   8.159  18.023  0.00  0.00    +0.000 C 
BRANCH  30  31
ATOM     31  C   UNL     1       3.346   7.305  18.172  0.00  0.00    +0.000 C 
BRANCH  31  32
ATOM     32  N   UNL     1       3.162   5.952  17.584  0.00  0.00    +0.000 NA
ATOM     33  C   UNL     1       4.439   5.222  17.582  0.00  0.00    +0.000 C 
ATOM     34  C   UNL     1       4.303   3.849  16.918  0.00  0.00    +0.000 C 
ATOM     35  C   UNL     1       3.215   3.014  17.581  0.00  0.00    +0.000 C 
ATOM     36  C   UNL     1       1.912   3.799  17.622  0.00  0.00    +0.000 C 
ATOM     37  C   UNL     1       2.115   5.173  18.261  0.00  0.00    +0.000 C 
ENDBRANCH  31  32
ENDBRANCH  30  31
ENDBRANCH  29  30
ENDBRANCH  26  29
ENDBRANCH  14  23
TORSDOF 7
ENDMDL
MODEL 5
REMARK VINA RESULT:      -7.0      2.924      4.756
REMARK  Name = 
REMARK  8 active torsions:
REMARK  status: ('A' for Active; 'I' for Inactive)
REMARK    1  A    between atoms: C_13  and  C_14
REMARK    2  A    between atoms: C_17  and  O_18
REMARK    3  A    between atoms: O_18  and  C_19
REMARK    4  A    between atoms: N_22  and  C_23
REMARK    5  A    between atoms: C_26  and  O_27
REMARK    6  A    between atoms: O_27  and  C_28
REMARK    7  A    between atoms: C_28  and  C_29
REMARK    8  A    between atoms: C_29  and  N_30
REMARK                            x       y       z     vdW  Elec       q    Type
REMARK                         _______ _______ _______ _____ _____    ______ ____
ROOT
ATOM      1  C   UNL     1      -2.742  11.952  23.093  0.00  0.00    +0.000 C 
ATOM      2  C   UNL     1      -2.029  13.016  22.668  0.00  0.00    +0.000 C 
ATOM      3  C   UNL     1      -2.470  14.274  23.252  0.00  0.00    +0.000 A 
ATOM      4  N   UNL     1      -3.476  14.587  24.054  0.00  0.00    +0.000 NA
ATOM      5  C   UNL     1      -3.336  15.928  24.320  0.00  0.00    +0.000 A 
ATOM      6  C   UNL     1      -4.115  16.768  25.131  0.00  0.00    +0.000 A 
ATOM      7  C   UNL     1      -3.753  18.116  25.256  0.00  0.00    +0.000 A 
ATOM      8  C   UNL     1      -2.644  18.626  24.581  0.00  0.00    +0.000 A 
ATOM      9  C   UNL     1      -1.859  17.807  23.764  0.00  0.00    +0.000 A 
ATOM     10  C   UNL     1      -2.235  16.460  23.660  0.00  0.00    +0.000 A 
ATOM     11  N   UNL     1      -1.696  15.390  22.978  0.00  0.00    +0.000 N 
ATOM     12  C   UNL     1      -0.583  15.381  22.162  0.00  0.00    +0.000 C 
ATOM     13  C   UNL     1      -0.187  14.232  21.588  0.00  0.00    +0.000 C 
ATOM     14  N   UNL     1      -0.882  12.995  21.797  0.00  0.00    +0.000 N 
ENDROOT
BRANCH  13  15
ATOM     15  C   UNL     1       0.991  14.402  20.710  0.00  0.00    +0.000 A 
ATOM     16  C   UNL     1       0.820  14.737  19.360  0.00  0.00    +0.000 A 
ATOM     17  C   UNL     1       1.922  14.866  18.514  0.00  0.00    +0.000 A 
ATOM     18  C   UNL     1       3.209  14.613  18.990  0.00  0.00    +0.000 A 
ATOM     19  C   UNL     1       3.384  14.230  20.322  0.00  0.00    +0.000 A 
ATOM     20  C   UNL     1       2.280  14.131  21.179  0.00  0.00    +0.000 A 
BRANCH  18  21
ATOM     21  O   UNL     1       4.194  14.716  18.048  0.00  0.00    +0.000 OA
ATOM     22  C   UNL     1       5.343  15.472  18.407  0.00  0.00    +0.000 C 
ENDBRANCH  18  21
ENDBRANCH  13  15
BRANCH  14  23
ATOM     23  C   UNL     1      -0.425  11.784  21.159  0.00  0.00    +0.000 A 
ATOM     24  C   UNL     1       0.385  10.892  21.866  0.00  0.00    +0.000 A 
ATOM     25  C   UNL     1       1.070   9.857  21.242  0.00  0.00    +0.000 A 
ATOM     26  C   UNL     1       0.859   9.575  19.896  0.00  0.00    +0.000 A 
ATOM     27  C   UNL     1      -0.083  10.335  19.204  0.00  0.00    +0.000 A 
ATOM     28  C   UNL     1      -0.692  11.452  19.820  0.00  0.00    +0.000 A 
BRANCH  26  29
ATOM     29  O   UNL     1       1.531   8.589  19.203  0.00  0.00    +0.000 OA
BRANCH  29  30
ATOM     30  C   UNL     1       2.032   7.559  20.074  0.00  0.00    +0.000 C 
BRANCH  30  31
ATOM     31  C   UNL     1       2.640   6.364  19.339  0.00  0.00    +0.000 C 
BRANCH  31  32
ATOM     32  N   UNL     1       1.864   5.120  19.583  0.00  0.00    +0.000 NA
ATOM     33  C   UNL     1       2.011   4.199  18.446  0.00  0.00    +0.000 C 
ATOM     34  C   UNL     1       1.168   2.934  18.630  0.00  0.00    +0.000 C 
ATOM     35  C   UNL     1       1.505   2.224  19.936  0.00  0.00    +0.000 C 
ATOM     36  C   UNL     1       1.397   3.200  21.099  0.00  0.00    +0.000 C 
ATOM     37  C   UNL     1       2.229   4.456  20.844  0.00  0.00    +0.000 C 
ENDBRANCH  31  32
ENDBRANCH  30  31
ENDBRANCH  29  30
ENDBRANCH  26  29
ENDBRANCH  14  23
TORSDOF 7
ENDMDL
MODEL 6
REMARK VINA RESULT:      -7.0      1.106      1.342
REMARK  Name = 
REMARK  8 active torsions:
REMARK  status: ('A' for Active; 'I' for Inactive)
REMARK    1  A    between atoms: C_13  and  C_14
REMARK    2  A    between atoms: C_17  and  O_18
REMARK    3  A    between atoms: O_18  and  C_19
REMARK    4  A    between atoms: N_22  and  C_23
REMARK    5  A    between atoms: C_26  and  O_27
REMARK    6  A    between atoms: O_27  and  C_28
REMARK    7  A    between atoms: C_28  and  C_29
REMARK    8  A    between atoms: C_29  and  N_30
REMARK                            x       y       z     vdW  Elec       q    Type
REMARK                         _______ _______ _______ _____ _____    ______ ____
ROOT
ATOM      1  C   UNL     1      -0.998  12.739  23.039  0.00  0.00    +0.000 C 
ATOM      2  C   UNL     1      -1.867  12.658  22.010  0.00  0.00    +0.000 C 
ATOM      3  C   UNL     1      -3.003  13.558  22.144  0.00  0.00    +0.000 A 
ATOM      4  N   UNL     1      -3.387  14.381  23.108  0.00  0.00    +0.000 NA
ATOM      5  C   UNL     1      -4.505  15.020  22.627  0.00  0.00    +0.000 A 
ATOM      6  C   UNL     1      -5.301  16.007  23.228  0.00  0.00    +0.000 A 
ATOM      7  C   UNL     1      -6.394  16.521  22.518  0.00  0.00    +0.000 A 
ATOM      8  C   UNL     1      -6.700  16.057  21.238  0.00  0.00    +0.000 A 
ATOM      9  C   UNL     1      -5.923  15.070  20.626  0.00  0.00    +0.000 A 
ATOM     10  C   UNL     1      -4.829  14.576  21.351  0.00  0.00    +0.000 A 
ATOM     11  N   UNL     1      -3.862  13.638  21.059  0.00  0.00    +0.000 N 
ATOM     12  C   UNL     1      -3.726  12.893  19.906  0.00  0.00    +0.000 C 
ATOM     13  C   UNL     1      -2.702  12.031  19.786  0.00  0.00    +0.000 C 
ATOM     14  N   UNL     1      -1.725  11.857  20.822  0.00  0.00    +0.000 N 
ENDROOT
BRANCH  13  15
ATOM     15  C   UNL     1      -2.727  11.278  18.513  0.00  0.00    +0.000 A 
ATOM     16  C   UNL     1      -2.226  11.860  17.340  0.00  0.00    +0.000 A 
ATOM     17  C   UNL     1      -2.277  11.173  16.127  0.00  0.00    +0.000 A 
ATOM     18  C   UNL     1      -2.873   9.914  16.056  0.00  0.00    +0.000 A 
ATOM     19  C   UNL     1      -3.419   9.348  17.210  0.00  0.00    +0.000 A 
ATOM     20  C   UNL     1      -3.340  10.025  18.434  0.00  0.00    +0.000 A 
BRANCH  18  21
ATOM     21  O   UNL     1      -2.911   9.374  14.801  0.00  0.00    +0.000 OA
ATOM     22  C   UNL     1      -3.690  10.065  13.833  0.00  0.00    +0.000 C 
ENDBRANCH  18  21
ENDBRANCH  13  15
BRANCH  14  23
ATOM     23  C   UNL     1      -0.642  10.919  20.652  0.00  0.00    +0.000 A 
ATOM     24  C   UNL     1       0.244  11.069  19.583  0.00  0.00    +0.000 A 
ATOM     25  C   UNL     1       1.133  10.070  19.210  0.00  0.00    +0.000 A 
ATOM     26  C   UNL     1       1.282   8.924  19.985  0.00  0.00    +0.000 A 
ATOM     27  C   UNL     1       0.540   8.826  21.161  0.00  0.00    +0.000 A 
ATOM     28  C   UNL     1      -0.438   9.796  21.473  0.00  0.00    +0.000 A 
BRANCH  26  29
ATOM     29  O   UNL     1       2.116   7.876  19.655  0.00  0.00    +0.000 OA
BRANCH  29  30
ATOM     30  C   UNL     1       2.313   7.766  18.234  0.00  0.00    +0.000 C 
BRANCH  30  31
ATOM     31  C   UNL     1       3.501   6.889  17.837  0.00  0.00    +0.000 C 
BRANCH  31  32
ATOM     32  N   UNL     1       3.256   5.458  18.155  0.00  0.00    +0.000 NA
ATOM     33  C   UNL     1       1.865   5.099  17.842  0.00  0.00    +0.000 C 
ATOM     34  C   UNL     1       1.556   3.649  18.223  0.00  0.00    +0.000 C 
ATOM     35  C   UNL     1       2.519   2.678  17.552  0.00  0.00    +0.000 C 
ATOM     36  C   UNL     1       3.955   3.088  17.844  0.00  0.00    +0.000 C 
ATOM     37  C   UNL     1       4.196   4.553  17.477  0.00  0.00    +0.000 C 
ENDBRANCH  31  32
ENDBRANCH  30  31
ENDBRANCH  29  30
ENDBRANCH  26  29
ENDBRANCH  14  23
TORSDOF 7
ENDMDL
MODEL 7
REMARK VINA RESULT:      -6.8      1.555      2.250
REMARK  Name = 
REMARK  8 active torsions:
REMARK  status: ('A' for Active; 'I' for Inactive)
REMARK    1  A    between atoms: C_13  and  C_14
REMARK    2  A    between atoms: C_17  and  O_18
REMARK    3  A    between atoms: O_18  and  C_19
REMARK    4  A    between atoms: N_22  and  C_23
REMARK    5  A    between atoms: C_26  and  O_27
REMARK    6  A    between atoms: O_27  and  C_28
REMARK    7  A    between atoms: C_28  and  C_29
REMARK    8  A    between atoms: C_29  and  N_30
REMARK                            x       y       z     vdW  Elec       q    Type
REMARK                         _______ _______ _______ _____ _____    ______ ____
ROOT
ATOM      1  C   UNL     1      -0.648  12.124  22.507  0.00  0.00    +0.000 C 
ATOM      2  C   UNL     1      -1.600  12.060  21.552  0.00  0.00    +0.000 C 
ATOM      3  C   UNL     1      -2.838  12.726  21.928  0.00  0.00    +0.000 A 
ATOM      4  N   UNL     1      -3.238  13.312  23.046  0.00  0.00    +0.000 NA
ATOM      5  C   UNL     1      -4.484  13.822  22.773  0.00  0.00    +0.000 A 
ATOM      6  C   UNL     1      -5.353  14.556  23.595  0.00  0.00    +0.000 A 
ATOM      7  C   UNL     1      -6.581  14.985  23.073  0.00  0.00    +0.000 A 
ATOM      8  C   UNL     1      -6.947  14.681  21.761  0.00  0.00    +0.000 A 
ATOM      9  C   UNL     1      -6.099  13.945  20.929  0.00  0.00    +0.000 A 
ATOM     10  C   UNL     1      -4.871  13.534  21.470  0.00  0.00    +0.000 A 
ATOM     11  N   UNL     1      -3.810  12.829  20.945  0.00  0.00    +0.000 N 
ATOM     12  C   UNL     1      -3.686  12.305  19.675  0.00  0.00    +0.000 C 
ATOM     13  C   UNL     1      -2.561  11.657  19.327  0.00  0.00    +0.000 C 
ATOM     14  N   UNL     1      -1.465  11.489  20.237  0.00  0.00    +0.000 N 
ENDROOT
BRANCH  13  15
ATOM     15  C   UNL     1      -2.608  11.118  17.951  0.00  0.00    +0.000 A 
ATOM     16  C   UNL     1      -3.402  11.739  16.978  0.00  0.00    +0.000 A 
ATOM     17  C   UNL     1      -3.481  11.220  15.685  0.00  0.00    +0.000 A 
ATOM     18  C   UNL     1      -2.806  10.044  15.357  0.00  0.00    +0.000 A 
ATOM     19  C   UNL     1      -2.051   9.391  16.335  0.00  0.00    +0.000 A 
ATOM     20  C   UNL     1      -1.948   9.930  17.623  0.00  0.00    +0.000 A 
BRANCH  18  21
ATOM     21  O   UNL     1      -3.012   9.608  14.078  0.00  0.00    +0.000 OA
ATOM     22  C   UNL     1      -4.232   9.998  13.461  0.00  0.00    +0.000 C 
ENDBRANCH  18  21
ENDBRANCH  13  15
BRANCH  14  23
ATOM     23  C   UNL     1      -0.276  10.783  19.824  0.00  0.00    +0.000 A 
ATOM     24  C   UNL     1       0.614  11.387  18.932  0.00  0.00    +0.000 A 
ATOM     25  C   UNL     1       1.622  10.677  18.294  0.00  0.00    +0.000 A 
ATOM     26  C   UNL     1       1.883   9.353  18.633  0.00  0.00    +0.000 A 
ATOM     27  C   UNL     1       1.128   8.774  19.652  0.00  0.00    +0.000 A 
ATOM     28  C   UNL     1       0.036   9.470  20.216  0.00  0.00    +0.000 A 
BRANCH  26  29
ATOM     29  O   UNL     1       2.841   8.576  18.015  0.00  0.00    +0.000 OA
BRANCH  29  30
ATOM     30  C   UNL     1       2.534   7.172  18.091  0.00  0.00    +0.000 C 
BRANCH  30  31
ATOM     31  C   UNL     1       3.708   6.303  18.542  0.00  0.00    +0.000 C 
BRANCH  31  32
ATOM     32  N   UNL     1       4.683   6.086  17.442  0.00  0.00    +0.000 NA
ATOM     33  C   UNL     1       6.058   6.159  17.959  0.00  0.00    +0.000 C 
ATOM     34  C   UNL     1       7.092   6.011  16.840  0.00  0.00    +0.000 C 
ATOM     35  C   UNL     1       6.887   4.719  16.059  0.00  0.00    +0.000 C 
ATOM     36  C   UNL     1       5.448   4.632  15.570  0.00  0.00    +0.000 C 
ATOM     37  C   UNL     1       4.462   4.822  16.722  0.00  0.00    +0.000 C 
ENDBRANCH  31  32
ENDBRANCH  30  31
ENDBRANCH  29  30
ENDBRANCH  26  29
ENDBRANCH  14  23
TORSDOF 7
ENDMDL
MODEL 8
REMARK VINA RESULT:      -6.8      3.214      5.109
REMARK  Name = 
REMARK  8 active torsions:
REMARK  status: ('A' for Active; 'I' for Inactive)
REMARK    1  A    between atoms: C_13  and  C_14
REMARK    2  A    between atoms: C_17  and  O_18
REMARK    3  A    between atoms: O_18  and  C_19
REMARK    4  A    between atoms: N_22  and  C_23
REMARK    5  A    between atoms: C_26  and  O_27
REMARK    6  A    between atoms: O_27  and  C_28
REMARK    7  A    between atoms: C_28  and  C_29
REMARK    8  A    between atoms: C_29  and  N_30
REMARK                            x       y       z     vdW  Elec       q    Type
REMARK                         _______ _______ _______ _____ _____    ______ ____
ROOT
ATOM      1  C   UNL     1      -1.806  11.802  22.944  0.00  0.00    +0.000 C 
ATOM      2  C   UNL     1      -1.070  12.856  22.534  0.00  0.00    +0.000 C 
ATOM      3  C   UNL     1      -1.297  14.057  23.324  0.00  0.00    +0.000 A 
ATOM      4  N   UNL     1      -2.134  14.337  24.311  0.00  0.00    +0.000 NA
ATOM      5  C   UNL     1      -1.830  15.619  24.704  0.00  0.00    +0.000 A 
ATOM      6  C   UNL     1      -2.394  16.402  25.723  0.00  0.00    +0.000 A 
ATOM      7  C   UNL     1      -1.892  17.692  25.942  0.00  0.00    +0.000 A 
ATOM      8  C   UNL     1      -0.857  18.202  25.158  0.00  0.00    +0.000 A 
ATOM      9  C   UNL     1      -0.287  17.440  24.134  0.00  0.00    +0.000 A 
ATOM     10  C   UNL     1      -0.799  16.148  23.938  0.00  0.00    +0.000 A 
ATOM     11  N   UNL     1      -0.473  15.139  23.057  0.00  0.00    +0.000 N 
ATOM     12  C   UNL     1       0.496  15.153  22.075  0.00  0.00    +0.000 C 
ATOM     13  C   UNL     1       0.690  14.062  21.315  0.00  0.00    +0.000 C 
ATOM     14  N   UNL     1      -0.078  12.862  21.490  0.00  0.00    +0.000 N 
ENDROOT
BRANCH  13  15
ATOM     15  C   UNL     1       1.729  14.256  20.281  0.00  0.00    +0.000 A 
ATOM     16  C   UNL     1       3.068  13.949  20.562  0.00  0.00    +0.000 A 
ATOM     17  C   UNL     1       4.062  14.162  19.606  0.00  0.00    +0.000 A 
ATOM     18  C   UNL     1       3.742  14.728  18.372  0.00  0.00    +0.000 A 
ATOM     19  C   UNL     1       2.418  15.083  18.102  0.00  0.00    +0.000 A 
ATOM     20  C   UNL     1       1.416  14.841  19.051  0.00  0.00    +0.000 A 
BRANCH  18  21
ATOM     21  O   UNL     1       4.813  14.939  17.549  0.00  0.00    +0.000 OA
ATOM     22  C   UNL     1       6.088  14.562  18.052  0.00  0.00    +0.000 C 
ENDBRANCH  18  21
ENDBRANCH  13  15
BRANCH  14  23
ATOM     23  C   UNL     1       0.161  11.714  20.650  0.00  0.00    +0.000 A 
ATOM     24  C   UNL     1       0.824  10.601  21.171  0.00  0.00    +0.000 A 
ATOM     25  C   UNL     1       1.316   9.585  20.362  0.00  0.00    +0.000 A 
ATOM     26  C   UNL     1       1.037   9.562  18.999  0.00  0.00    +0.000 A 
ATOM     27  C   UNL     1       0.223  10.566  18.479  0.00  0.00    +0.000 A 
ATOM     28  C   UNL     1      -0.182  11.651  19.288  0.00  0.00    +0.000 A 
BRANCH  26  29
ATOM     29  O   UNL     1       1.525   8.607  18.131  0.00  0.00    +0.000 OA
BRANCH  29  30
ATOM     30  C   UNL     1       2.393   7.667  18.790  0.00  0.00    +0.000 C 
BRANCH  30  31
ATOM     31  C   UNL     1       3.165   6.758  17.833  0.00  0.00    +0.000 C 
BRANCH  31  32
ATOM     32  N   UNL     1       3.027   5.326  18.207  0.00  0.00    +0.000 NA
ATOM     33  C   UNL     1       1.696   4.829  17.830  0.00  0.00    +0.000 C 
ATOM     34  C   UNL     1       1.491   3.375  18.264  0.00  0.00    +0.000 C 
ATOM     35  C   UNL     1       2.577   2.467  17.700  0.00  0.00    +0.000 C 
ATOM     36  C   UNL     1       3.950   3.018  18.055  0.00  0.00    +0.000 C 
ATOM     37  C   UNL     1       4.084   4.481  17.631  0.00  0.00    +0.000 C 
ENDBRANCH  31  32
ENDBRANCH  30  31
ENDBRANCH  29  30
ENDBRANCH  26  29
ENDBRANCH  14  23
TORSDOF 7
ENDMDL
MODEL 9
REMARK VINA RESULT:      -6.7      2.967      4.879
REMARK  Name = 
REMARK  8 active torsions:
REMARK  status: ('A' for Active; 'I' for Inactive)
REMARK    1  A    between atoms: C_13  and  C_14
REMARK    2  A    between atoms: C_17  and  O_18
REMARK    3  A    between atoms: O_18  and  C_19
REMARK    4  A    between atoms: N_22  and  C_23
REMARK    5  A    between atoms: C_26  and  O_27
REMARK    6  A    between atoms: O_27  and  C_28
REMARK    7  A    between atoms: C_28  and  C_29
REMARK    8  A    between atoms: C_29  and  N_30
REMARK                            x       y       z     vdW  Elec       q    Type
REMARK                         _______ _______ _______ _____ _____    ______ ____
ROOT
ATOM      1  C   UNL     1      -2.692  11.914  23.054  0.00  0.00    +0.000 C 
ATOM      2  C   UNL     1      -1.953  12.971  22.656  0.00  0.00    +0.000 C 
ATOM      3  C   UNL     1      -2.364  14.223  23.273  0.00  0.00    +0.000 A 
ATOM      4  N   UNL     1      -3.362  14.539  24.084  0.00  0.00    +0.000 NA
ATOM      5  C   UNL     1      -3.189  15.870  24.385  0.00  0.00    +0.000 A 
ATOM      6  C   UNL     1      -3.947  16.707  25.217  0.00  0.00    +0.000 A 
ATOM      7  C   UNL     1      -3.553  18.042  25.377  0.00  0.00    +0.000 A 
ATOM      8  C   UNL     1      -2.432  18.542  24.714  0.00  0.00    +0.000 A 
ATOM      9  C   UNL     1      -1.667  17.726  23.876  0.00  0.00    +0.000 A 
ATOM     10  C   UNL     1      -2.076  16.391  23.737  0.00  0.00    +0.000 A 
ATOM     11  N   UNL     1      -1.563  15.327  23.027  0.00  0.00    +0.000 N 
ATOM     12  C   UNL     1      -0.451  15.312  22.210  0.00  0.00    +0.000 C 
ATOM     13  C   UNL     1      -0.083  14.169  21.606  0.00  0.00    +0.000 C 
ATOM     14  N   UNL     1      -0.808  12.944  21.784  0.00  0.00    +0.000 N 
ENDROOT
BRANCH  13  15
ATOM     15  C   UNL     1       1.098  14.333  20.731  0.00  0.00    +0.000 A 
ATOM     16  C   UNL     1       2.389  14.178  21.255  0.00  0.00    +0.000 A 
ATOM     17  C   UNL     1       3.511  14.365  20.447  0.00  0.00    +0.000 A 
ATOM     18  C   UNL     1       3.363  14.755  19.116  0.00  0.00    +0.000 A 
ATOM     19  C   UNL     1       2.081  14.959  18.600  0.00  0.00    +0.000 A 
ATOM     20  C   UNL     1       0.954  14.742  19.403  0.00  0.00    +0.000 A 
BRANCH  18  21
ATOM     21  O   UNL     1       4.539  14.962  18.451  0.00  0.00    +0.000 OA
ATOM     22  C   UNL     1       5.703  15.130  19.249  0.00  0.00    +0.000 C 
ENDBRANCH  18  21
ENDBRANCH  13  15
BRANCH  14  23
ATOM     23  C   UNL     1      -0.381  11.739  21.114  0.00  0.00    +0.000 A 
ATOM     24  C   UNL     1       0.458  10.840  21.775  0.00  0.00    +0.000 A 
ATOM     25  C   UNL     1       1.114   9.811  21.112  0.00  0.00    +0.000 A 
ATOM     26  C   UNL     1       0.844   9.542  19.773  0.00  0.00    +0.000 A 
ATOM     27  C   UNL     1      -0.127  10.310  19.132  0.00  0.00    +0.000 A 
ATOM     28  C   UNL     1      -0.707  11.421  19.784  0.00  0.00    +0.000 A 
BRANCH  26  29
ATOM     29  O   UNL     1       1.484   8.563  19.042  0.00  0.00    +0.000 OA
BRANCH  29  30
ATOM     30  C   UNL     1       2.054   7.544  19.882  0.00  0.00    +0.000 C 
BRANCH  30  31
ATOM     31  C   UNL     1       2.906   6.521  19.129  0.00  0.00    +0.000 C 
BRANCH  31  32
ATOM     32  N   UNL     1       3.098   5.279  19.921  0.00  0.00    +0.000 NA
ATOM     33  C   UNL     1       1.878   4.966  20.680  0.00  0.00    +0.000 C 
ATOM     34  C   UNL     1       2.063   3.730  21.564  0.00  0.00    +0.000 C 
ATOM     35  C   UNL     1       2.505   2.521  20.747  0.00  0.00    +0.000 C 
ATOM     36  C   UNL     1       3.739   2.872  19.929  0.00  0.00    +0.000 C 
ATOM     37  C   UNL     1       3.509   4.132  19.095  0.00  0.00    +0.000 C 
ENDBRANCH  31  32
ENDBRANCH  30  31
ENDBRANCH  29  30
ENDBRANCH  26  29
ENDBRANCH  14  23
TORSDOF 7
ENDMDL
