MODEL 1
REMARK VINA RESULT:      -8.8      0.000      0.000
REMARK  Name = 
REMARK  10 active torsions:
REMARK  status: ('A' for Active; 'I' for Inactive)
REMARK    1  A    between atoms: C_1  and  C_2
REMARK    2  A    between atoms: C_4  and  N_5
REMARK    3  A    between atoms: C_6  and  C_8
REMARK    4  A    between atoms: C_8  and  O_10
REMARK    5  A    between atoms: C_12  and  C_13
REMARK    6  A    between atoms: C_14  and  O_15
REMARK    7  A    between atoms: O_15  and  C_16
REMARK    8  A    between atoms: C_19  and  O_20
REMARK    9  A    between atoms: C_21  and  C_22
REMARK   10  A    between atoms: C_22  and  C_24
REMARK                            x       y       z     vdW  Elec       q    Type
REMARK                         _______ _______ _______ _____ _____    ______ ____
ROOT
ATOM      1  O   UNL     1       2.427   7.735  20.408  0.00  0.00    +0.000 OA
ENDROOT
BRANCH   1   9
ATOM      2  C   UNL     1      -0.053   8.916  21.859  0.00  0.00    +0.000 C 
ATOM      3  C   UNL     1       0.323   9.055  20.407  0.00  0.00    +0.000 A 
ATOM      4  C   UNL     1      -0.571   9.812  19.633  0.00  0.00    +0.000 A 
ATOM      5  C   UNL     1      -0.421   9.976  18.258  0.00  0.00    +0.000 A 
ATOM      6  C   UNL     1       0.678   9.385  17.635  0.00  0.00    +0.000 A 
ATOM      7  C   UNL     1       1.626   8.652  18.379  0.00  0.00    +0.000 A 
ATOM      8  C   UNL     1       2.799   8.027  17.667  0.00  0.00    +0.000 C 
ATOM      9  C   UNL     1       1.459   8.503  19.779  0.00  0.00    +0.000 A 
BRANCH   5  10
ATOM     10  N   UNL     1      -1.352  10.696  17.490  0.00  0.00    +0.000 N 
ATOM     11  C   UNL     1      -2.667  10.340  17.245  0.00  0.00    +0.000 C 
ATOM     12  O   UNL     1      -3.319   9.375  17.647  0.00  0.00    +0.000 OA
ATOM     13  H   UNL     1      -1.041  11.561  17.046  0.00  0.00    +0.000 HD
BRANCH  11  14
ATOM     14  C   UNL     1      -3.416  11.306  16.327  0.00  0.00    +0.000 C 
ATOM     15  O   UNL     1      -3.291  11.297  15.119  0.00  0.00    +0.000 OA
BRANCH  14  16
ATOM     16  O   UNL     1      -4.193  12.135  17.054  0.00  0.00    +0.000 OA
ATOM     17  H   UNL     1      -3.612  12.799  17.496  0.00  0.00    +0.000 HD
ENDBRANCH  14  16
ENDBRANCH  11  14
ENDBRANCH   5  10
ENDBRANCH   1   9
BRANCH   1  18
ATOM     18  C   UNL     1       2.328   6.365  20.367  0.00  0.00    +0.000 A 
ATOM     19  C   UNL     1       1.147   5.683  20.661  0.00  0.00    +0.000 A 
ATOM     20  C   UNL     1       1.047   4.324  20.364  0.00  0.00    +0.000 A 
ATOM     21  C   UNL     1       2.158   3.630  19.879  0.00  0.00    +0.000 A 
ATOM     22  C   UNL     1       3.390   4.282  19.720  0.00  0.00    +0.000 A 
ATOM     23  C   UNL     1       3.463   5.664  19.956  0.00  0.00    +0.000 A 
BRANCH  21  24
ATOM     24  O   UNL     1       2.023   2.305  19.579  0.00  0.00    +0.000 OA
ATOM     25  H   UNL     1       2.607   1.780  20.151  0.00  0.00    +0.000 HD
ENDBRANCH  21  24
BRANCH  22  26
ATOM     26  C   UNL     1       4.594   3.568  19.206  0.00  0.00    +0.000 C 
ATOM     27  O   UNL     1       5.046   2.599  19.808  0.00  0.00    +0.000 OA
BRANCH  26  28
ATOM     28  C   UNL     1       5.221   3.962  17.911  0.00  0.00    +0.000 A 
ATOM     29  C   UNL     1       6.536   4.450  17.928  0.00  0.00    +0.000 A 
ATOM     30  C   UNL     1       7.174   4.803  16.734  0.00  0.00    +0.000 A 
ATOM     31  C   UNL     1       6.494   4.675  15.525  0.00  0.00    +0.000 A 
ATOM     32 CL   UNL     1       7.278   5.100  14.053  0.00  0.00    +0.000 Cl
ATOM     33  C   UNL     1       5.180   4.209  15.499  0.00  0.00    +0.000 A 
ATOM     34  C   UNL     1       4.538   3.863  16.692  0.00  0.00    +0.000 A 
ENDBRANCH  26  28
ENDBRANCH  22  26
ENDBRANCH   1  18
TORSDOF 8
ENDMDL
MODEL 2
REMARK VINA RESULT:      -8.8      0.181      1.048
REMARK  Name = 
REMARK  10 active torsions:
REMARK  status: ('A' for Active; 'I' for Inactive)
REMARK    1  A    between atoms: C_1  and  C_2
REMARK    2  A    between atoms: C_4  and  N_5
REMARK    3  A    between atoms: C_6  and  C_8
REMARK    4  A    between atoms: C_8  and  O_10
REMARK    5  A    between atoms: C_12  and  C_13
REMARK    6  A    between atoms: C_14  and  O_15
REMARK    7  A    between atoms: O_15  and  C_16
REMARK    8  A    between atoms: C_19  and  O_20
REMARK    9  A    between atoms: C_21  and  C_22
REMARK   10  A    between atoms: C_22  and  C_24
REMARK                            x       y       z     vdW  Elec       q    Type
REMARK                         _______ _______ _______ _____ _____    ______ ____
ROOT
ATOM      1  O   UNL     1       2.443   7.794  20.325  0.00  0.00    +0.000 OA
ENDROOT
BRANCH   1   9
ATOM      2  C   UNL     1       0.041   8.932  21.935  0.00  0.00    +0.000 C 
ATOM      3  C   UNL     1       0.338   9.104  20.468  0.00  0.00    +0.000 A 
ATOM      4  C   UNL     1      -0.600   9.874  19.760  0.00  0.00    +0.000 A 
ATOM      5  C   UNL     1      -0.525  10.068  18.383  0.00  0.00    +0.000 A 
ATOM      6  C   UNL     1       0.540   9.496  17.688  0.00  0.00    +0.000 A 
ATOM      7  C   UNL     1       1.530   8.751  18.364  0.00  0.00    +0.000 A 
ATOM      8  C   UNL     1       2.664   8.147  17.575  0.00  0.00    +0.000 C 
ATOM      9  C   UNL     1       1.440   8.571  19.767  0.00  0.00    +0.000 A 
BRANCH   5  10
ATOM     10  N   UNL     1      -1.499  10.800  17.682  0.00  0.00    +0.000 N 
ATOM     11  C   UNL     1      -2.792  10.392  17.403  0.00  0.00    +0.000 C 
ATOM     12  O   UNL     1      -3.386   9.358  17.715  0.00  0.00    +0.000 OA
ATOM     13  H   UNL     1      -1.241  11.718  17.320  0.00  0.00    +0.000 HD
BRANCH  11  14
ATOM     14  C   UNL     1      -3.600  11.393  16.577  0.00  0.00    +0.000 C 
ATOM     15  O   UNL     1      -4.629  11.899  16.979  0.00  0.00    +0.000 OA
BRANCH  14  16
ATOM     16  O   UNL     1      -3.010  11.599  15.382  0.00  0.00    +0.000 OA
ATOM     17  H   UNL     1      -3.678  11.441  14.673  0.00  0.00    +0.000 HD
ENDBRANCH  14  16
ENDBRANCH  11  14
ENDBRANCH   5  10
ENDBRANCH   1   9
BRANCH   1  18
ATOM     18  C   UNL     1       2.328   6.425  20.293  0.00  0.00    +0.000 A 
ATOM     19  C   UNL     1       1.128   5.761  20.550  0.00  0.00    +0.000 A 
ATOM     20  C   UNL     1       1.022   4.400  20.262  0.00  0.00    +0.000 A 
ATOM     21  C   UNL     1       2.142   3.688  19.825  0.00  0.00    +0.000 A 
ATOM     22  C   UNL     1       3.387   4.323  19.706  0.00  0.00    +0.000 A 
ATOM     23  C   UNL     1       3.469   5.706  19.931  0.00  0.00    +0.000 A 
BRANCH  21  24
ATOM     24  O   UNL     1       2.001   2.362  19.533  0.00  0.00    +0.000 OA
ATOM     25  H   UNL     1       1.060   2.122  19.551  0.00  0.00    +0.000 HD
ENDBRANCH  21  24
BRANCH  22  26
ATOM     26  C   UNL     1       4.599   3.589  19.244  0.00  0.00    +0.000 C 
ATOM     27  O   UNL     1       5.011   2.614  19.866  0.00  0.00    +0.000 OA
BRANCH  26  28
ATOM     28  C   UNL     1       5.286   3.970  17.976  0.00  0.00    +0.000 A 
ATOM     29  C   UNL     1       4.585   3.832  16.768  0.00  0.00    +0.000 A 
ATOM     30  C   UNL     1       5.179   4.205  15.559  0.00  0.00    +0.000 A 
ATOM     31  C   UNL     1       6.478   4.711  15.556  0.00  0.00    +0.000 A 
ATOM     32 CL   UNL     1       7.209   5.180  14.071  0.00  0.00    +0.000 Cl
ATOM     33  C   UNL     1       7.191   4.836  16.748  0.00  0.00    +0.000 A 
ATOM     34  C   UNL     1       6.601   4.455  17.958  0.00  0.00    +0.000 A 
ENDBRANCH  26  28
ENDBRANCH  22  26
ENDBRANCH   1  18
TORSDOF 8
ENDMDL
MODEL 3
REMARK VINA RESULT:      -8.6      0.215      1.674
REMARK  Name = 
REMARK  10 active torsions:
REMARK  status: ('A' for Active; 'I' for Inactive)
REMARK    1  A    between atoms: C_1  and  C_2
REMARK    2  A    between atoms: C_4  and  N_5
REMARK    3  A    between atoms: C_6  and  C_8
REMARK    4  A    between atoms: C_8  and  O_10
REMARK    5  A    between atoms: C_12  and  C_13
REMARK    6  A    between atoms: C_14  and  O_15
REMARK    7  A    between atoms: O_15  and  C_16
REMARK    8  A    between atoms: C_19  and  O_20
REMARK    9  A    between atoms: C_21  and  C_22
REMARK   10  A    between atoms: C_22  and  C_24
REMARK                            x       y       z     vdW  Elec       q    Type
REMARK                         _______ _______ _______ _____ _____    ______ ____
ROOT
ATOM      1  O   UNL     1       2.366   7.692  20.381  0.00  0.00    +0.000 OA
ENDROOT
BRANCH   1   9
ATOM      2  C   UNL     1       2.612   8.015  17.300  0.00  0.00    +0.000 C 
ATOM      3  C   UNL     1       1.540   8.562  18.206  0.00  0.00    +0.000 A 
ATOM      4  C   UNL     1       0.541   9.308  17.558  0.00  0.00    +0.000 A 
ATOM      5  C   UNL     1      -0.481   9.953  18.250  0.00  0.00    +0.000 A 
ATOM      6  C   UNL     1      -0.526   9.827  19.638  0.00  0.00    +0.000 A 
ATOM      7  C   UNL     1       0.430   9.052  20.327  0.00  0.00    +0.000 A 
ATOM      8  C   UNL     1       0.348   8.944  21.829  0.00  0.00    +0.000 C 
ATOM      9  C   UNL     1       1.459   8.397  19.604  0.00  0.00    +0.000 A 
BRANCH   5  10
ATOM     10  N   UNL     1      -1.444  10.736  17.591  0.00  0.00    +0.000 N 
ATOM     11  C   UNL     1      -2.774  10.408  17.392  0.00  0.00    +0.000 C 
ATOM     12  O   UNL     1      -3.414   9.418  17.753  0.00  0.00    +0.000 OA
ATOM     13  H   UNL     1      -1.150  11.631  17.200  0.00  0.00    +0.000 HD
BRANCH  11  14
ATOM     14  C   UNL     1      -3.563  11.448  16.595  0.00  0.00    +0.000 C 
ATOM     15  O   UNL     1      -4.584  11.958  17.009  0.00  0.00    +0.000 OA
BRANCH  14  16
ATOM     16  O   UNL     1      -2.965  11.680  15.408  0.00  0.00    +0.000 OA
ATOM     17  H   UNL     1      -2.205  11.058  15.315  0.00  0.00    +0.000 HD
ENDBRANCH  14  16
ENDBRANCH  11  14
ENDBRANCH   5  10
ENDBRANCH   1   9
BRANCH   1  18
ATOM     18  C   UNL     1       2.333   6.318  20.371  0.00  0.00    +0.000 A 
ATOM     19  C   UNL     1       1.192   5.587  20.700  0.00  0.00    +0.000 A 
ATOM     20  C   UNL     1       1.153   4.219  20.434  0.00  0.00    +0.000 A 
ATOM     21  C   UNL     1       2.289   3.569  19.944  0.00  0.00    +0.000 A 
ATOM     22  C   UNL     1       3.484   4.276  19.750  0.00  0.00    +0.000 A 
ATOM     23  C   UNL     1       3.494   5.664  19.955  0.00  0.00    +0.000 A 
BRANCH  21  24
ATOM     24  O   UNL     1       2.214   2.232  19.675  0.00  0.00    +0.000 OA
ATOM     25  H   UNL     1       2.673   2.041  18.841  0.00  0.00    +0.000 HD
ENDBRANCH  21  24
BRANCH  22  26
ATOM     26  C   UNL     1       4.713   3.609  19.230  0.00  0.00    +0.000 C 
ATOM     27  O   UNL     1       5.216   2.671  19.840  0.00  0.00    +0.000 OA
BRANCH  26  28
ATOM     28  C   UNL     1       5.305   4.013  17.921  0.00  0.00    +0.000 A 
ATOM     29  C   UNL     1       6.610   4.530  17.910  0.00  0.00    +0.000 A 
ATOM     30  C   UNL     1       7.215   4.892  16.703  0.00  0.00    +0.000 A 
ATOM     31  C   UNL     1       6.514   4.744  15.507  0.00  0.00    +0.000 A 
ATOM     32 CL   UNL     1       7.258   5.181  14.019  0.00  0.00    +0.000 Cl
ATOM     33  C   UNL     1       5.210   4.249  15.509  0.00  0.00    +0.000 A 
ATOM     34  C   UNL     1       4.600   3.894  16.717  0.00  0.00    +0.000 A 
ENDBRANCH  26  28
ENDBRANCH  22  26
ENDBRANCH   1  18
TORSDOF 8
ENDMDL
MODEL 4
REMARK VINA RESULT:      -8.4      0.184      1.802
REMARK  Name = 
REMARK  10 active torsions:
REMARK  status: ('A' for Active; 'I' for Inactive)
REMARK    1  A    between atoms: C_1  and  C_2
REMARK    2  A    between atoms: C_4  and  N_5
REMARK    3  A    between atoms: C_6  and  C_8
REMARK    4  A    between atoms: C_8  and  O_10
REMARK    5  A    between atoms: C_12  and  C_13
REMARK    6  A    between atoms: C_14  and  O_15
REMARK    7  A    between atoms: O_15  and  C_16
REMARK    8  A    between atoms: C_19  and  O_20
REMARK    9  A    between atoms: C_21  and  C_22
REMARK   10  A    between atoms: C_22  and  C_24
REMARK                            x       y       z     vdW  Elec       q    Type
REMARK                         _______ _______ _______ _____ _____    ______ ____
ROOT
ATOM      1  O   UNL     1       2.315   7.604  20.424  0.00  0.00    +0.000 OA
ENDROOT
BRANCH   1   9
ATOM      2  C   UNL     1       2.707   7.999  17.367  0.00  0.00    +0.000 C 
ATOM      3  C   UNL     1       1.594   8.527  18.234  0.00  0.00    +0.000 A 
ATOM      4  C   UNL     1       0.628   9.291  17.559  0.00  0.00    +0.000 A 
ATOM      5  C   UNL     1      -0.426   9.921  18.216  0.00  0.00    +0.000 A 
ATOM      6  C   UNL     1      -0.536   9.763  19.598  0.00  0.00    +0.000 A 
ATOM      7  C   UNL     1       0.386   8.969  20.313  0.00  0.00    +0.000 A 
ATOM      8  C   UNL     1       0.233   8.826  21.805  0.00  0.00    +0.000 C 
ATOM      9  C   UNL     1       1.447   8.329  19.623  0.00  0.00    +0.000 A 
BRANCH   5  10
ATOM     10  N   UNL     1      -1.356  10.722  17.533  0.00  0.00    +0.000 N 
ATOM     11  C   UNL     1      -2.691  10.429  17.316  0.00  0.00    +0.000 C 
ATOM     12  O   UNL     1      -3.364   9.463  17.680  0.00  0.00    +0.000 OA
ATOM     13  H   UNL     1      -1.030  11.603  17.134  0.00  0.00    +0.000 HD
BRANCH  11  14
ATOM     14  C   UNL     1      -3.437  11.479  16.493  0.00  0.00    +0.000 C 
ATOM     15  O   UNL     1      -3.282  11.608  15.295  0.00  0.00    +0.000 OA
BRANCH  14  16
ATOM     16  O   UNL     1      -4.248  12.208  17.287  0.00  0.00    +0.000 OA
ATOM     17  H   UNL     1      -4.480  11.665  18.078  0.00  0.00    +0.000 HD
ENDBRANCH  14  16
ENDBRANCH  11  14
ENDBRANCH   5  10
ENDBRANCH   1   9
BRANCH   1  18
ATOM     18  C   UNL     1       2.270   6.231  20.392  0.00  0.00    +0.000 A 
ATOM     19  C   UNL     1       1.107   5.506  20.653  0.00  0.00    +0.000 A 
ATOM     20  C   UNL     1       1.069   4.142  20.365  0.00  0.00    +0.000 A 
ATOM     21  C   UNL     1       2.221   3.488  19.923  0.00  0.00    +0.000 A 
ATOM     22  C   UNL     1       3.432   4.186  19.799  0.00  0.00    +0.000 A 
ATOM     23  C   UNL     1       3.445   5.571  20.024  0.00  0.00    +0.000 A 
BRANCH  21  24
ATOM     24  O   UNL     1       2.147   2.157  19.631  0.00  0.00    +0.000 OA
ATOM     25  H   UNL     1       2.871   1.684  20.074  0.00  0.00    +0.000 HD
ENDBRANCH  21  24
BRANCH  22  26
ATOM     26  C   UNL     1       4.678   3.515  19.331  0.00  0.00    +0.000 C 
ATOM     27  O   UNL     1       5.147   2.568  19.956  0.00  0.00    +0.000 OA
BRANCH  26  28
ATOM     28  C   UNL     1       5.332   3.923  18.054  0.00  0.00    +0.000 A 
ATOM     29  C   UNL     1       4.622   3.754  16.855  0.00  0.00    +0.000 A 
ATOM     30  C   UNL     1       5.185   4.151  15.639  0.00  0.00    +0.000 A 
ATOM     31  C   UNL     1       6.462   4.710  15.618  0.00  0.00    +0.000 A 
ATOM     32 CL   UNL     1       7.154   5.207  14.124  0.00  0.00    +0.000 Cl
ATOM     33  C   UNL     1       7.184   4.865  16.801  0.00  0.00    +0.000 A 
ATOM     34  C   UNL     1       6.625   4.461  18.018  0.00  0.00    +0.000 A 
ENDBRANCH  26  28
ENDBRANCH  22  26
ENDBRANCH   1  18
TORSDOF 8
ENDMDL
MODEL 5
REMARK VINA RESULT:      -7.9      4.584     10.056
REMARK  Name = 
REMARK  10 active torsions:
REMARK  status: ('A' for Active; 'I' for Inactive)
REMARK    1  A    between atoms: C_1  and  C_2
REMARK    2  A    between atoms: C_4  and  N_5
REMARK    3  A    between atoms: C_6  and  C_8
REMARK    4  A    between atoms: C_8  and  O_10
REMARK    5  A    between atoms: C_12  and  C_13
REMARK    6  A    between atoms: C_14  and  O_15
REMARK    7  A    between atoms: O_15  and  C_16
REMARK    8  A    between atoms: C_19  and  O_20
REMARK    9  A    between atoms: C_21  and  C_22
REMARK   10  A    between atoms: C_22  and  C_24
REMARK                            x       y       z     vdW  Elec       q    Type
REMARK                         _______ _______ _______ _____ _____    ______ ____
ROOT
ATOM      1  O   UNL     1       0.346  10.775  19.509  0.00  0.00    +0.000 OA
ENDROOT
BRANCH   1   9
ATOM      2  C   UNL     1      -0.465   9.511  22.229  0.00  0.00    +0.000 C 
ATOM      3  C   UNL     1       0.405   8.915  21.153  0.00  0.00    +0.000 A 
ATOM      4  C   UNL     1       0.901   7.632  21.436  0.00  0.00    +0.000 A 
ATOM      5  C   UNL     1       1.783   6.964  20.590  0.00  0.00    +0.000 A 
ATOM      6  C   UNL     1       2.165   7.589  19.402  0.00  0.00    +0.000 A 
ATOM      7  C   UNL     1       1.658   8.859  19.055  0.00  0.00    +0.000 A 
ATOM      8  C   UNL     1       2.097   9.501  17.764  0.00  0.00    +0.000 C 
ATOM      9  C   UNL     1       0.755   9.518  19.927  0.00  0.00    +0.000 A 
BRANCH   5  10
ATOM     10  N   UNL     1       2.309   5.701  20.911  0.00  0.00    +0.000 N 
ATOM     11  C   UNL     1       1.700   4.478  20.693  0.00  0.00    +0.000 C 
ATOM     12  O   UNL     1       0.621   4.208  20.162  0.00  0.00    +0.000 OA
ATOM     13  H   UNL     1       3.222   5.663  21.365  0.00  0.00    +0.000 HD
BRANCH  11  14
ATOM     14  C   UNL     1       2.505   3.279  21.197  0.00  0.00    +0.000 C 
ATOM     15  O   UNL     1       2.417   2.860  22.334  0.00  0.00    +0.000 OA
BRANCH  14  16
ATOM     16  O   UNL     1       3.296   2.800  20.217  0.00  0.00    +0.000 OA
ATOM     17  H   UNL     1       3.618   3.560  19.676  0.00  0.00    +0.000 HD
ENDBRANCH  14  16
ENDBRANCH  11  14
ENDBRANCH   5  10
ENDBRANCH   1   9
BRANCH   1  18
ATOM     18  C   UNL     1      -0.911  10.929  18.974  0.00  0.00    +0.000 A 
ATOM     19  C   UNL     1      -1.358  10.199  17.873  0.00  0.00    +0.000 A 
ATOM     20  C   UNL     1      -2.712  10.224  17.537  0.00  0.00    +0.000 A 
ATOM     21  C   UNL     1      -3.589  11.061  18.232  0.00  0.00    +0.000 A 
ATOM     22  C   UNL     1      -3.114  11.906  19.245  0.00  0.00    +0.000 A 
ATOM     23  C   UNL     1      -1.765  11.824  19.622  0.00  0.00    +0.000 A 
BRANCH  21  24
ATOM     24  O   UNL     1      -4.912  11.048  17.892  0.00  0.00    +0.000 OA
ATOM     25  H   UNL     1      -5.046  10.470  17.123  0.00  0.00    +0.000 HD
ENDBRANCH  21  24
BRANCH  22  26
ATOM     26  C   UNL     1      -4.026  12.810  20.003  0.00  0.00    +0.000 C 
ATOM     27  O   UNL     1      -5.154  13.051  19.581  0.00  0.00    +0.000 OA
BRANCH  26  28
ATOM     28  C   UNL     1      -3.621  13.372  21.324  0.00  0.00    +0.000 A 
ATOM     29  C   UNL     1      -3.823  12.591  22.472  0.00  0.00    +0.000 A 
ATOM     30  C   UNL     1      -3.431  13.066  23.727  0.00  0.00    +0.000 A 
ATOM     31  C   UNL     1      -2.843  14.325  23.836  0.00  0.00    +0.000 A 
ATOM     32 CL   UNL     1      -2.351  14.909  25.377  0.00  0.00    +0.000 Cl
ATOM     33  C   UNL     1      -2.655  15.117  22.704  0.00  0.00    +0.000 A 
ATOM     34  C   UNL     1      -3.054  14.647  21.448  0.00  0.00    +0.000 A 
ENDBRANCH  26  28
ENDBRANCH  22  26
ENDBRANCH   1  18
TORSDOF 8
ENDMDL
MODEL 6
REMARK VINA RESULT:      -7.9      4.344      7.839
REMARK  Name = 
REMARK  10 active torsions:
REMARK  status: ('A' for Active; 'I' for Inactive)
REMARK    1  A    between atoms: C_1  and  C_2
REMARK    2  A    between atoms: C_4  and  N_5
REMARK    3  A    between atoms: C_6  and  C_8
REMARK    4  A    between atoms: C_8  and  O_10
REMARK    5  A    between atoms: C_12  and  C_13
REMARK    6  A    between atoms: C_14  and  O_15
REMARK    7  A    between atoms: O_15  and  C_16
REMARK    8  A    between atoms: C_19  and  O_20
REMARK    9  A    between atoms: C_21  and  C_22
REMARK   10  A    between atoms: C_22  and  C_24
REMARK                            x       y       z     vdW  Elec       q    Type
REMARK                         _______ _______ _______ _____ _____    ______ ____
ROOT
ATOM      1  O   UNL     1       6.383   4.283  18.213  0.00  0.00    +0.000 OA
ENDROOT
BRANCH   1   9
ATOM      2  C   UNL     1       5.477   5.979  15.773  0.00  0.00    +0.000 C 
ATOM      3  C   UNL     1       6.413   6.380  16.883  0.00  0.00    +0.000 A 
ATOM      4  C   UNL     1       6.929   7.682  16.781  0.00  0.00    +0.000 A 
ATOM      5  C   UNL     1       7.869   8.189  17.676  0.00  0.00    +0.000 A 
ATOM      6  C   UNL     1       8.291   7.377  18.728  0.00  0.00    +0.000 A 
ATOM      7  C   UNL     1       7.766   6.077  18.895  0.00  0.00    +0.000 A 
ATOM      8  C   UNL     1       8.250   5.230  20.044  0.00  0.00    +0.000 C 
ATOM      9  C   UNL     1       6.805   5.583  17.978  0.00  0.00    +0.000 A 
BRANCH   5  10
ATOM     10  N   UNL     1       8.412   9.477  17.532  0.00  0.00    +0.000 N 
ATOM     11  C   UNL     1       9.045  10.217  18.515  0.00  0.00    +0.000 C 
ATOM     12  O   UNL     1       9.305   9.930  19.686  0.00  0.00    +0.000 OA
ATOM     13  H   UNL     1       8.327   9.935  16.625  0.00  0.00    +0.000 HD
BRANCH  11  14
ATOM     14  C   UNL     1       9.487  11.610  18.065  0.00  0.00    +0.000 C 
ATOM     15  O   UNL     1       8.822  12.607  18.263  0.00  0.00    +0.000 OA
BRANCH  14  16
ATOM     16  O   UNL     1      10.676  11.542  17.432  0.00  0.00    +0.000 OA
ATOM     17  H   UNL     1      10.582  11.965  16.545  0.00  0.00    +0.000 HD
ENDBRANCH  14  16
ENDBRANCH  11  14
ENDBRANCH   5  10
ENDBRANCH   1   9
BRANCH   1  18
ATOM     18  C   UNL     1       5.037   4.019  18.298  0.00  0.00    +0.000 A 
ATOM     19  C   UNL     1       4.438   2.931  17.661  0.00  0.00    +0.000 A 
ATOM     20  C   UNL     1       3.127   2.583  17.985  0.00  0.00    +0.000 A 
ATOM     21  C   UNL     1       2.386   3.385  18.858  0.00  0.00    +0.000 A 
ATOM     22  C   UNL     1       2.938   4.561  19.386  0.00  0.00    +0.000 A 
ATOM     23  C   UNL     1       4.280   4.866  19.109  0.00  0.00    +0.000 A 
BRANCH  21  24
ATOM     24  O   UNL     1       1.112   3.007  19.171  0.00  0.00    +0.000 OA
ATOM     25  H   UNL     1       1.040   2.039  19.134  0.00  0.00    +0.000 HD
ENDBRANCH  21  24
BRANCH  22  26
ATOM     26  C   UNL     1       2.172   5.436  20.318  0.00  0.00    +0.000 C 
ATOM     27  O   UNL     1       1.825   5.019  21.419  0.00  0.00    +0.000 OA
BRANCH  26  28
ATOM     28  C   UNL     1       1.884   6.858  19.969  0.00  0.00    +0.000 A 
ATOM     29  C   UNL     1       2.202   7.306  18.678  0.00  0.00    +0.000 A 
ATOM     30  C   UNL     1       1.922   8.622  18.299  0.00  0.00    +0.000 A 
ATOM     31  C   UNL     1       1.331   9.493  19.212  0.00  0.00    +0.000 A 
ATOM     32 CL   UNL     1       0.977  11.111  18.746  0.00  0.00    +0.000 Cl
ATOM     33  C   UNL     1       1.028   9.064  20.504  0.00  0.00    +0.000 A 
ATOM     34  C   UNL     1       1.315   7.749  20.888  0.00  0.00    +0.000 A 
ENDBRANCH  26  28
ENDBRANCH  22  26
ENDBRANCH   1  18
TORSDOF 8
ENDMDL
MODEL 7
REMARK VINA RESULT:      -7.8      4.352      7.819
REMARK  Name = 
REMARK  10 active torsions:
REMARK  status: ('A' for Active; 'I' for Inactive)
REMARK    1  A    between atoms: C_1  and  C_2
REMARK    2  A    between atoms: C_4  and  N_5
REMARK    3  A    between atoms: C_6  and  C_8
REMARK    4  A    between atoms: C_8  and  O_10
REMARK    5  A    between atoms: C_12  and  C_13
REMARK    6  A    between atoms: C_14  and  O_15
REMARK    7  A    between atoms: O_15  and  C_16
REMARK    8  A    between atoms: C_19  and  O_20
REMARK    9  A    between atoms: C_21  and  C_22
REMARK   10  A    between atoms: C_22  and  C_24
REMARK                            x       y       z     vdW  Elec       q    Type
REMARK                         _______ _______ _______ _____ _____    ______ ____
ROOT
ATOM      1  O   UNL     1       6.414   4.345  18.315  0.00  0.00    +0.000 OA
ENDROOT
BRANCH   1   9
ATOM      2  C   UNL     1       5.543   6.022  15.849  0.00  0.00    +0.000 C 
ATOM      3  C   UNL     1       6.477   6.426  16.960  0.00  0.00    +0.000 A 
ATOM      4  C   UNL     1       7.009   7.720  16.847  0.00  0.00    +0.000 A 
ATOM      5  C   UNL     1       7.949   8.227  17.741  0.00  0.00    +0.000 A 
ATOM      6  C   UNL     1       8.354   7.423  18.806  0.00  0.00    +0.000 A 
ATOM      7  C   UNL     1       7.814   6.131  18.985  0.00  0.00    +0.000 A 
ATOM      8  C   UNL     1       8.280   5.292  20.147  0.00  0.00    +0.000 C 
ATOM      9  C   UNL     1       6.853   5.637  18.068  0.00  0.00    +0.000 A 
BRANCH   5  10
ATOM     10  N   UNL     1       8.508   9.507  17.585  0.00  0.00    +0.000 N 
ATOM     11  C   UNL     1       9.044  10.298  18.587  0.00  0.00    +0.000 C 
ATOM     12  O   UNL     1       9.186  10.072  19.790  0.00  0.00    +0.000 OA
ATOM     13  H   UNL     1       8.514   9.918  16.652  0.00  0.00    +0.000 HD
BRANCH  11  14
ATOM     14  C   UNL     1       9.533  11.666  18.111  0.00  0.00    +0.000 C 
ATOM     15  O   UNL     1      10.709  11.970  18.081  0.00  0.00    +0.000 OA
BRANCH  14  16
ATOM     16  O   UNL     1       8.487  12.440  17.759  0.00  0.00    +0.000 OA
ATOM     17  H   UNL     1       8.320  13.088  18.485  0.00  0.00    +0.000 HD
ENDBRANCH  14  16
ENDBRANCH  11  14
ENDBRANCH   5  10
ENDBRANCH   1   9
BRANCH   1  18
ATOM     18  C   UNL     1       5.064   4.092  18.365  0.00  0.00    +0.000 A 
ATOM     19  C   UNL     1       4.479   2.984  17.751  0.00  0.00    +0.000 A 
ATOM     20  C   UNL     1       3.156   2.657  18.043  0.00  0.00    +0.000 A 
ATOM     21  C   UNL     1       2.392   3.495  18.859  0.00  0.00    +0.000 A 
ATOM     22  C   UNL     1       2.934   4.688  19.359  0.00  0.00    +0.000 A 
ATOM     23  C   UNL     1       4.286   4.974  19.117  0.00  0.00    +0.000 A 
BRANCH  21  24
ATOM     24  O   UNL     1       1.105   3.137  19.143  0.00  0.00    +0.000 OA
ATOM     25  H   UNL     1       1.062   2.182  19.314  0.00  0.00    +0.000 HD
ENDBRANCH  21  24
BRANCH  22  26
ATOM     26  C   UNL     1       2.142   5.603  20.231  0.00  0.00    +0.000 C 
ATOM     27  O   UNL     1       1.764   5.233  21.338  0.00  0.00    +0.000 OA
BRANCH  26  28
ATOM     28  C   UNL     1       1.866   7.008  19.812  0.00  0.00    +0.000 A 
ATOM     29  C   UNL     1       1.322   7.892  20.757  0.00  0.00    +0.000 A 
ATOM     30  C   UNL     1       1.076   9.225  20.416  0.00  0.00    +0.000 A 
ATOM     31  C   UNL     1       1.367   9.674  19.130  0.00  0.00    +0.000 A 
ATOM     32 CL   UNL     1       1.074  11.316  18.710  0.00  0.00    +0.000 Cl
ATOM     33  C   UNL     1       1.891   8.800  18.178  0.00  0.00    +0.000 A 
ATOM     34  C   UNL     1       2.130   7.463  18.514  0.00  0.00    +0.000 A 
ENDBRANCH  26  28
ENDBRANCH  22  26
ENDBRANCH   1  18
TORSDOF 8
ENDMDL
MODEL 8
REMARK VINA RESULT:      -7.7      4.595     10.035
REMARK  Name = 
REMARK  10 active torsions:
REMARK  status: ('A' for Active; 'I' for Inactive)
REMARK    1  A    between atoms: C_1  and  C_2
REMARK    2  A    between atoms: C_4  and  N_5
REMARK    3  A    between atoms: C_6  and  C_8
REMARK    4  A    between atoms: C_8  and  O_10
REMARK    5  A    between atoms: C_12  and  C_13
REMARK    6  A    between atoms: C_14  and  O_15
REMARK    7  A    between atoms: O_15  and  C_16
REMARK    8  A    between atoms: C_19  and  O_20
REMARK    9  A    between atoms: C_21  and  C_22
REMARK   10  A    between atoms: C_22  and  C_24
REMARK                            x       y       z     vdW  Elec       q    Type
REMARK                         _______ _______ _______ _____ _____    ______ ____
ROOT
ATOM      1  O   UNL     1       0.419  10.813  19.484  0.00  0.00    +0.000 OA
ENDROOT
BRANCH   1   9
ATOM      2  C   UNL     1      -0.418   9.609  22.224  0.00  0.00    +0.000 C 
ATOM      3  C   UNL     1       0.429   8.973  21.152  0.00  0.00    +0.000 A 
ATOM      4  C   UNL     1       0.887   7.679  21.449  0.00  0.00    +0.000 A 
ATOM      5  C   UNL     1       1.746   6.975  20.609  0.00  0.00    +0.000 A 
ATOM      6  C   UNL     1       2.141   7.572  19.412  0.00  0.00    +0.000 A 
ATOM      7  C   UNL     1       1.671   8.853  19.050  0.00  0.00    +0.000 A 
ATOM      8  C   UNL     1       2.124   9.465  17.749  0.00  0.00    +0.000 C 
ATOM      9  C   UNL     1       0.791   9.550  19.917  0.00  0.00    +0.000 A 
BRANCH   5  10
ATOM     10  N   UNL     1       2.235   5.701  20.944  0.00  0.00    +0.000 N 
ATOM     11  C   UNL     1       1.978   4.519  20.272  0.00  0.00    +0.000 C 
ATOM     12  O   UNL     1       1.322   4.310  19.250  0.00  0.00    +0.000 OA
ATOM     13  H   UNL     1       2.826   5.616  21.771  0.00  0.00    +0.000 HD
BRANCH  11  14
ATOM     14  C   UNL     1       2.616   3.284  20.910  0.00  0.00    +0.000 C 
ATOM     15  O   UNL     1       3.311   2.507  20.287  0.00  0.00    +0.000 OA
BRANCH  14  16
ATOM     16  O   UNL     1       2.282   3.206  22.213  0.00  0.00    +0.000 OA
ATOM     17  H   UNL     1       3.052   3.506  22.752  0.00  0.00    +0.000 HD
ENDBRANCH  14  16
ENDBRANCH  11  14
ENDBRANCH   5  10
ENDBRANCH   1   9
BRANCH   1  18
ATOM     18  C   UNL     1      -0.839  11.000  18.963  0.00  0.00    +0.000 A 
ATOM     19  C   UNL     1      -1.302  10.313  17.841  0.00  0.00    +0.000 A 
ATOM     20  C   UNL     1      -2.657  10.366  17.514  0.00  0.00    +0.000 A 
ATOM     21  C   UNL     1      -3.520  11.190  18.242  0.00  0.00    +0.000 A 
ATOM     22  C   UNL     1      -3.028  11.995  19.279  0.00  0.00    +0.000 A 
ATOM     23  C   UNL     1      -1.678  11.884  19.645  0.00  0.00    +0.000 A 
BRANCH  21  24
ATOM     24  O   UNL     1      -4.844  11.205  17.910  0.00  0.00    +0.000 OA
ATOM     25  H   UNL     1      -5.178  10.295  17.858  0.00  0.00    +0.000 HD
ENDBRANCH  21  24
BRANCH  22  26
ATOM     26  C   UNL     1      -3.924  12.885  20.072  0.00  0.00    +0.000 C 
ATOM     27  O   UNL     1      -5.043  13.171  19.655  0.00  0.00    +0.000 OA
BRANCH  26  28
ATOM     28  C   UNL     1      -3.515  13.377  21.419  0.00  0.00    +0.000 A 
ATOM     29  C   UNL     1      -2.953  14.659  21.521  0.00  0.00    +0.000 A 
ATOM     30  C   UNL     1      -2.584  15.171  22.768  0.00  0.00    +0.000 A 
ATOM     31  C   UNL     1      -2.769  14.400  23.914  0.00  0.00    +0.000 A 
ATOM     32 CL   UNL     1      -2.323  15.031  25.451  0.00  0.00    +0.000 Cl
ATOM     33  C   UNL     1      -3.309  13.118  23.822  0.00  0.00    +0.000 A 
ATOM     34  C   UNL     1      -3.672  12.600  22.574  0.00  0.00    +0.000 A 
ENDBRANCH  26  28
ENDBRANCH  22  26
ENDBRANCH   1  18
TORSDOF 8
ENDMDL
MODEL 9
REMARK VINA RESULT:      -7.4      4.324      7.753
REMARK  Name = 
REMARK  10 active torsions:
REMARK  status: ('A' for Active; 'I' for Inactive)
REMARK    1  A    between atoms: C_1  and  C_2
REMARK    2  A    between atoms: C_4  and  N_5
REMARK    3  A    between atoms: C_6  and  C_8
REMARK    4  A    between atoms: C_8  and  O_10
REMARK    5  A    between atoms: C_12  and  C_13
REMARK    6  A    between atoms: C_14  and  O_15
REMARK    7  A    between atoms: O_15  and  C_16
REMARK    8  A    between atoms: C_19  and  O_20
REMARK    9  A    between atoms: C_21  and  C_22
REMARK   10  A    between atoms: C_22  and  C_24
REMARK                            x       y       z     vdW  Elec       q    Type
REMARK                         _______ _______ _______ _____ _____    ______ ____
ROOT
ATOM      1  O   UNL     1       6.426   4.275  17.922  0.00  0.00    +0.000 OA
ENDROOT
BRANCH   1   9
ATOM      2  C   UNL     1       8.197   5.396  20.216  0.00  0.00    +0.000 C 
ATOM      3  C   UNL     1       7.773   6.091  18.948  0.00  0.00    +0.000 A 
ATOM      4  C   UNL     1       8.246   7.406  18.808  0.00  0.00    +0.000 A 
ATOM      5  C   UNL     1       7.887   8.223  17.738  0.00  0.00    +0.000 A 
ATOM      6  C   UNL     1       7.047   7.700  16.756  0.00  0.00    +0.000 A 
ATOM      7  C   UNL     1       6.583   6.369  16.832  0.00  0.00    +0.000 A 
ATOM      8  C   UNL     1       5.674   5.842  15.751  0.00  0.00    +0.000 C 
ATOM      9  C   UNL     1       6.966   5.552  17.926  0.00  0.00    +0.000 A 
BRANCH   5  10
ATOM     10  N   UNL     1       8.329   9.553  17.638  0.00  0.00    +0.000 N 
ATOM     11  C   UNL     1       8.992  10.276  18.615  0.00  0.00    +0.000 C 
ATOM     12  O   UNL     1       9.368   9.937  19.739  0.00  0.00    +0.000 OA
ATOM     13  H   UNL     1       8.137  10.059  16.773  0.00  0.00    +0.000 HD
BRANCH  11  14
ATOM     14  C   UNL     1       9.299  11.721  18.224  0.00  0.00    +0.000 C 
ATOM     15  O   UNL     1      10.292  12.309  18.606  0.00  0.00    +0.000 OA
BRANCH  14  16
ATOM     16  O   UNL     1       8.324  12.211  17.433  0.00  0.00    +0.000 OA
ATOM     17  H   UNL     1       8.737  12.794  16.752  0.00  0.00    +0.000 HD
ENDBRANCH  14  16
ENDBRANCH  11  14
ENDBRANCH   5  10
ENDBRANCH   1   9
BRANCH   1  18
ATOM     18  C   UNL     1       5.063   4.122  18.004  0.00  0.00    +0.000 A 
ATOM     19  C   UNL     1       4.366   3.148  17.289  0.00  0.00    +0.000 A 
ATOM     20  C   UNL     1       3.032   2.889  17.601  0.00  0.00    +0.000 A 
ATOM     21  C   UNL     1       2.370   3.676  18.548  0.00  0.00    +0.000 A 
ATOM     22  C   UNL     1       3.027   4.751  19.163  0.00  0.00    +0.000 A 
ATOM     23  C   UNL     1       4.388   4.961  18.894  0.00  0.00    +0.000 A 
BRANCH  21  24
ATOM     24  O   UNL     1       1.070   3.385  18.846  0.00  0.00    +0.000 OA
ATOM     25  H   UNL     1       1.038   2.693  19.527  0.00  0.00    +0.000 HD
ENDBRANCH  21  24
BRANCH  22  26
ATOM     26  C   UNL     1       2.346   5.609  20.176  0.00  0.00    +0.000 C 
ATOM     27  O   UNL     1       2.141   5.187  21.310  0.00  0.00    +0.000 OA
BRANCH  26  28
ATOM     28  C   UNL     1       1.977   7.019  19.859  0.00  0.00    +0.000 A 
ATOM     29  C   UNL     1       2.218   7.497  18.562  0.00  0.00    +0.000 A 
ATOM     30  C   UNL     1       1.861   8.803  18.213  0.00  0.00    +0.000 A 
ATOM     31  C   UNL     1       1.269   9.634  19.162  0.00  0.00    +0.000 A 
ATOM     32 CL   UNL     1       0.820  11.239  18.734  0.00  0.00    +0.000 Cl
ATOM     33  C   UNL     1       1.043   9.175  20.460  0.00  0.00    +0.000 A 
ATOM     34  C   UNL     1       1.407   7.872  20.813  0.00  0.00    +0.000 A 
ENDBRANCH  26  28
ENDBRANCH  22  26
ENDBRANCH   1  18
TORSDOF 8
ENDMDL
