MODEL 1
REMARK VINA RESULT:      -6.4      0.000      0.000
REMARK  Name = 
REMARK  3 active torsions:
REMARK  status: ('A' for Active; 'I' for Inactive)
REMARK    1  A    between atoms: C_2  and  C_3
REMARK    2  A    between atoms: C_6  and  C_7
REMARK    3  A    between atoms: C_7  and  N_8
REMARK                            x       y       z     vdW  Elec       q    Type
REMARK                         _______ _______ _______ _____ _____    ______ ____
ROOT
ATOM      1  N   UNL     1       5.321   3.983  18.454  0.00  0.00    +0.000 N 
ATOM      2  C   UNL     1       4.105   3.772  17.850  0.00  0.00    +0.000 C 
ATOM      3  O   UNL     1       3.983   3.809  16.628  0.00  0.00    +0.000 OA
ATOM      4  N   UNL     1       3.039   3.538  18.696  0.00  0.00    +0.000 N 
ATOM      5  C   UNL     1       3.046   3.654  20.158  0.00  0.00    +0.000 C 
ATOM      6  C   UNL     1       2.070   2.656  20.794  0.00  0.00    +0.000 C 
ATOM      7  O   UNL     1       0.752   2.775  20.239  0.00  0.00    +0.000 OA
ATOM      8  C   UNL     1       0.780   2.540  18.823  0.00  0.00    +0.000 C 
ATOM      9  C   UNL     1       1.688   3.552  18.121  0.00  0.00    +0.000 C 
ATOM     10  H   UNL     1       5.486   3.466  19.300  0.00  0.00    +0.000 HD
ENDROOT
BRANCH   1  11
ATOM     11  C   UNL     1       6.480   4.184  17.613  0.00  0.00    +0.000 C 
BRANCH  11  15
ATOM     12  C   UNL     1       8.135   8.146  18.158  0.00  0.00    +0.000 A 
ATOM     13  C   UNL     1       7.358   7.852  17.037  0.00  0.00    +0.000 A 
ATOM     14  C   UNL     1       6.846   6.563  16.849  0.00  0.00    +0.000 A 
ATOM     15  C   UNL     1       7.097   5.549  17.787  0.00  0.00    +0.000 A 
ATOM     16  C   UNL     1       7.903   5.845  18.898  0.00  0.00    +0.000 A 
ATOM     17  C   UNL     1       8.413   7.136  19.086  0.00  0.00    +0.000 A 
BRANCH  12  19
ATOM     18  N   UNL     1       9.031  10.557  18.524  0.00  0.00    +0.000 NA
ATOM     19  C   UNL     1       8.634   9.476  18.362  0.00  0.00    +0.000 C 
ENDBRANCH  12  19
ENDBRANCH  11  15
ENDBRANCH   1  11
TORSDOF 3
ENDMDL
MODEL 2
REMARK VINA RESULT:      -6.4      1.246      1.993
REMARK  Name = 
REMARK  3 active torsions:
REMARK  status: ('A' for Active; 'I' for Inactive)
REMARK    1  A    between atoms: C_2  and  C_3
REMARK    2  A    between atoms: C_6  and  C_7
REMARK    3  A    between atoms: C_7  and  N_8
REMARK                            x       y       z     vdW  Elec       q    Type
REMARK                         _______ _______ _______ _____ _____    ______ ____
ROOT
ATOM      1  N   UNL     1       4.428   3.932  17.719  0.00  0.00    +0.000 N 
ATOM      2  C   UNL     1       4.431   3.404  18.987  0.00  0.00    +0.000 C 
ATOM      3  O   UNL     1       5.472   3.038  19.527  0.00  0.00    +0.000 OA
ATOM      4  N   UNL     1       3.198   3.295  19.601  0.00  0.00    +0.000 N 
ATOM      5  C   UNL     1       1.891   3.530  18.978  0.00  0.00    +0.000 C 
ATOM      6  C   UNL     1       0.882   4.067  20.002  0.00  0.00    +0.000 C 
ATOM      7  O   UNL     1       0.797   3.220  21.157  0.00  0.00    +0.000 OA
ATOM      8  C   UNL     1       2.078   3.113  21.798  0.00  0.00    +0.000 C 
ATOM      9  C   UNL     1       3.115   2.518  20.844  0.00  0.00    +0.000 C 
ATOM     10  H   UNL     1       3.740   4.643  17.541  0.00  0.00    +0.000 HD
ENDROOT
BRANCH   1  11
ATOM     11  C   UNL     1       5.698   4.115  17.050  0.00  0.00    +0.000 C 
BRANCH  11  15
ATOM     12  C   UNL     1       7.650   7.882  17.907  0.00  0.00    +0.000 A 
ATOM     13  C   UNL     1       8.087   6.704  18.516  0.00  0.00    +0.000 A 
ATOM     14  C   UNL     1       7.437   5.492  18.258  0.00  0.00    +0.000 A 
ATOM     15  C   UNL     1       6.344   5.438  17.377  0.00  0.00    +0.000 A 
ATOM     16  C   UNL     1       5.893   6.631  16.790  0.00  0.00    +0.000 A 
ATOM     17  C   UNL     1       6.546   7.844  17.049  0.00  0.00    +0.000 A 
BRANCH  12  19
ATOM     18  N   UNL     1       8.886  10.124  18.349  0.00  0.00    +0.000 NA
ATOM     19  C   UNL     1       8.337   9.119  18.152  0.00  0.00    +0.000 C 
ENDBRANCH  12  19
ENDBRANCH  11  15
ENDBRANCH   1  11
TORSDOF 3
ENDMDL
MODEL 3
REMARK VINA RESULT:      -6.4      4.569      6.036
REMARK  Name = 
REMARK  3 active torsions:
REMARK  status: ('A' for Active; 'I' for Inactive)
REMARK    1  A    between atoms: C_2  and  C_3
REMARK    2  A    between atoms: C_6  and  C_7
REMARK    3  A    between atoms: C_7  and  N_8
REMARK                            x       y       z     vdW  Elec       q    Type
REMARK                         _______ _______ _______ _____ _____    ______ ____
ROOT
ATOM      1  N   UNL     1       3.602   5.894  19.667  0.00  0.00    +0.000 N 
ATOM      2  C   UNL     1       3.849   5.205  18.505  0.00  0.00    +0.000 C 
ATOM      3  O   UNL     1       2.933   4.804  17.791  0.00  0.00    +0.000 OA
ATOM      4  N   UNL     1       5.178   4.980  18.204  0.00  0.00    +0.000 N 
ATOM      5  C   UNL     1       6.327   5.255  19.074  0.00  0.00    +0.000 C 
ATOM      6  C   UNL     1       7.566   5.624  18.249  0.00  0.00    +0.000 C 
ATOM      7  O   UNL     1       7.856   4.632  17.253  0.00  0.00    +0.000 OA
ATOM      8  C   UNL     1       6.744   4.480  16.357  0.00  0.00    +0.000 C 
ATOM      9  C   UNL     1       5.489   4.046  17.115  0.00  0.00    +0.000 C 
ATOM     10  H   UNL     1       4.274   6.601  19.911  0.00  0.00    +0.000 HD
ENDROOT
BRANCH   1  11
ATOM     11  C   UNL     1       2.228   6.200  20.004  0.00  0.00    +0.000 C 
BRANCH  11  15
ATOM     12  C   UNL     1       1.088  10.289  19.156  0.00  0.00    +0.000 A 
ATOM     13  C   UNL     1       1.721   9.514  18.183  0.00  0.00    +0.000 A 
ATOM     14  C   UNL     1       2.113   8.201  18.468  0.00  0.00    +0.000 A 
ATOM     15  C   UNL     1       1.868   7.639  19.731  0.00  0.00    +0.000 A 
ATOM     16  C   UNL     1       1.257   8.434  20.715  0.00  0.00    +0.000 A 
ATOM     17  C   UNL     1       0.864   9.748  20.427  0.00  0.00    +0.000 A 
BRANCH  12  19
ATOM     18  N   UNL     1       0.323  12.708  18.597  0.00  0.00    +0.000 NA
ATOM     19  C   UNL     1       0.663  11.625  18.851  0.00  0.00    +0.000 C 
ENDBRANCH  12  19
ENDBRANCH  11  15
ENDBRANCH   1  11
TORSDOF 3
ENDMDL
MODEL 4
REMARK VINA RESULT:      -6.3      0.241      1.157
REMARK  Name = 
REMARK  3 active torsions:
REMARK  status: ('A' for Active; 'I' for Inactive)
REMARK    1  A    between atoms: C_2  and  C_3
REMARK    2  A    between atoms: C_6  and  C_7
REMARK    3  A    between atoms: C_7  and  N_8
REMARK                            x       y       z     vdW  Elec       q    Type
REMARK                         _______ _______ _______ _____ _____    ______ ____
ROOT
ATOM      1  N   UNL     1       5.356   4.041  18.616  0.00  0.00    +0.000 N 
ATOM      2  C   UNL     1       4.203   3.790  17.912  0.00  0.00    +0.000 C 
ATOM      3  O   UNL     1       4.183   3.817  16.684  0.00  0.00    +0.000 OA
ATOM      4  N   UNL     1       3.077   3.527  18.667  0.00  0.00    +0.000 N 
ATOM      5  C   UNL     1       2.956   3.650  20.124  0.00  0.00    +0.000 C 
ATOM      6  C   UNL     1       1.961   2.624  20.682  0.00  0.00    +0.000 C 
ATOM      7  O   UNL     1       0.691   2.700  20.017  0.00  0.00    +0.000 OA
ATOM      8  C   UNL     1       0.847   2.460  18.610  0.00  0.00    +0.000 C 
ATOM      9  C   UNL     1       1.779   3.496  17.981  0.00  0.00    +0.000 C 
ATOM     10  H   UNL     1       5.464   3.533  19.476  0.00  0.00    +0.000 HD
ENDROOT
BRANCH   1  11
ATOM     11  C   UNL     1       6.575   4.274  17.873  0.00  0.00    +0.000 C 
BRANCH  11  15
ATOM     12  C   UNL     1       8.055   8.336  18.091  0.00  0.00    +0.000 A 
ATOM     13  C   UNL     1       8.483   7.377  19.010  0.00  0.00    +0.000 A 
ATOM     14  C   UNL     1       7.983   6.071  18.954  0.00  0.00    +0.000 A 
ATOM     15  C   UNL     1       7.052   5.702  17.970  0.00  0.00    +0.000 A 
ATOM     16  C   UNL     1       6.605   6.679  17.066  0.00  0.00    +0.000 A 
ATOM     17  C   UNL     1       7.108   7.986  17.122  0.00  0.00    +0.000 A 
BRANCH  12  19
ATOM     18  N   UNL     1       9.034  10.742  18.172  0.00  0.00    +0.000 NA
ATOM     19  C   UNL     1       8.592   9.667  18.134  0.00  0.00    +0.000 C 
ENDBRANCH  12  19
ENDBRANCH  11  15
ENDBRANCH   1  11
TORSDOF 3
ENDMDL
MODEL 5
REMARK VINA RESULT:      -6.3      2.896      4.324
REMARK  Name = 
REMARK  3 active torsions:
REMARK  status: ('A' for Active; 'I' for Inactive)
REMARK    1  A    between atoms: C_2  and  C_3
REMARK    2  A    between atoms: C_6  and  C_7
REMARK    3  A    between atoms: C_7  and  N_8
REMARK                            x       y       z     vdW  Elec       q    Type
REMARK                         _______ _______ _______ _____ _____    ______ ____
ROOT
ATOM      1  N   UNL     1       4.301   5.408  18.304  0.00  0.00    +0.000 N 
ATOM      2  C   UNL     1       4.438   4.360  19.181  0.00  0.00    +0.000 C 
ATOM      3  O   UNL     1       5.537   3.867  19.423  0.00  0.00    +0.000 OA
ATOM      4  N   UNL     1       3.272   3.892  19.754  0.00  0.00    +0.000 N 
ATOM      5  C   UNL     1       1.906   4.288  19.396  0.00  0.00    +0.000 C 
ATOM      6  C   UNL     1       0.976   4.221  20.615  0.00  0.00    +0.000 C 
ATOM      7  O   UNL     1       1.027   2.936  21.252  0.00  0.00    +0.000 OA
ATOM      8  C   UNL     1       2.365   2.644  21.686  0.00  0.00    +0.000 C 
ATOM      9  C   UNL     1       3.331   2.629  20.501  0.00  0.00    +0.000 C 
ATOM     10  H   UNL     1       3.574   6.068  18.518  0.00  0.00    +0.000 HD
ENDROOT
BRANCH   1  11
ATOM     11  C   UNL     1       5.496   5.970  17.713  0.00  0.00    +0.000 C 
BRANCH  11  15
ATOM     12  C   UNL     1       6.452   4.230  13.866  0.00  0.00    +0.000 A 
ATOM     13  C   UNL     1       5.188   4.052  14.430  0.00  0.00    +0.000 A 
ATOM     14  C   UNL     1       4.890   4.592  15.686  0.00  0.00    +0.000 A 
ATOM     15  C   UNL     1       5.851   5.330  16.394  0.00  0.00    +0.000 A 
ATOM     16  C   UNL     1       7.130   5.482  15.835  0.00  0.00    +0.000 A 
ATOM     17  C   UNL     1       7.426   4.941  14.576  0.00  0.00    +0.000 A 
BRANCH  12  19
ATOM     18  N   UNL     1       6.974   3.265  11.512  0.00  0.00    +0.000 NA
ATOM     19  C   UNL     1       6.745   3.698  12.566  0.00  0.00    +0.000 C 
ENDBRANCH  12  19
ENDBRANCH  11  15
ENDBRANCH   1  11
TORSDOF 3
ENDMDL
MODEL 6
REMARK VINA RESULT:      -6.3      5.274      6.063
REMARK  Name = 
REMARK  3 active torsions:
REMARK  status: ('A' for Active; 'I' for Inactive)
REMARK    1  A    between atoms: C_2  and  C_3
REMARK    2  A    between atoms: C_6  and  C_7
REMARK    3  A    between atoms: C_7  and  N_8
REMARK                            x       y       z     vdW  Elec       q    Type
REMARK                         _______ _______ _______ _____ _____    ______ ____
ROOT
ATOM      1  N   UNL     1       1.833   8.022  19.386  0.00  0.00    +0.000 N 
ATOM      2  C   UNL     1       1.297   9.284  19.466  0.00  0.00    +0.000 C 
ATOM      3  O   UNL     1       1.168   9.990  18.468  0.00  0.00    +0.000 OA
ATOM      4  N   UNL     1       0.933   9.710  20.728  0.00  0.00    +0.000 N 
ATOM      5  C   UNL     1       1.212   9.023  21.993  0.00  0.00    +0.000 C 
ATOM      6  C   UNL     1       0.104   9.289  23.021  0.00  0.00    +0.000 C 
ATOM      7  O   UNL     1      -0.129  10.694  23.198  0.00  0.00    +0.000 OA
ATOM      8  C   UNL     1      -0.510  11.301  21.954  0.00  0.00    +0.000 C 
ATOM      9  C   UNL     1       0.588  11.127  20.904  0.00  0.00    +0.000 C 
ATOM     10  H   UNL     1       1.463   7.346  20.031  0.00  0.00    +0.000 HD
ENDROOT
BRANCH   1  11
ATOM     11  C   UNL     1       2.185   7.507  18.080  0.00  0.00    +0.000 C 
BRANCH  11  15
ATOM     12  C   UNL     1       6.016   5.496  17.975  0.00  0.00    +0.000 A 
ATOM     13  C   UNL     1       5.105   5.230  18.999  0.00  0.00    +0.000 A 
ATOM     14  C   UNL     1       3.879   5.902  19.046  0.00  0.00    +0.000 A 
ATOM     15  C   UNL     1       3.540   6.844  18.062  0.00  0.00    +0.000 A 
ATOM     16  C   UNL     1       4.472   7.126  17.051  0.00  0.00    +0.000 A 
ATOM     17  C   UNL     1       5.700   6.452  17.004  0.00  0.00    +0.000 A 
BRANCH  12  19
ATOM     18  N   UNL     1       8.267   4.203  17.860  0.00  0.00    +0.000 NA
ATOM     19  C   UNL     1       7.262   4.784  17.915  0.00  0.00    +0.000 C 
ENDBRANCH  12  19
ENDBRANCH  11  15
ENDBRANCH   1  11
TORSDOF 3
ENDMDL
MODEL 7
REMARK VINA RESULT:      -6.3      4.517      6.048
REMARK  Name = 
REMARK  3 active torsions:
REMARK  status: ('A' for Active; 'I' for Inactive)
REMARK    1  A    between atoms: C_2  and  C_3
REMARK    2  A    between atoms: C_6  and  C_7
REMARK    3  A    between atoms: C_7  and  N_8
REMARK                            x       y       z     vdW  Elec       q    Type
REMARK                         _______ _______ _______ _____ _____    ______ ____
ROOT
ATOM      1  N   UNL     1       3.623   5.925  19.687  0.00  0.00    +0.000 N 
ATOM      2  C   UNL     1       3.860   5.213  18.536  0.00  0.00    +0.000 C 
ATOM      3  O   UNL     1       2.938   4.783  17.848  0.00  0.00    +0.000 OA
ATOM      4  N   UNL     1       5.187   5.000  18.217  0.00  0.00    +0.000 N 
ATOM      5  C   UNL     1       6.346   5.310  19.061  0.00  0.00    +0.000 C 
ATOM      6  C   UNL     1       7.567   5.678  18.206  0.00  0.00    +0.000 C 
ATOM      7  O   UNL     1       7.853   4.667  17.228  0.00  0.00    +0.000 OA
ATOM      8  C   UNL     1       6.728   4.480  16.355  0.00  0.00    +0.000 C 
ATOM      9  C   UNL     1       5.493   4.045  17.144  0.00  0.00    +0.000 C 
ATOM     10  H   UNL     1       4.289   6.646  19.902  0.00  0.00    +0.000 HD
ENDROOT
BRANCH   1  11
ATOM     11  C   UNL     1       2.252   6.219  20.041  0.00  0.00    +0.000 C 
BRANCH  11  15
ATOM     12  C   UNL     1       1.205  10.313  19.100  0.00  0.00    +0.000 A 
ATOM     13  C   UNL     1       0.918   9.780  20.357  0.00  0.00    +0.000 A 
ATOM     14  C   UNL     1       1.232   8.448  20.650  0.00  0.00    +0.000 A 
ATOM     15  C   UNL     1       1.850   7.631  19.691  0.00  0.00    +0.000 A 
ATOM     16  C   UNL     1       2.110   8.165  18.418  0.00  0.00    +0.000 A 
ATOM     17  C   UNL     1       1.796   9.499  18.127  0.00  0.00    +0.000 A 
BRANCH  12  19
ATOM     18  N   UNL     1       0.655  12.798  18.581  0.00  0.00    +0.000 NA
ATOM     19  C   UNL     1       0.906  11.687  18.812  0.00  0.00    +0.000 C 
ENDBRANCH  12  19
ENDBRANCH  11  15
ENDBRANCH   1  11
TORSDOF 3
ENDMDL
MODEL 8
REMARK VINA RESULT:      -6.2      1.214      1.606
REMARK  Name = 
REMARK  3 active torsions:
REMARK  status: ('A' for Active; 'I' for Inactive)
REMARK    1  A    between atoms: C_2  and  C_3
REMARK    2  A    between atoms: C_6  and  C_7
REMARK    3  A    between atoms: C_7  and  N_8
REMARK                            x       y       z     vdW  Elec       q    Type
REMARK                         _______ _______ _______ _____ _____    ______ ____
ROOT
ATOM      1  N   UNL     1       4.513   4.120  17.690  0.00  0.00    +0.000 N 
ATOM      2  C   UNL     1       4.447   3.489  18.908  0.00  0.00    +0.000 C 
ATOM      3  O   UNL     1       5.434   2.951  19.405  0.00  0.00    +0.000 OA
ATOM      4  N   UNL     1       3.210   3.484  19.523  0.00  0.00    +0.000 N 
ATOM      5  C   UNL     1       1.944   3.933  18.935  0.00  0.00    +0.000 C 
ATOM      6  C   UNL     1       1.010   4.504  20.010  0.00  0.00    +0.000 C 
ATOM      7  O   UNL     1       0.816   3.580  21.090  0.00  0.00    +0.000 OA
ATOM      8  C   UNL     1       2.073   3.259  21.707  0.00  0.00    +0.000 C 
ATOM      9  C   UNL     1       3.028   2.621  20.697  0.00  0.00    +0.000 C 
ATOM     10  H   UNL     1       3.920   4.923  17.579  0.00  0.00    +0.000 HD
ENDROOT
BRANCH   1  11
ATOM     11  C   UNL     1       5.796   4.198  17.026  0.00  0.00    +0.000 C 
BRANCH  11  15
ATOM     12  C   UNL     1       7.857   7.861  18.061  0.00  0.00    +0.000 A 
ATOM     13  C   UNL     1       6.905   7.849  17.041  0.00  0.00    +0.000 A 
ATOM     14  C   UNL     1       6.260   6.658  16.690  0.00  0.00    +0.000 A 
ATOM     15  C   UNL     1       6.551   5.460  17.363  0.00  0.00    +0.000 A 
ATOM     16  C   UNL     1       7.529   5.475  18.369  0.00  0.00    +0.000 A 
ATOM     17  C   UNL     1       8.173   6.669  18.720  0.00  0.00    +0.000 A 
BRANCH  12  19
ATOM     18  N   UNL     1       9.007  10.087  18.748  0.00  0.00    +0.000 NA
ATOM     19  C   UNL     1       8.495   9.090  18.437  0.00  0.00    +0.000 C 
ENDBRANCH  12  19
ENDBRANCH  11  15
ENDBRANCH   1  11
TORSDOF 3
ENDMDL
MODEL 9
REMARK VINA RESULT:      -6.2      2.974      4.493
REMARK  Name = 
REMARK  3 active torsions:
REMARK  status: ('A' for Active; 'I' for Inactive)
REMARK    1  A    between atoms: C_2  and  C_3
REMARK    2  A    between atoms: C_6  and  C_7
REMARK    3  A    between atoms: C_7  and  N_8
REMARK                            x       y       z     vdW  Elec       q    Type
REMARK                         _______ _______ _______ _____ _____    ______ ____
ROOT
ATOM      1  N   UNL     1       4.248   5.322  18.112  0.00  0.00    +0.000 N 
ATOM      2  C   UNL     1       4.404   4.356  19.076  0.00  0.00    +0.000 C 
ATOM      3  O   UNL     1       5.515   3.941  19.394  0.00  0.00    +0.000 OA
ATOM      4  N   UNL     1       3.241   3.873  19.644  0.00  0.00    +0.000 N 
ATOM      5  C   UNL     1       1.871   4.167  19.208  0.00  0.00    +0.000 C 
ATOM      6  C   UNL     1       0.900   4.149  20.396  0.00  0.00    +0.000 C 
ATOM      7  O   UNL     1       0.990   2.922  21.136  0.00  0.00    +0.000 OA
ATOM      8  C   UNL     1       2.323   2.735  21.638  0.00  0.00    +0.000 C 
ATOM      9  C   UNL     1       3.333   2.678  20.492  0.00  0.00    +0.000 C 
ATOM     10  H   UNL     1       3.482   5.958  18.248  0.00  0.00    +0.000 HD
ENDROOT
BRANCH   1  11
ATOM     11  C   UNL     1       5.436   5.898  17.520  0.00  0.00    +0.000 C 
BRANCH  11  15
ATOM     12  C   UNL     1       6.394   4.128  13.687  0.00  0.00    +0.000 A 
ATOM     13  C   UNL     1       7.372   4.803  14.420  0.00  0.00    +0.000 A 
ATOM     14  C   UNL     1       7.054   5.397  15.646  0.00  0.00    +0.000 A 
ATOM     15  C   UNL     1       5.751   5.318  16.164  0.00  0.00    +0.000 A 
ATOM     16  C   UNL     1       4.765   4.662  15.408  0.00  0.00    +0.000 A 
ATOM     17  C   UNL     1       5.087   4.066  14.182  0.00  0.00    +0.000 A 
BRANCH  12  19
ATOM     18  N   UNL     1       7.008   2.991  11.434  0.00  0.00    +0.000 NA
ATOM     19  C   UNL     1       6.731   3.496  12.444  0.00  0.00    +0.000 C 
ENDBRANCH  12  19
ENDBRANCH  11  15
ENDBRANCH   1  11
TORSDOF 3
ENDMDL
