MODEL 1
REMARK VINA RESULT:      -7.2      0.000      0.000
REMARK  Name = 
REMARK  5 active torsions:
REMARK  status: ('A' for Active; 'I' for Inactive)
REMARK    1  A    between atoms: C_1  and  C_2
REMARK    2  A    between atoms: C_2  and  C_3
REMARK    3  A    between atoms: C_3  and  C_4
REMARK    4  A    between atoms: N_8  and  C_9
REMARK    5  A    between atoms: C_13  and  C_14
REMARK                            x       y       z     vdW  Elec       q    Type
REMARK                         _______ _______ _______ _____ _____    ______ ____
ROOT
ATOM      1  C   UNL     1       4.393   4.546  17.476  0.00  0.00    +0.000 A 
ATOM      2  C   UNL     1       3.853   3.329  17.947  0.00  0.00    +0.000 A 
ATOM      3 CL   UNL     1       4.369   1.755  17.432  0.00  0.00    +0.000 Cl
ATOM      4  C   UNL     1       2.884   3.319  18.965  0.00  0.00    +0.000 A 
ATOM      5  C   UNL     1       2.450   4.506  19.561  0.00  0.00    +0.000 A 
ATOM      6  C   UNL     1       2.983   5.711  19.096  0.00  0.00    +0.000 A 
ATOM      7  C   UNL     1       3.902   5.739  18.033  0.00  0.00    +0.000 A 
ATOM      8 CL   UNL     1       4.143   7.313  17.356  0.00  0.00    +0.000 Cl
ENDROOT
BRANCH   1  13
ATOM      9  C   UNL     1       6.766   4.618  16.483  0.00  0.00    +0.000 A 
ATOM     10  C   UNL     1       7.133   4.613  15.154  0.00  0.00    +0.000 A 
ATOM     11  N   UNL     1       6.040   4.514  14.359  0.00  0.00    +0.000 NA
ATOM     12  N   UNL     1       4.978   4.460  15.143  0.00  0.00    +0.000 NA
ATOM     13  N   UNL     1       5.370   4.544  16.440  0.00  0.00    +0.000 N 
BRANCH   9  14
ATOM     14  C   UNL     1       7.614   4.665  17.711  0.00  0.00    +0.000 C 
BRANCH  14  16
ATOM     15  C   UNL     1       7.636   7.156  17.560  0.00  0.00    +0.000 C 
ATOM     16  C   UNL     1       7.526   5.966  18.504  0.00  0.00    +0.000 C 
ENDBRANCH  14  16
ENDBRANCH   9  14
ENDBRANCH   1  13
BRANCH   5  17
ATOM     17  C   UNL     1       1.414   4.516  20.658  0.00  0.00    +0.000 C 
ATOM     18  F   UNL     1       1.867   4.019  21.841  0.00  0.00    +0.000 F 
ATOM     19  F   UNL     1       0.957   5.768  20.923  0.00  0.00    +0.000 F 
ATOM     20  F   UNL     1       0.318   3.776  20.333  0.00  0.00    +0.000 F 
ENDBRANCH   5  17
TORSDOF 4
ENDMDL
MODEL 2
REMARK VINA RESULT:      -7.0      0.420      1.038
REMARK  Name = 
REMARK  5 active torsions:
REMARK  status: ('A' for Active; 'I' for Inactive)
REMARK    1  A    between atoms: C_1  and  C_2
REMARK    2  A    between atoms: C_2  and  C_3
REMARK    3  A    between atoms: C_3  and  C_4
REMARK    4  A    between atoms: N_8  and  C_9
REMARK    5  A    between atoms: C_13  and  C_14
REMARK                            x       y       z     vdW  Elec       q    Type
REMARK                         _______ _______ _______ _____ _____    ______ ____
ROOT
ATOM      1  C   UNL     1       4.375   4.579  17.339  0.00  0.00    +0.000 A 
ATOM      2  C   UNL     1       3.781   3.414  17.876  0.00  0.00    +0.000 A 
ATOM      3 CL   UNL     1       4.170   1.795  17.391  0.00  0.00    +0.000 Cl
ATOM      4  C   UNL     1       2.864   3.501  18.938  0.00  0.00    +0.000 A 
ATOM      5  C   UNL     1       2.536   4.731  19.512  0.00  0.00    +0.000 A 
ATOM      6  C   UNL     1       3.123   5.884  18.981  0.00  0.00    +0.000 A 
ATOM      7  C   UNL     1       3.989   5.818  17.877  0.00  0.00    +0.000 A 
ATOM      8 CL   UNL     1       4.297   7.351  17.136  0.00  0.00    +0.000 Cl
ENDROOT
BRANCH   1  13
ATOM      9  C   UNL     1       6.696   4.491  16.232  0.00  0.00    +0.000 A 
ATOM     10  C   UNL     1       6.997   4.404  14.890  0.00  0.00    +0.000 A 
ATOM     11  N   UNL     1       5.862   4.316  14.153  0.00  0.00    +0.000 NA
ATOM     12  N   UNL     1       4.839   4.350  14.989  0.00  0.00    +0.000 NA
ATOM     13  N   UNL     1       5.298   4.480  16.260  0.00  0.00    +0.000 N 
BRANCH   9  14
ATOM     14  C   UNL     1       7.605   4.559  17.415  0.00  0.00    +0.000 C 
BRANCH  14  16
ATOM     15  C   UNL     1       7.386   5.731  19.608  0.00  0.00    +0.000 C 
ATOM     16  C   UNL     1       7.647   5.913  18.117  0.00  0.00    +0.000 C 
ENDBRANCH  14  16
ENDBRANCH   9  14
ENDBRANCH   1  13
BRANCH   5  17
ATOM     17  C   UNL     1       1.558   4.843  20.654  0.00  0.00    +0.000 C 
ATOM     18  F   UNL     1       1.222   6.126  20.962  0.00  0.00    +0.000 F 
ATOM     19  F   UNL     1       0.389   4.198  20.397  0.00  0.00    +0.000 F 
ATOM     20  F   UNL     1       2.045   4.295  21.802  0.00  0.00    +0.000 F 
ENDBRANCH   5  17
TORSDOF 4
ENDMDL
MODEL 3
REMARK VINA RESULT:      -7.0      0.142      2.236
REMARK  Name = 
REMARK  5 active torsions:
REMARK  status: ('A' for Active; 'I' for Inactive)
REMARK    1  A    between atoms: C_1  and  C_2
REMARK    2  A    between atoms: C_2  and  C_3
REMARK    3  A    between atoms: C_3  and  C_4
REMARK    4  A    between atoms: N_8  and  C_9
REMARK    5  A    between atoms: C_13  and  C_14
REMARK                            x       y       z     vdW  Elec       q    Type
REMARK                         _______ _______ _______ _____ _____    ______ ____
ROOT
ATOM      1  C   UNL     1       4.306   4.486  17.417  0.00  0.00    +0.000 A 
ATOM      2  C   UNL     1       3.833   5.700  17.964  0.00  0.00    +0.000 A 
ATOM      3 CL   UNL     1       4.280   7.278  17.399  0.00  0.00    +0.000 Cl
ATOM      4  C   UNL     1       2.867   5.699  18.985  0.00  0.00    +0.000 A 
ATOM      5  C   UNL     1       2.324   4.505  19.466  0.00  0.00    +0.000 A 
ATOM      6  C   UNL     1       2.792   3.304  18.926  0.00  0.00    +0.000 A 
ATOM      7  C   UNL     1       3.806   3.288  17.954  0.00  0.00    +0.000 A 
ATOM      8 CL   UNL     1       4.509   1.727  17.700  0.00  0.00    +0.000 Cl
ENDROOT
BRANCH   1  13
ATOM      9  C   UNL     1       6.683   4.589  16.438  0.00  0.00    +0.000 A 
ATOM     10  C   UNL     1       7.058   4.592  15.112  0.00  0.00    +0.000 A 
ATOM     11  N   UNL     1       5.971   4.481  14.310  0.00  0.00    +0.000 NA
ATOM     12  N   UNL     1       4.905   4.413  15.087  0.00  0.00    +0.000 NA
ATOM     13  N   UNL     1       5.289   4.499  16.387  0.00  0.00    +0.000 N 
BRANCH   9  14
ATOM     14  C   UNL     1       7.523   4.643  17.671  0.00  0.00    +0.000 C 
BRANCH  14  16
ATOM     15  C   UNL     1       7.658   7.124  17.438  0.00  0.00    +0.000 C 
ATOM     16  C   UNL     1       7.483   5.972  18.420  0.00  0.00    +0.000 C 
ENDBRANCH  14  16
ENDBRANCH   9  14
ENDBRANCH   1  13
BRANCH   5  17
ATOM     17  C   UNL     1       1.284   4.484  20.558  0.00  0.00    +0.000 C 
ATOM     18  F   UNL     1       0.158   3.797  20.226  0.00  0.00    +0.000 F 
ATOM     19  F   UNL     1       1.750   3.917  21.703  0.00  0.00    +0.000 F 
ATOM     20  F   UNL     1       0.875   5.737  20.900  0.00  0.00    +0.000 F 
ENDBRANCH   5  17
TORSDOF 4
ENDMDL
MODEL 4
REMARK VINA RESULT:      -6.9      0.428      2.151
REMARK  Name = 
REMARK  5 active torsions:
REMARK  status: ('A' for Active; 'I' for Inactive)
REMARK    1  A    between atoms: C_1  and  C_2
REMARK    2  A    between atoms: C_2  and  C_3
REMARK    3  A    between atoms: C_3  and  C_4
REMARK    4  A    between atoms: N_8  and  C_9
REMARK    5  A    between atoms: C_13  and  C_14
REMARK                            x       y       z     vdW  Elec       q    Type
REMARK                         _______ _______ _______ _____ _____    ______ ____
ROOT
ATOM      1  C   UNL     1       4.312   4.520  17.294  0.00  0.00    +0.000 A 
ATOM      2  C   UNL     1       3.975   5.766  17.870  0.00  0.00    +0.000 A 
ATOM      3 CL   UNL     1       4.529   7.303  17.288  0.00  0.00    +0.000 Cl
ATOM      4  C   UNL     1       3.066   5.841  18.939  0.00  0.00    +0.000 A 
ATOM      5  C   UNL     1       2.448   4.695  19.444  0.00  0.00    +0.000 A 
ATOM      6  C   UNL     1       2.780   3.461  18.876  0.00  0.00    +0.000 A 
ATOM      7  C   UNL     1       3.737   3.365  17.852  0.00  0.00    +0.000 A 
ATOM      8 CL   UNL     1       4.287   1.751  17.556  0.00  0.00    +0.000 Cl
ENDROOT
BRANCH   1  13
ATOM      9  C   UNL     1       6.636   4.465  16.192  0.00  0.00    +0.000 A 
ATOM     10  C   UNL     1       6.939   4.421  14.848  0.00  0.00    +0.000 A 
ATOM     11  N   UNL     1       5.807   4.359  14.106  0.00  0.00    +0.000 NA
ATOM     12  N   UNL     1       4.781   4.368  14.939  0.00  0.00    +0.000 NA
ATOM     13  N   UNL     1       5.238   4.455  16.215  0.00  0.00    +0.000 N 
BRANCH   9  14
ATOM     14  C   UNL     1       7.542   4.492  17.378  0.00  0.00    +0.000 C 
BRANCH  14  16
ATOM     15  C   UNL     1       7.371   5.707  19.552  0.00  0.00    +0.000 C 
ATOM     16  C   UNL     1       7.663   5.850  18.063  0.00  0.00    +0.000 C 
ENDBRANCH  14  16
ENDBRANCH   9  14
ENDBRANCH   1  13
BRANCH   5  17
ATOM     17  C   UNL     1       1.467   4.755  20.589  0.00  0.00    +0.000 C 
ATOM     18  F   UNL     1       1.932   4.194  21.737  0.00  0.00    +0.000 F 
ATOM     19  F   UNL     1       1.121   6.032  20.904  0.00  0.00    +0.000 F 
ATOM     20  F   UNL     1       0.302   4.112  20.299  0.00  0.00    +0.000 F 
ENDBRANCH   5  17
TORSDOF 4
ENDMDL
MODEL 5
REMARK VINA RESULT:      -6.5      3.853      5.234
REMARK  Name = 
REMARK  5 active torsions:
REMARK  status: ('A' for Active; 'I' for Inactive)
REMARK    1  A    between atoms: C_1  and  C_2
REMARK    2  A    between atoms: C_2  and  C_3
REMARK    3  A    between atoms: C_3  and  C_4
REMARK    4  A    between atoms: N_8  and  C_9
REMARK    5  A    between atoms: C_13  and  C_14
REMARK                            x       y       z     vdW  Elec       q    Type
REMARK                         _______ _______ _______ _____ _____    ______ ____
ROOT
ATOM      1  C   UNL     1       3.242   6.106  18.737  0.00  0.00    +0.000 A 
ATOM      2  C   UNL     1       3.643   6.977  17.699  0.00  0.00    +0.000 A 
ATOM      3 CL   UNL     1       4.743   6.555  16.426  0.00  0.00    +0.000 Cl
ATOM      4  C   UNL     1       3.086   8.263  17.586  0.00  0.00    +0.000 A 
ATOM      5  C   UNL     1       2.101   8.706  18.472  0.00  0.00    +0.000 A 
ATOM      6  C   UNL     1       1.704   7.845  19.499  0.00  0.00    +0.000 A 
ATOM      7  C   UNL     1       2.300   6.584  19.665  0.00  0.00    +0.000 A 
ATOM      8 CL   UNL     1       1.960   5.842  21.191  0.00  0.00    +0.000 Cl
ENDROOT
BRANCH   1  13
ATOM      9  C   UNL     1       3.325   3.545  18.499  0.00  0.00    +0.000 A 
ATOM     10  C   UNL     1       4.331   2.687  18.888  0.00  0.00    +0.000 A 
ATOM     11  N   UNL     1       5.373   3.380  19.409  0.00  0.00    +0.000 NA
ATOM     12  N   UNL     1       5.061   4.663  19.369  0.00  0.00    +0.000 NA
ATOM     13  N   UNL     1       3.816   4.808  18.846  0.00  0.00    +0.000 N 
BRANCH   9  14
ATOM     14  C   UNL     1       2.018   3.253  17.839  0.00  0.00    +0.000 C 
BRANCH  14  16
ATOM     15  C   UNL     1       0.769   2.987  19.984  0.00  0.00    +0.000 C 
ATOM     16  C   UNL     1       1.084   2.348  18.637  0.00  0.00    +0.000 C 
ENDBRANCH  14  16
ENDBRANCH   9  14
ENDBRANCH   1  13
BRANCH   5  17
ATOM     17  C   UNL     1       1.489  10.080  18.364  0.00  0.00    +0.000 C 
ATOM     18  F   UNL     1       1.252  10.668  19.568  0.00  0.00    +0.000 F 
ATOM     19  F   UNL     1       2.279  10.942  17.670  0.00  0.00    +0.000 F 
ATOM     20  F   UNL     1       0.294  10.058  17.712  0.00  0.00    +0.000 F 
ENDBRANCH   5  17
TORSDOF 4
ENDMDL
MODEL 6
REMARK VINA RESULT:      -6.5      4.146      5.786
REMARK  Name = 
REMARK  5 active torsions:
REMARK  status: ('A' for Active; 'I' for Inactive)
REMARK    1  A    between atoms: C_1  and  C_2
REMARK    2  A    between atoms: C_2  and  C_3
REMARK    3  A    between atoms: C_3  and  C_4
REMARK    4  A    between atoms: N_8  and  C_9
REMARK    5  A    between atoms: C_13  and  C_14
REMARK                            x       y       z     vdW  Elec       q    Type
REMARK                         _______ _______ _______ _____ _____    ______ ____
ROOT
ATOM      1  C   UNL     1       4.141   3.789  18.626  0.00  0.00    +0.000 A 
ATOM      2  C   UNL     1       3.726   3.111  17.458  0.00  0.00    +0.000 A 
ATOM      3 CL   UNL     1       2.339   2.074  17.360  0.00  0.00    +0.000 Cl
ATOM      4  C   UNL     1       4.392   3.311  16.237  0.00  0.00    +0.000 A 
ATOM      5  C   UNL     1       5.459   4.206  16.133  0.00  0.00    +0.000 A 
ATOM      6  C   UNL     1       5.871   4.878  17.288  0.00  0.00    +0.000 A 
ATOM      7  C   UNL     1       5.259   4.636  18.529  0.00  0.00    +0.000 A 
ATOM      8 CL   UNL     1       6.144   5.255  19.880  0.00  0.00    +0.000 Cl
ENDROOT
BRANCH   1  13
ATOM      9  C   UNL     1       2.415   4.266  20.474  0.00  0.00    +0.000 A 
ATOM     10  C   UNL     1       2.237   3.597  21.665  0.00  0.00    +0.000 A 
ATOM     11  N   UNL     1       3.096   2.552  21.758  0.00  0.00    +0.000 NA
ATOM     12  N   UNL     1       3.827   2.537  20.657  0.00  0.00    +0.000 NA
ATOM     13  N   UNL     1       3.463   3.574  19.860  0.00  0.00    +0.000 N 
BRANCH   9  14
ATOM     14  C   UNL     1       1.678   5.438  19.913  0.00  0.00    +0.000 C 
BRANCH  14  16
ATOM     15  C   UNL     1       2.547   7.173  18.344  0.00  0.00    +0.000 C 
ATOM     16  C   UNL     1       2.499   6.718  19.797  0.00  0.00    +0.000 C 
ENDBRANCH  14  16
ENDBRANCH   9  14
ENDBRANCH   1  13
BRANCH   5  17
ATOM     17  C   UNL     1       6.183   4.438  14.830  0.00  0.00    +0.000 C 
ATOM     18  F   UNL     1       5.985   3.453  13.913  0.00  0.00    +0.000 F 
ATOM     19  F   UNL     1       5.804   5.597  14.229  0.00  0.00    +0.000 F 
ATOM     20  F   UNL     1       7.531   4.527  15.002  0.00  0.00    +0.000 F 
ENDBRANCH   5  17
TORSDOF 4
ENDMDL
MODEL 7
REMARK VINA RESULT:      -6.4      3.212      4.650
REMARK  Name = 
REMARK  5 active torsions:
REMARK  status: ('A' for Active; 'I' for Inactive)
REMARK    1  A    between atoms: C_1  and  C_2
REMARK    2  A    between atoms: C_2  and  C_3
REMARK    3  A    between atoms: C_3  and  C_4
REMARK    4  A    between atoms: N_8  and  C_9
REMARK    5  A    between atoms: C_13  and  C_14
REMARK                            x       y       z     vdW  Elec       q    Type
REMARK                         _______ _______ _______ _____ _____    ______ ____
ROOT
ATOM      1  C   UNL     1       2.858   6.142  19.528  0.00  0.00    +0.000 A 
ATOM      2  C   UNL     1       2.083   5.792  20.656  0.00  0.00    +0.000 A 
ATOM      3 CL   UNL     1       2.224   4.297  21.524  0.00  0.00    +0.000 Cl
ATOM      4  C   UNL     1       1.174   6.706  21.215  0.00  0.00    +0.000 A 
ATOM      5  C   UNL     1       1.031   7.994  20.694  0.00  0.00    +0.000 A 
ATOM      6  C   UNL     1       1.797   8.342  19.577  0.00  0.00    +0.000 A 
ATOM      7  C   UNL     1       2.659   7.416  18.967  0.00  0.00    +0.000 A 
ATOM      8 CL   UNL     1       3.211   7.898  17.400  0.00  0.00    +0.000 Cl
ENDROOT
BRANCH   1  13
ATOM      9  C   UNL     1       3.588   4.171  18.043  0.00  0.00    +0.000 A 
ATOM     10  C   UNL     1       4.840   3.604  17.937  0.00  0.00    +0.000 A 
ATOM     11  N   UNL     1       5.729   4.264  18.718  0.00  0.00    +0.000 NA
ATOM     12  N   UNL     1       5.079   5.240  19.329  0.00  0.00    +0.000 NA
ATOM     13  N   UNL     1       3.771   5.206  18.966  0.00  0.00    +0.000 N 
BRANCH   9  14
ATOM     14  C   UNL     1       2.315   3.822  17.345  0.00  0.00    +0.000 C 
BRANCH  14  16
ATOM     15  C   UNL     1       1.667   1.978  18.898  0.00  0.00    +0.000 C 
ATOM     16  C   UNL     1       1.213   3.281  18.251  0.00  0.00    +0.000 C 
ENDBRANCH  14  16
ENDBRANCH   9  14
ENDBRANCH   1  13
BRANCH   5  17
ATOM     17  C   UNL     1       0.064   8.991  21.283  0.00  0.00    +0.000 C 
ATOM     18  F   UNL     1      -0.665   9.661  20.349  0.00  0.00    +0.000 F 
ATOM     19  F   UNL     1      -0.836   8.405  22.117  0.00  0.00    +0.000 F 
ATOM     20  F   UNL     1       0.697   9.943  22.022  0.00  0.00    +0.000 F 
ENDBRANCH   5  17
TORSDOF 4
ENDMDL
MODEL 8
REMARK VINA RESULT:      -6.4      2.710      3.997
REMARK  Name = 
REMARK  5 active torsions:
REMARK  status: ('A' for Active; 'I' for Inactive)
REMARK    1  A    between atoms: C_1  and  C_2
REMARK    2  A    between atoms: C_2  and  C_3
REMARK    3  A    between atoms: C_3  and  C_4
REMARK    4  A    between atoms: N_8  and  C_9
REMARK    5  A    between atoms: C_13  and  C_14
REMARK                            x       y       z     vdW  Elec       q    Type
REMARK                         _______ _______ _______ _____ _____    ______ ____
ROOT
ATOM      1  C   UNL     1       2.619   5.954  19.233  0.00  0.00    +0.000 A 
ATOM      2  C   UNL     1       2.568   7.316  18.861  0.00  0.00    +0.000 A 
ATOM      3 CL   UNL     1       3.232   7.965  17.396  0.00  0.00    +0.000 Cl
ATOM      4  C   UNL     1       1.874   8.250  19.650  0.00  0.00    +0.000 A 
ATOM      5  C   UNL     1       1.191   7.857  20.803  0.00  0.00    +0.000 A 
ATOM      6  C   UNL     1       1.241   6.509  21.172  0.00  0.00    +0.000 A 
ATOM      7  C   UNL     1       1.987   5.578  20.431  0.00  0.00    +0.000 A 
ATOM      8 CL   UNL     1       2.240   4.074  21.247  0.00  0.00    +0.000 Cl
ENDROOT
BRANCH   1  13
ATOM      9  C   UNL     1       4.695   4.732  18.328  0.00  0.00    +0.000 A 
ATOM     10  C   UNL     1       4.752   3.761  17.351  0.00  0.00    +0.000 A 
ATOM     11  N   UNL     1       3.507   3.456  16.910  0.00  0.00    +0.000 NA
ATOM     12  N   UNL     1       2.651   4.210  17.575  0.00  0.00    +0.000 NA
ATOM     13  N   UNL     1       3.330   5.018  18.430  0.00  0.00    +0.000 N 
BRANCH   9  14
ATOM     14  C   UNL     1       5.791   5.347  19.133  0.00  0.00    +0.000 C 
BRANCH  14  16
ATOM     15  C   UNL     1       7.421   6.739  17.853  0.00  0.00    +0.000 C 
ATOM     16  C   UNL     1       7.157   5.363  18.453  0.00  0.00    +0.000 C 
ENDBRANCH  14  16
ENDBRANCH   9  14
ENDBRANCH   1  13
BRANCH   5  17
ATOM     17  C   UNL     1       0.437   8.844  21.660  0.00  0.00    +0.000 C 
ATOM     18  F   UNL     1       0.175  10.022  21.033  0.00  0.00    +0.000 F 
ATOM     19  F   UNL     1      -0.764   8.357  22.070  0.00  0.00    +0.000 F 
ATOM     20  F   UNL     1       1.120   9.163  22.794  0.00  0.00    +0.000 F 
ENDBRANCH   5  17
TORSDOF 4
ENDMDL
MODEL 9
REMARK VINA RESULT:      -6.4      2.833      4.102
REMARK  Name = 
REMARK  5 active torsions:
REMARK  status: ('A' for Active; 'I' for Inactive)
REMARK    1  A    between atoms: C_1  and  C_2
REMARK    2  A    between atoms: C_2  and  C_3
REMARK    3  A    between atoms: C_3  and  C_4
REMARK    4  A    between atoms: N_8  and  C_9
REMARK    5  A    between atoms: C_13  and  C_14
REMARK                            x       y       z     vdW  Elec       q    Type
REMARK                         _______ _______ _______ _____ _____    ______ ____
ROOT
ATOM      1  C   UNL     1       2.361   5.632  19.170  0.00  0.00    +0.000 A 
ATOM      2  C   UNL     1       2.584   6.974  18.786  0.00  0.00    +0.000 A 
ATOM      3 CL   UNL     1       3.318   7.464  17.293  0.00  0.00    +0.000 Cl
ATOM      4  C   UNL     1       2.128   8.035  19.587  0.00  0.00    +0.000 A 
ATOM      5  C   UNL     1       1.417   7.798  20.766  0.00  0.00    +0.000 A 
ATOM      6  C   UNL     1       1.197   6.471  21.147  0.00  0.00    +0.000 A 
ATOM      7  C   UNL     1       1.705   5.402  20.391  0.00  0.00    +0.000 A 
ATOM      8 CL   UNL     1       1.665   3.880  21.215  0.00  0.00    +0.000 Cl
ENDROOT
BRANCH   1  13
ATOM      9  C   UNL     1       4.105   4.007  18.201  0.00  0.00    +0.000 A 
ATOM     10  C   UNL     1       3.922   3.038  17.239  0.00  0.00    +0.000 A 
ATOM     11  N   UNL     1       2.624   2.988  16.853  0.00  0.00    +0.000 NA
ATOM     12  N   UNL     1       1.967   3.906  17.540  0.00  0.00    +0.000 NA
ATOM     13  N   UNL     1       2.832   4.565  18.354  0.00  0.00    +0.000 N 
BRANCH   9  14
ATOM     14  C   UNL     1       5.337   4.393  18.951  0.00  0.00    +0.000 C 
BRANCH  14  16
ATOM     15  C   UNL     1       7.486   4.694  17.717  0.00  0.00    +0.000 C 
ATOM     16  C   UNL     1       6.237   5.396  18.235  0.00  0.00    +0.000 C 
ENDBRANCH  14  16
ENDBRANCH   9  14
ENDBRANCH   1  13
BRANCH   5  17
ATOM     17  C   UNL     1       0.917   8.923  21.637  0.00  0.00    +0.000 C 
ATOM     18  F   UNL     1      -0.316   8.697  22.167  0.00  0.00    +0.000 F 
ATOM     19  F   UNL     1       1.742   9.167  22.689  0.00  0.00    +0.000 F 
ATOM     20  F   UNL     1       0.823  10.097  20.953  0.00  0.00    +0.000 F 
ENDBRANCH   5  17
TORSDOF 4
ENDMDL
