MODEL 1
REMARK VINA RESULT:      -7.0      0.000      0.000
REMARK  Name = 
REMARK  15 active torsions:
REMARK  status: ('A' for Active; 'I' for Inactive)
REMARK    1  A    between atoms: CD1_1  and  CG_2
REMARK    2  A    between atoms: CG_2  and  CD2_3
REMARK    3  A    between atoms: CG_2  and  CB_4
REMARK    4  A    between atoms: CB_4  and  CA_5
REMARK    5  A    between atoms: CA_5  and  N_6
REMARK    6  A    between atoms: CA_5  and  C_12
REMARK    7  A    between atoms: N_6  and  CA_7
REMARK    8  A    between atoms: CA_7  and  CB_8
REMARK    9  A    between atoms: CA_7  and  C_9
REMARK   10  A    between atoms: C_9  and  OXT_11
REMARK   11  A    between atoms: N_14  and  CA_15
REMARK   12  A    between atoms: CA_15  and  CB_16
REMARK   13  A    between atoms: CA_15  and  C_23
REMARK   14  A    between atoms: CB_16  and  CG_17
REMARK   15  A    between atoms: C_23  and  OXT_25
REMARK                            x       y       z     vdW  Elec       q    Type
REMARK                         _______ _______ _______ _____ _____    ______ ____
ROOT
ATOM      1  C   ALA A   1       5.074   4.839  19.207  0.00  0.00    +0.000 C 
ATOM      2  O   ALA A   1       5.712   3.826  19.496  0.00  0.00    +0.000 OA
ATOM      3  N   PHE A   2       5.657   5.798  18.415  0.00  0.00    +0.000 N 
ATOM      4  H   PHE A   2       5.284   6.742  18.387  0.00  0.00    +0.000 HD
ENDROOT
BRANCH   1   5
ATOM      5  CA  ALA A   1       3.543   5.050  19.641  0.00  0.00    +0.000 C 
BRANCH   5   6
ATOM      6  N   ALA A   1       2.912   3.729  20.024  0.00  0.00    +0.000 NA
ATOM      7  H   ALA A   1       2.120   3.934  20.641  0.00  0.00    +0.000 HD
BRANCH   6   8
ATOM      8  CA  ALA A   1       2.346   2.967  18.840  0.00  0.00    +0.000 C 
ATOM      9  CB  ALA A   1       3.078   1.653  18.578  0.00  0.00    +0.000 C 
BRANCH   8  10
ATOM     10  C   ALA A   1       0.861   2.625  19.065  0.00  0.00    +0.000 C 
ATOM     11  O   ALA A   1       0.176   1.942  18.307  0.00  0.00    +0.000 OA
BRANCH  10  12
ATOM     12  OXT ALA A   1       0.388   3.115  20.231  0.00  0.00    +0.000 OA
ATOM     13  HXT ALA A   1      -0.577   3.270  20.117  0.00  0.00    +0.000 HD
ENDBRANCH  10  12
ENDBRANCH   8  10
ENDBRANCH   6   8
ENDBRANCH   5   6
BRANCH   5  14
ATOM     14  CB  ALA A   1       2.773   5.825  18.524  0.00  0.00    +0.000 C 
BRANCH  14  16
ATOM     15  CD1 ALA A   1       1.941   7.723  20.075  0.00  0.00    +0.000 C 
ATOM     16  CG  ALA A   1       2.154   7.237  18.649  0.00  0.00    +0.000 C 
ATOM     17  CD2 ALA A   1       2.803   8.322  17.793  0.00  0.00    +0.000 C 
ENDBRANCH  14  16
ENDBRANCH   5  14
ENDBRANCH   1   5
BRANCH   3  18
ATOM     18  CA  PHE A   2       6.980   5.668  17.767  0.00  0.00    +0.000 C 
BRANCH  18  19
ATOM     19  C   PHE A   2       7.984   6.304  18.759  0.00  0.00    +0.000 C 
ATOM     20  O   PHE A   2       8.396   7.453  18.616  0.00  0.00    +0.000 OA
BRANCH  19  21
ATOM     21  OXT PHE A   2       8.350   5.569  19.828  0.00  0.00    +0.000 OA
ATOM     22  HXT PHE A   2       8.809   6.038  20.546  0.00  0.00    +0.000 HD
ENDBRANCH  19  21
ENDBRANCH  18  19
BRANCH  18  23
ATOM     23  CB  PHE A   2       7.013   6.281  16.347  0.00  0.00    +0.000 C 
BRANCH  23  24
ATOM     24  CG  PHE A   2       6.734   5.272  15.253  0.00  0.00    +0.000 A 
ATOM     25  CD1 PHE A   2       7.509   5.239  14.086  0.00  0.00    +0.000 A 
ATOM     26  CE1 PHE A   2       7.123   4.441  13.009  0.00  0.00    +0.000 A 
ATOM     27  CZ  PHE A   2       5.966   3.665  13.090  0.00  0.00    +0.000 A 
ATOM     28  CE2 PHE A   2       5.236   3.635  14.273  0.00  0.00    +0.000 A 
ATOM     29  CD2 PHE A   2       5.639   4.408  15.356  0.00  0.00    +0.000 A 
ENDBRANCH  23  24
ENDBRANCH  18  23
ENDBRANCH   3  18
TORSDOF 12
ENDMDL
MODEL 2
REMARK VINA RESULT:      -6.9      3.019      6.793
REMARK  Name = 
REMARK  15 active torsions:
REMARK  status: ('A' for Active; 'I' for Inactive)
REMARK    1  A    between atoms: CD1_1  and  CG_2
REMARK    2  A    between atoms: CG_2  and  CD2_3
REMARK    3  A    between atoms: CG_2  and  CB_4
REMARK    4  A    between atoms: CB_4  and  CA_5
REMARK    5  A    between atoms: CA_5  and  N_6
REMARK    6  A    between atoms: CA_5  and  C_12
REMARK    7  A    between atoms: N_6  and  CA_7
REMARK    8  A    between atoms: CA_7  and  CB_8
REMARK    9  A    between atoms: CA_7  and  C_9
REMARK   10  A    between atoms: C_9  and  OXT_11
REMARK   11  A    between atoms: N_14  and  CA_15
REMARK   12  A    between atoms: CA_15  and  CB_16
REMARK   13  A    between atoms: CA_15  and  C_23
REMARK   14  A    between atoms: CB_16  and  CG_17
REMARK   15  A    between atoms: C_23  and  OXT_25
REMARK                            x       y       z     vdW  Elec       q    Type
REMARK                         _______ _______ _______ _____ _____    ______ ____
ROOT
ATOM      1  C   ALA A   1       4.523   6.012  16.809  0.00  0.00    +0.000 C 
ATOM      2  O   ALA A   1       3.979   4.908  16.810  0.00  0.00    +0.000 OA
ATOM      3  N   PHE A   2       3.920   7.060  17.462  0.00  0.00    +0.000 N 
ATOM      4  H   PHE A   2       4.181   8.019  17.254  0.00  0.00    +0.000 HD
ENDROOT
BRANCH   1   5
ATOM      5  CA  ALA A   1       5.965   6.267  16.151  0.00  0.00    +0.000 C 
BRANCH   5   6
ATOM      6  N   ALA A   1       5.922   6.004  14.661  0.00  0.00    +0.000 NA
ATOM      7  H   ALA A   1       6.388   6.790  14.197  0.00  0.00    +0.000 HD
BRANCH   6   8
ATOM      8  CA  ALA A   1       6.680   4.756  14.249  0.00  0.00    +0.000 C 
ATOM      9  CB  ALA A   1       5.757   3.623  13.806  0.00  0.00    +0.000 C 
BRANCH   8  10
ATOM     10  C   ALA A   1       7.632   5.052  13.075  0.00  0.00    +0.000 C 
ATOM     11  O   ALA A   1       7.506   4.603  11.938  0.00  0.00    +0.000 OA
BRANCH  10  12
ATOM     12  OXT ALA A   1       8.613   5.919  13.410  0.00  0.00    +0.000 OA
ATOM     13  HXT ALA A   1       8.382   6.303  14.286  0.00  0.00    +0.000 HD
ENDBRANCH  10  12
ENDBRANCH   8  10
ENDBRANCH   6   8
ENDBRANCH   5   6
BRANCH   5  14
ATOM     14  CB  ALA A   1       7.053   5.444  16.914  0.00  0.00    +0.000 C 
BRANCH  14  16
ATOM     15  CD1 ALA A   1       8.148   7.052  18.621  0.00  0.00    +0.000 C 
ATOM     16  CG  ALA A   1       7.532   5.685  18.364  0.00  0.00    +0.000 C 
ATOM     17  CD2 ALA A   1       6.533   5.321  19.460  0.00  0.00    +0.000 C 
ENDBRANCH  14  16
ENDBRANCH   5  14
ENDBRANCH   1   5
BRANCH   3  18
ATOM     18  CA  PHE A   2       2.696   6.949  18.285  0.00  0.00    +0.000 C 
BRANCH  18  19
ATOM     19  C   PHE A   2       2.057   8.359  18.258  0.00  0.00    +0.000 C 
ATOM     20  O   PHE A   2       2.025   9.035  17.232  0.00  0.00    +0.000 OA
BRANCH  19  21
ATOM     21  OXT PHE A   2       1.478   8.801  19.392  0.00  0.00    +0.000 OA
ATOM     22  HXT PHE A   2       0.677   9.343  19.294  0.00  0.00    +0.000 HD
ENDBRANCH  19  21
ENDBRANCH  18  19
BRANCH  18  23
ATOM     23  CB  PHE A   2       2.978   6.405  19.706  0.00  0.00    +0.000 C 
BRANCH  23  24
ATOM     24  CG  PHE A   2       2.386   5.033  19.950  0.00  0.00    +0.000 A 
ATOM     25  CD1 PHE A   2       1.603   4.400  18.975  0.00  0.00    +0.000 A 
ATOM     26  CE1 PHE A   2       0.908   3.231  19.284  0.00  0.00    +0.000 A 
ATOM     27  CZ  PHE A   2       0.993   2.681  20.563  0.00  0.00    +0.000 A 
ATOM     28  CE2 PHE A   2       1.828   3.261  21.510  0.00  0.00    +0.000 A 
ATOM     29  CD2 PHE A   2       2.545   4.410  21.191  0.00  0.00    +0.000 A 
ENDBRANCH  23  24
ENDBRANCH  18  23
ENDBRANCH   3  18
TORSDOF 12
ENDMDL
MODEL 3
REMARK VINA RESULT:      -6.9      2.246      3.896
REMARK  Name = 
REMARK  15 active torsions:
REMARK  status: ('A' for Active; 'I' for Inactive)
REMARK    1  A    between atoms: CD1_1  and  CG_2
REMARK    2  A    between atoms: CG_2  and  CD2_3
REMARK    3  A    between atoms: CG_2  and  CB_4
REMARK    4  A    between atoms: CB_4  and  CA_5
REMARK    5  A    between atoms: CA_5  and  N_6
REMARK    6  A    between atoms: CA_5  and  C_12
REMARK    7  A    between atoms: N_6  and  CA_7
REMARK    8  A    between atoms: CA_7  and  CB_8
REMARK    9  A    between atoms: CA_7  and  C_9
REMARK   10  A    between atoms: C_9  and  OXT_11
REMARK   11  A    between atoms: N_14  and  CA_15
REMARK   12  A    between atoms: CA_15  and  CB_16
REMARK   13  A    between atoms: CA_15  and  C_23
REMARK   14  A    between atoms: CB_16  and  CG_17
REMARK   15  A    between atoms: C_23  and  OXT_25
REMARK                            x       y       z     vdW  Elec       q    Type
REMARK                         _______ _______ _______ _____ _____    ______ ____
ROOT
ATOM      1  C   ALA A   1       3.633   4.552  18.109  0.00  0.00    +0.000 C 
ATOM      2  O   ALA A   1       3.301   3.660  17.329  0.00  0.00    +0.000 OA
ATOM      3  N   PHE A   2       4.881   5.116  17.994  0.00  0.00    +0.000 N 
ATOM      4  H   PHE A   2       5.286   5.636  18.766  0.00  0.00    +0.000 HD
ENDROOT
BRANCH   1   5
ATOM      5  CA  ALA A   1       2.632   5.160  19.208  0.00  0.00    +0.000 C 
BRANCH   5   6
ATOM      6  N   ALA A   1       3.005   6.590  19.531  0.00  0.00    +0.000 NA
ATOM      7  H   ALA A   1       3.871   6.803  19.026  0.00  0.00    +0.000 HD
BRANCH   6   8
ATOM      8  CA  ALA A   1       1.977   7.601  19.061  0.00  0.00    +0.000 C 
ATOM      9  CB  ALA A   1       1.552   8.569  20.163  0.00  0.00    +0.000 C 
BRANCH   8  10
ATOM     10  C   ALA A   1       2.529   8.449  17.900  0.00  0.00    +0.000 C 
ATOM     11  O   ALA A   1       2.046   9.511  17.514  0.00  0.00    +0.000 OA
BRANCH  10  12
ATOM     12  OXT ALA A   1       3.655   7.927  17.367  0.00  0.00    +0.000 OA
ATOM     13  HXT ALA A   1       3.406   7.094  16.906  0.00  0.00    +0.000 HD
ENDBRANCH  10  12
ENDBRANCH   8  10
ENDBRANCH   6   8
ENDBRANCH   5   6
BRANCH   5  14
ATOM     14  CB  ALA A   1       2.571   4.218  20.453  0.00  0.00    +0.000 C 
BRANCH  14  16
ATOM     15  CD1 ALA A   1       1.377   2.466  21.938  0.00  0.00    +0.000 C 
ATOM     16  CG  ALA A   1       1.831   2.863  20.541  0.00  0.00    +0.000 C 
ATOM     17  CD2 ALA A   1       0.713   2.652  19.523  0.00  0.00    +0.000 C 
ENDBRANCH  14  16
ENDBRANCH   5  14
ENDBRANCH   1   5
BRANCH   3  18
ATOM     18  CA  PHE A   2       5.847   4.815  16.916  0.00  0.00    +0.000 C 
BRANCH  18  19
ATOM     19  C   PHE A   2       7.235   5.179  17.497  0.00  0.00    +0.000 C 
ATOM     20  O   PHE A   2       7.919   4.356  18.102  0.00  0.00    +0.000 OA
BRANCH  19  21
ATOM     21  OXT PHE A   2       7.699   6.423  17.264  0.00  0.00    +0.000 OA
ATOM     22  HXT PHE A   2       7.142   7.162  17.561  0.00  0.00    +0.000 HD
ENDBRANCH  19  21
ENDBRANCH  18  19
BRANCH  18  23
ATOM     23  CB  PHE A   2       5.504   5.533  15.589  0.00  0.00    +0.000 C 
BRANCH  23  24
ATOM     24  CG  PHE A   2       6.120   4.872  14.374  0.00  0.00    +0.000 A 
ATOM     25  CD1 PHE A   2       7.335   5.325  13.843  0.00  0.00    +0.000 A 
ATOM     26  CE1 PHE A   2       7.791   4.838  12.618  0.00  0.00    +0.000 A 
ATOM     27  CZ  PHE A   2       7.043   3.892  11.917  0.00  0.00    +0.000 A 
ATOM     28  CE2 PHE A   2       5.876   3.382  12.474  0.00  0.00    +0.000 A 
ATOM     29  CD2 PHE A   2       5.439   3.847  13.710  0.00  0.00    +0.000 A 
ENDBRANCH  23  24
ENDBRANCH  18  23
ENDBRANCH   3  18
TORSDOF 12
ENDMDL
MODEL 4
REMARK VINA RESULT:      -6.8      1.574      6.732
REMARK  Name = 
REMARK  15 active torsions:
REMARK  status: ('A' for Active; 'I' for Inactive)
REMARK    1  A    between atoms: CD1_1  and  CG_2
REMARK    2  A    between atoms: CG_2  and  CD2_3
REMARK    3  A    between atoms: CG_2  and  CB_4
REMARK    4  A    between atoms: CB_4  and  CA_5
REMARK    5  A    between atoms: CA_5  and  N_6
REMARK    6  A    between atoms: CA_5  and  C_12
REMARK    7  A    between atoms: N_6  and  CA_7
REMARK    8  A    between atoms: CA_7  and  CB_8
REMARK    9  A    between atoms: CA_7  and  C_9
REMARK   10  A    between atoms: C_9  and  OXT_11
REMARK   11  A    between atoms: N_14  and  CA_15
REMARK   12  A    between atoms: CA_15  and  CB_16
REMARK   13  A    between atoms: CA_15  and  C_23
REMARK   14  A    between atoms: CB_16  and  CG_17
REMARK   15  A    between atoms: C_23  and  OXT_25
REMARK                            x       y       z     vdW  Elec       q    Type
REMARK                         _______ _______ _______ _____ _____    ______ ____
ROOT
ATOM      1  C   ALA A   1       4.511   4.369  17.203  0.00  0.00    +0.000 C 
ATOM      2  O   ALA A   1       3.567   3.669  16.836  0.00  0.00    +0.000 OA
ATOM      3  N   PHE A   2       4.576   4.778  18.513  0.00  0.00    +0.000 N 
ATOM      4  H   PHE A   2       5.163   5.562  18.782  0.00  0.00    +0.000 HD
ENDROOT
BRANCH   1   5
ATOM      5  CA  ALA A   1       5.733   4.753  16.234  0.00  0.00    +0.000 C 
BRANCH   5   6
ATOM      6  N   ALA A   1       6.170   6.182  16.473  0.00  0.00    +0.000 NA
ATOM      7  H   ALA A   1       5.504   6.600  17.130  0.00  0.00    +0.000 HD
BRANCH   6   8
ATOM      8  CA  ALA A   1       7.537   6.293  17.120  0.00  0.00    +0.000 C 
ATOM      9  CB  ALA A   1       7.779   7.658  17.760  0.00  0.00    +0.000 C 
BRANCH   8  10
ATOM     10  C   ALA A   1       7.710   5.234  18.225  0.00  0.00    +0.000 C 
ATOM     11  O   ALA A   1       7.322   5.360  19.384  0.00  0.00    +0.000 OA
BRANCH  10  12
ATOM     12  OXT ALA A   1       8.297   4.105  17.774  0.00  0.00    +0.000 OA
ATOM     13  HXT ALA A   1       9.019   3.876  18.402  0.00  0.00    +0.000 HD
ENDBRANCH  10  12
ENDBRANCH   8  10
ENDBRANCH   6   8
ENDBRANCH   5   6
BRANCH   5  14
ATOM     14  CB  ALA A   1       5.356   4.439  14.751  0.00  0.00    +0.000 C 
BRANCH  14  16
ATOM     15  CD1 ALA A   1       5.651   3.346  12.423  0.00  0.00    +0.000 C 
ATOM     16  CG  ALA A   1       6.323   3.959  13.643  0.00  0.00    +0.000 C 
ATOM     17  CD2 ALA A   1       7.402   4.956  13.229  0.00  0.00    +0.000 C 
ENDBRANCH  14  16
ENDBRANCH   5  14
ENDBRANCH   1   5
BRANCH   3  18
ATOM     18  CA  PHE A   2       3.644   4.349  19.579  0.00  0.00    +0.000 C 
BRANCH  18  19
ATOM     19  C   PHE A   2       3.778   2.808  19.643  0.00  0.00    +0.000 C 
ATOM     20  O   PHE A   2       4.781   2.264  20.097  0.00  0.00    +0.000 OA
BRANCH  19  21
ATOM     21  OXT PHE A   2       2.722   2.076  19.234  0.00  0.00    +0.000 OA
ATOM     22  HXT PHE A   2       2.768   1.117  19.388  0.00  0.00    +0.000 HD
ENDBRANCH  19  21
ENDBRANCH  18  19
BRANCH  18  23
ATOM     23  CB  PHE A   2       2.200   4.855  19.349  0.00  0.00    +0.000 C 
BRANCH  23  24
ATOM     24  CG  PHE A   2       2.074   6.362  19.418  0.00  0.00    +0.000 A 
ATOM     25  CD1 PHE A   2       1.652   6.998  20.593  0.00  0.00    +0.000 A 
ATOM     26  CE1 PHE A   2       1.356   8.361  20.585  0.00  0.00    +0.000 A 
ATOM     27  CZ  PHE A   2       1.485   9.101  19.409  0.00  0.00    +0.000 A 
ATOM     28  CE2 PHE A   2       1.977   8.492  18.260  0.00  0.00    +0.000 A 
ATOM     29  CD2 PHE A   2       2.300   7.139  18.278  0.00  0.00    +0.000 A 
ENDBRANCH  23  24
ENDBRANCH  18  23
ENDBRANCH   3  18
TORSDOF 12
ENDMDL
MODEL 5
REMARK VINA RESULT:      -6.8      1.541      1.946
REMARK  Name = 
REMARK  15 active torsions:
REMARK  status: ('A' for Active; 'I' for Inactive)
REMARK    1  A    between atoms: CD1_1  and  CG_2
REMARK    2  A    between atoms: CG_2  and  CD2_3
REMARK    3  A    between atoms: CG_2  and  CB_4
REMARK    4  A    between atoms: CB_4  and  CA_5
REMARK    5  A    between atoms: CA_5  and  N_6
REMARK    6  A    between atoms: CA_5  and  C_12
REMARK    7  A    between atoms: N_6  and  CA_7
REMARK    8  A    between atoms: CA_7  and  CB_8
REMARK    9  A    between atoms: CA_7  and  C_9
REMARK   10  A    between atoms: C_9  and  OXT_11
REMARK   11  A    between atoms: N_14  and  CA_15
REMARK   12  A    between atoms: CA_15  and  CB_16
REMARK   13  A    between atoms: CA_15  and  C_23
REMARK   14  A    between atoms: CB_16  and  CG_17
REMARK   15  A    between atoms: C_23  and  OXT_25
REMARK                            x       y       z     vdW  Elec       q    Type
REMARK                         _______ _______ _______ _____ _____    ______ ____
ROOT
ATOM      1  C   ALA A   1       3.669   4.954  17.981  0.00  0.00    +0.000 C 
ATOM      2  O   ALA A   1       3.194   4.303  17.050  0.00  0.00    +0.000 OA
ATOM      3  N   PHE A   2       5.021   5.196  18.012  0.00  0.00    +0.000 N 
ATOM      4  H   PHE A   2       5.477   5.475  18.875  0.00  0.00    +0.000 HD
ENDROOT
BRANCH   1   5
ATOM      5  CA  ALA A   1       2.760   5.622  19.123  0.00  0.00    +0.000 C 
BRANCH   5   6
ATOM      6  N   ALA A   1       1.731   4.634  19.627  0.00  0.00    +0.000 NA
ATOM      7  H   ALA A   1       1.073   4.459  18.861  0.00  0.00    +0.000 HD
BRANCH   6   8
ATOM      8  CA  ALA A   1       2.322   3.286  19.999  0.00  0.00    +0.000 C 
ATOM      9  CB  ALA A   1       2.027   2.890  21.443  0.00  0.00    +0.000 C 
BRANCH   8  10
ATOM     10  C   ALA A   1       1.761   2.172  19.096  0.00  0.00    +0.000 C 
ATOM     11  O   ALA A   1       0.576   2.039  18.800  0.00  0.00    +0.000 OA
BRANCH  10  12
ATOM     12  OXT ALA A   1       2.728   1.366  18.606  0.00  0.00    +0.000 OA
ATOM     13  HXT ALA A   1       2.527   0.449  18.902  0.00  0.00    +0.000 HD
ENDBRANCH  10  12
ENDBRANCH   8  10
ENDBRANCH   6   8
ENDBRANCH   5   6
BRANCH   5  14
ATOM     14  CB  ALA A   1       2.154   6.966  18.607  0.00  0.00    +0.000 C 
BRANCH  14  16
ATOM     15  CD1 ALA A   1       1.223   9.380  18.704  0.00  0.00    +0.000 C 
ATOM     16  CG  ALA A   1       1.921   8.247  19.442  0.00  0.00    +0.000 C 
ATOM     17  CD2 ALA A   1       1.304   8.033  20.822  0.00  0.00    +0.000 C 
ENDBRANCH  14  16
ENDBRANCH   5  14
ENDBRANCH   1   5
BRANCH   3  18
ATOM     18  CA  PHE A   2       5.970   4.827  16.938  0.00  0.00    +0.000 C 
BRANCH  18  19
ATOM     19  C   PHE A   2       7.377   5.063  17.538  0.00  0.00    +0.000 C 
ATOM     20  O   PHE A   2       7.740   6.173  17.919  0.00  0.00    +0.000 OA
BRANCH  19  21
ATOM     21  OXT PHE A   2       8.177   3.988  17.685  0.00  0.00    +0.000 OA
ATOM     22  HXT PHE A   2       8.047   3.449  18.483  0.00  0.00    +0.000 HD
ENDBRANCH  19  21
ENDBRANCH  18  19
BRANCH  18  23
ATOM     23  CB  PHE A   2       5.704   5.590  15.618  0.00  0.00    +0.000 C 
BRANCH  23  24
ATOM     24  CG  PHE A   2       6.262   4.888  14.398  0.00  0.00    +0.000 A 
ATOM     25  CD1 PHE A   2       7.467   5.302  13.815  0.00  0.00    +0.000 A 
ATOM     26  CE1 PHE A   2       7.868   4.778  12.586  0.00  0.00    +0.000 A 
ATOM     27  CZ  PHE A   2       7.076   3.832  11.934  0.00  0.00    +0.000 A 
ATOM     28  CE2 PHE A   2       5.919   3.361  12.544  0.00  0.00    +0.000 A 
ATOM     29  CD2 PHE A   2       5.536   3.863  13.784  0.00  0.00    +0.000 A 
ENDBRANCH  23  24
ENDBRANCH  18  23
ENDBRANCH   3  18
TORSDOF 12
ENDMDL
MODEL 6
REMARK VINA RESULT:      -6.7      1.722      7.088
REMARK  Name = 
REMARK  15 active torsions:
REMARK  status: ('A' for Active; 'I' for Inactive)
REMARK    1  A    between atoms: CD1_1  and  CG_2
REMARK    2  A    between atoms: CG_2  and  CD2_3
REMARK    3  A    between atoms: CG_2  and  CB_4
REMARK    4  A    between atoms: CB_4  and  CA_5
REMARK    5  A    between atoms: CA_5  and  N_6
REMARK    6  A    between atoms: CA_5  and  C_12
REMARK    7  A    between atoms: N_6  and  CA_7
REMARK    8  A    between atoms: CA_7  and  CB_8
REMARK    9  A    between atoms: CA_7  and  C_9
REMARK   10  A    between atoms: C_9  and  OXT_11
REMARK   11  A    between atoms: N_14  and  CA_15
REMARK   12  A    between atoms: CA_15  and  CB_16
REMARK   13  A    between atoms: CA_15  and  C_23
REMARK   14  A    between atoms: CB_16  and  CG_17
REMARK   15  A    between atoms: C_23  and  OXT_25
REMARK                            x       y       z     vdW  Elec       q    Type
REMARK                         _______ _______ _______ _____ _____    ______ ____
ROOT
ATOM      1  C   ALA A   1       4.715   4.127  17.753  0.00  0.00    +0.000 C 
ATOM      2  O   ALA A   1       4.588   3.580  18.849  0.00  0.00    +0.000 OA
ATOM      3  N   PHE A   2       3.843   5.125  17.394  0.00  0.00    +0.000 N 
ATOM      4  H   PHE A   2       3.740   5.397  16.421  0.00  0.00    +0.000 HD
ENDROOT
BRANCH   1   5
ATOM      5  CA  ALA A   1       5.923   3.787  16.751  0.00  0.00    +0.000 C 
BRANCH   5   6
ATOM      6  N   ALA A   1       7.193   4.477  17.199  0.00  0.00    +0.000 NA
ATOM      7  H   ALA A   1       7.673   4.813  16.358  0.00  0.00    +0.000 HD
BRANCH   6   8
ATOM      8  CA  ALA A   1       6.942   5.698  18.064  0.00  0.00    +0.000 C 
ATOM      9  CB  ALA A   1       7.957   5.840  19.196  0.00  0.00    +0.000 C 
BRANCH   8  10
ATOM     10  C   ALA A   1       7.011   6.989  17.227  0.00  0.00    +0.000 C 
ATOM     11  O   ALA A   1       7.971   7.755  17.197  0.00  0.00    +0.000 OA
BRANCH  10  12
ATOM     12  OXT ALA A   1       5.909   7.174  16.468  0.00  0.00    +0.000 OA
ATOM     13  HXT ALA A   1       6.203   7.538  15.603  0.00  0.00    +0.000 HD
ENDBRANCH  10  12
ENDBRANCH   8  10
ENDBRANCH   6   8
ENDBRANCH   5   6
BRANCH   5  14
ATOM     14  CB  ALA A   1       5.505   4.111  15.281  0.00  0.00    +0.000 C 
BRANCH  14  16
ATOM     15  CD1 ALA A   1       5.625   3.499  12.769  0.00  0.00    +0.000 C 
ATOM     16  CG  ALA A   1       6.379   3.928  14.019  0.00  0.00    +0.000 C 
ATOM     17  CD2 ALA A   1       7.343   5.071  13.710  0.00  0.00    +0.000 C 
ENDBRANCH  14  16
ENDBRANCH   5  14
ENDBRANCH   1   5
BRANCH   3  18
ATOM     18  CA  PHE A   2       2.803   5.696  18.277  0.00  0.00    +0.000 C 
BRANCH  18  19
ATOM     19  C   PHE A   2       1.678   4.634  18.322  0.00  0.00    +0.000 C 
ATOM     20  O   PHE A   2       1.265   4.173  19.384  0.00  0.00    +0.000 OA
BRANCH  19  21
ATOM     21  OXT PHE A   2       1.118   4.272  17.151  0.00  0.00    +0.000 OA
ATOM     22  HXT PHE A   2       0.303   4.735  16.892  0.00  0.00    +0.000 HD
ENDBRANCH  19  21
ENDBRANCH  18  19
BRANCH  18  23
ATOM     23  CB  PHE A   2       2.336   7.099  17.821  0.00  0.00    +0.000 C 
BRANCH  23  24
ATOM     24  CG  PHE A   2       1.902   7.988  18.968  0.00  0.00    +0.000 A 
ATOM     25  CD1 PHE A   2       1.886   7.511  20.286  0.00  0.00    +0.000 A 
ATOM     26  CE1 PHE A   2       1.304   8.271  21.300  0.00  0.00    +0.000 A 
ATOM     27  CZ  PHE A   2       0.739   9.513  21.010  0.00  0.00    +0.000 A 
ATOM     28  CE2 PHE A   2       0.819  10.025  19.720  0.00  0.00    +0.000 A 
ATOM     29  CD2 PHE A   2       1.428   9.279  18.716  0.00  0.00    +0.000 A 
ENDBRANCH  23  24
ENDBRANCH  18  23
ENDBRANCH   3  18
TORSDOF 12
ENDMDL
MODEL 7
REMARK VINA RESULT:      -6.7      2.226      3.718
REMARK  Name = 
REMARK  15 active torsions:
REMARK  status: ('A' for Active; 'I' for Inactive)
REMARK    1  A    between atoms: CD1_1  and  CG_2
REMARK    2  A    between atoms: CG_2  and  CD2_3
REMARK    3  A    between atoms: CG_2  and  CB_4
REMARK    4  A    between atoms: CB_4  and  CA_5
REMARK    5  A    between atoms: CA_5  and  N_6
REMARK    6  A    between atoms: CA_5  and  C_12
REMARK    7  A    between atoms: N_6  and  CA_7
REMARK    8  A    between atoms: CA_7  and  CB_8
REMARK    9  A    between atoms: CA_7  and  C_9
REMARK   10  A    between atoms: C_9  and  OXT_11
REMARK   11  A    between atoms: N_14  and  CA_15
REMARK   12  A    between atoms: CA_15  and  CB_16
REMARK   13  A    between atoms: CA_15  and  C_23
REMARK   14  A    between atoms: CB_16  and  CG_17
REMARK   15  A    between atoms: C_23  and  OXT_25
REMARK                            x       y       z     vdW  Elec       q    Type
REMARK                         _______ _______ _______ _____ _____    ______ ____
ROOT
ATOM      1  C   ALA A   1       3.555   4.807  18.098  0.00  0.00    +0.000 C 
ATOM      2  O   ALA A   1       3.086   4.133  17.182  0.00  0.00    +0.000 OA
ATOM      3  N   PHE A   2       4.906   5.051  18.132  0.00  0.00    +0.000 N 
ATOM      4  H   PHE A   2       5.357   5.351  18.991  0.00  0.00    +0.000 HD
ENDROOT
BRANCH   1   5
ATOM      5  CA  ALA A   1       2.638   5.501  19.219  0.00  0.00    +0.000 C 
BRANCH   5   6
ATOM      6  N   ALA A   1       3.216   6.840  19.622  0.00  0.00    +0.000 NA
ATOM      7  H   ALA A   1       4.130   6.929  19.168  0.00  0.00    +0.000 HD
BRANCH   6   8
ATOM      8  CA  ALA A   1       2.388   8.020  19.149  0.00  0.00    +0.000 C 
ATOM      9  CB  ALA A   1       1.544   7.695  17.919  0.00  0.00    +0.000 C 
BRANCH   8  10
ATOM     10  C   ALA A   1       1.422   8.492  20.252  0.00  0.00    +0.000 C 
ATOM     11  O   ALA A   1       0.479   9.261  20.076  0.00  0.00    +0.000 OA
BRANCH  10  12
ATOM     12  OXT ALA A   1       1.684   7.925  21.449  0.00  0.00    +0.000 OA
ATOM     13  HXT ALA A   1       2.343   7.210  21.299  0.00  0.00    +0.000 HD
ENDBRANCH  10  12
ENDBRANCH   8  10
ENDBRANCH   6   8
ENDBRANCH   5   6
BRANCH   5  14
ATOM     14  CB  ALA A   1       2.415   4.517  20.412  0.00  0.00    +0.000 C 
BRANCH  14  16
ATOM     15  CD1 ALA A   1       0.784   2.831  19.316  0.00  0.00    +0.000 C 
ATOM     16  CG  ALA A   1       1.225   3.544  20.586  0.00  0.00    +0.000 C 
ATOM     17  CD2 ALA A   1       1.336   2.565  21.752  0.00  0.00    +0.000 C 
ENDBRANCH  14  16
ENDBRANCH   5  14
ENDBRANCH   1   5
BRANCH   3  18
ATOM     18  CA  PHE A   2       5.862   4.657  17.073  0.00  0.00    +0.000 C 
BRANCH  18  19
ATOM     19  C   PHE A   2       7.244   4.610  17.768  0.00  0.00    +0.000 C 
ATOM     20  O   PHE A   2       8.243   4.184  17.192  0.00  0.00    +0.000 OA
BRANCH  19  21
ATOM     21  OXT PHE A   2       7.330   5.112  19.016  0.00  0.00    +0.000 OA
ATOM     22  HXT PHE A   2       6.630   4.856  19.640  0.00  0.00    +0.000 HD
ENDBRANCH  19  21
ENDBRANCH  18  19
BRANCH  18  23
ATOM     23  CB  PHE A   2       5.800   5.587  15.838  0.00  0.00    +0.000 C 
BRANCH  23  24
ATOM     24  CG  PHE A   2       6.269   4.919  14.562  0.00  0.00    +0.000 A 
ATOM     25  CD1 PHE A   2       7.448   5.328  13.924  0.00  0.00    +0.000 A 
ATOM     26  CE1 PHE A   2       7.765   4.841  12.656  0.00  0.00    +0.000 A 
ATOM     27  CZ  PHE A   2       6.913   3.939  12.018  0.00  0.00    +0.000 A 
ATOM     28  CE2 PHE A   2       5.782   3.471  12.677  0.00  0.00    +0.000 A 
ATOM     29  CD2 PHE A   2       5.484   3.935  13.954  0.00  0.00    +0.000 A 
ENDBRANCH  23  24
ENDBRANCH  18  23
ENDBRANCH   3  18
TORSDOF 12
ENDMDL
MODEL 8
REMARK VINA RESULT:      -6.6      1.977      2.874
REMARK  Name = 
REMARK  15 active torsions:
REMARK  status: ('A' for Active; 'I' for Inactive)
REMARK    1  A    between atoms: CD1_1  and  CG_2
REMARK    2  A    between atoms: CG_2  and  CD2_3
REMARK    3  A    between atoms: CG_2  and  CB_4
REMARK    4  A    between atoms: CB_4  and  CA_5
REMARK    5  A    between atoms: CA_5  and  N_6
REMARK    6  A    between atoms: CA_5  and  C_12
REMARK    7  A    between atoms: N_6  and  CA_7
REMARK    8  A    between atoms: CA_7  and  CB_8
REMARK    9  A    between atoms: CA_7  and  C_9
REMARK   10  A    between atoms: C_9  and  OXT_11
REMARK   11  A    between atoms: N_14  and  CA_15
REMARK   12  A    between atoms: CA_15  and  CB_16
REMARK   13  A    between atoms: CA_15  and  C_23
REMARK   14  A    between atoms: CB_16  and  CG_17
REMARK   15  A    between atoms: C_23  and  OXT_25
REMARK                            x       y       z     vdW  Elec       q    Type
REMARK                         _______ _______ _______ _____ _____    ______ ____
ROOT
ATOM      1  C   ALA A   1       4.218   5.455  17.056  0.00  0.00    +0.000 C 
ATOM      2  O   ALA A   1       4.660   6.519  16.624  0.00  0.00    +0.000 OA
ATOM      3  N   PHE A   2       4.728   4.272  16.580  0.00  0.00    +0.000 N 
ATOM      4  H   PHE A   2       4.215   3.403  16.696  0.00  0.00    +0.000 HD
ENDROOT
BRANCH   1   5
ATOM      5  CA  ALA A   1       3.127   5.384  18.232  0.00  0.00    +0.000 C 
BRANCH   5   6
ATOM      6  N   ALA A   1       2.451   4.030  18.248  0.00  0.00    +0.000 NA
ATOM      7  H   ALA A   1       2.778   3.515  17.424  0.00  0.00    +0.000 HD
BRANCH   6   8
ATOM      8  CA  ALA A   1       2.821   3.187  19.454  0.00  0.00    +0.000 C 
ATOM      9  CB  ALA A   1       1.643   2.378  19.992  0.00  0.00    +0.000 C 
BRANCH   8  10
ATOM     10  C   ALA A   1       3.938   2.187  19.105  0.00  0.00    +0.000 C 
ATOM     11  O   ALA A   1       3.755   1.062  18.645  0.00  0.00    +0.000 OA
BRANCH  10  12
ATOM     12  OXT ALA A   1       5.172   2.697  19.307  0.00  0.00    +0.000 OA
ATOM     13  HXT ALA A   1       5.286   2.820  20.277  0.00  0.00    +0.000 HD
ENDBRANCH  10  12
ENDBRANCH   8  10
ENDBRANCH   6   8
ENDBRANCH   5   6
BRANCH   5  14
ATOM     14  CB  ALA A   1       2.139   6.589  18.118  0.00  0.00    +0.000 C 
BRANCH  14  16
ATOM     15  CD1 ALA A   1       1.932   9.162  17.917  0.00  0.00    +0.000 C 
ATOM     16  CG  ALA A   1       2.300   7.972  18.792  0.00  0.00    +0.000 C 
ATOM     17  CD2 ALA A   1       1.685   8.105  20.182  0.00  0.00    +0.000 C 
ENDBRANCH  14  16
ENDBRANCH   5  14
ENDBRANCH   1   5
BRANCH   3  18
ATOM     18  CA  PHE A   2       5.871   4.159  15.648  0.00  0.00    +0.000 C 
BRANCH  18  19
ATOM     19  C   PHE A   2       7.097   4.673  16.440  0.00  0.00    +0.000 C 
ATOM     20  O   PHE A   2       7.701   5.691  16.109  0.00  0.00    +0.000 OA
BRANCH  19  21
ATOM     21  OXT PHE A   2       7.448   3.995  17.551  0.00  0.00    +0.000 OA
ATOM     22  HXT PHE A   2       8.306   3.538  17.534  0.00  0.00    +0.000 HD
ENDBRANCH  19  21
ENDBRANCH  18  19
BRANCH  18  23
ATOM     23  CB  PHE A   2       5.624   4.893  14.308  0.00  0.00    +0.000 C 
BRANCH  23  24
ATOM     24  CG  PHE A   2       5.800   4.003  13.096  0.00  0.00    +0.000 A 
ATOM     25  CD1 PHE A   2       4.697   3.403  12.474  0.00  0.00    +0.000 A 
ATOM     26  CE1 PHE A   2       4.888   2.438  11.486  0.00  0.00    +0.000 A 
ATOM     27  CZ  PHE A   2       6.179   2.070  11.105  0.00  0.00    +0.000 A 
ATOM     28  CE2 PHE A   2       7.275   2.716  11.663  0.00  0.00    +0.000 A 
ATOM     29  CD2 PHE A   2       7.082   3.700  12.627  0.00  0.00    +0.000 A 
ENDBRANCH  23  24
ENDBRANCH  18  23
ENDBRANCH   3  18
TORSDOF 12
ENDMDL
MODEL 9
REMARK VINA RESULT:      -6.6      2.751      6.932
REMARK  Name = 
REMARK  15 active torsions:
REMARK  status: ('A' for Active; 'I' for Inactive)
REMARK    1  A    between atoms: CD1_1  and  CG_2
REMARK    2  A    between atoms: CG_2  and  CD2_3
REMARK    3  A    between atoms: CG_2  and  CB_4
REMARK    4  A    between atoms: CB_4  and  CA_5
REMARK    5  A    between atoms: CA_5  and  N_6
REMARK    6  A    between atoms: CA_5  and  C_12
REMARK    7  A    between atoms: N_6  and  CA_7
REMARK    8  A    between atoms: CA_7  and  CB_8
REMARK    9  A    between atoms: CA_7  and  C_9
REMARK   10  A    between atoms: C_9  and  OXT_11
REMARK   11  A    between atoms: N_14  and  CA_15
REMARK   12  A    between atoms: CA_15  and  CB_16
REMARK   13  A    between atoms: CA_15  and  C_23
REMARK   14  A    between atoms: CB_16  and  CG_17
REMARK   15  A    between atoms: C_23  and  OXT_25
REMARK                            x       y       z     vdW  Elec       q    Type
REMARK                         _______ _______ _______ _____ _____    ______ ____
ROOT
ATOM      1  C   ALA A   1       4.013   6.066  17.635  0.00  0.00    +0.000 C 
ATOM      2  O   ALA A   1       4.750   7.018  17.380  0.00  0.00    +0.000 OA
ATOM      3  N   PHE A   2       2.887   6.272  18.394  0.00  0.00    +0.000 N 
ATOM      4  H   PHE A   2       2.420   5.493  18.849  0.00  0.00    +0.000 HD
ENDROOT
BRANCH   1   5
ATOM      5  CA  ALA A   1       4.259   4.596  17.038  0.00  0.00    +0.000 C 
BRANCH   5   6
ATOM      6  N   ALA A   1       4.779   4.680  15.619  0.00  0.00    +0.000 NA
ATOM      7  H   ALA A   1       4.896   5.673  15.394  0.00  0.00    +0.000 HD
BRANCH   6   8
ATOM      8  CA  ALA A   1       6.141   4.037  15.438  0.00  0.00    +0.000 C 
ATOM      9  CB  ALA A   1       6.615   4.057  13.987  0.00  0.00    +0.000 C 
BRANCH   8  10
ATOM     10  C   ALA A   1       7.209   4.765  16.276  0.00  0.00    +0.000 C 
ATOM     11  O   ALA A   1       7.977   4.216  17.063  0.00  0.00    +0.000 OA
BRANCH  10  12
ATOM     12  OXT ALA A   1       7.258   6.089  16.016  0.00  0.00    +0.000 OA
ATOM     13  HXT ALA A   1       7.185   6.562  16.876  0.00  0.00    +0.000 HD
ENDBRANCH  10  12
ENDBRANCH   8  10
ENDBRANCH   6   8
ENDBRANCH   5   6
BRANCH   5  14
ATOM     14  CB  ALA A   1       2.966   3.733  17.194  0.00  0.00    +0.000 C 
BRANCH  14  16
ATOM     15  CD1 ALA A   1       1.162   2.517  18.596  0.00  0.00    +0.000 C 
ATOM     16  CG  ALA A   1       2.644   2.771  18.361  0.00  0.00    +0.000 C 
ATOM     17  CD2 ALA A   1       3.431   1.463  18.377  0.00  0.00    +0.000 C 
ENDBRANCH  14  16
ENDBRANCH   5  14
ENDBRANCH   1   5
BRANCH   3  18
ATOM     18  CA  PHE A   2       2.407   7.594  18.852  0.00  0.00    +0.000 C 
BRANCH  18  19
ATOM     19  C   PHE A   2       1.834   7.352  20.270  0.00  0.00    +0.000 C 
ATOM     20  O   PHE A   2       1.533   6.227  20.662  0.00  0.00    +0.000 OA
BRANCH  19  21
ATOM     21  OXT PHE A   2       1.732   8.418  21.089  0.00  0.00    +0.000 OA
ATOM     22  HXT PHE A   2       1.856   8.254  22.039  0.00  0.00    +0.000 HD
ENDBRANCH  19  21
ENDBRANCH  18  19
BRANCH  18  23
ATOM     23  CB  PHE A   2       1.409   8.243  17.864  0.00  0.00    +0.000 C 
BRANCH  23  24
ATOM     24  CG  PHE A   2       1.202   9.723  18.107  0.00  0.00    +0.000 A 
ATOM     25  CD1 PHE A   2       2.253  10.636  17.945  0.00  0.00    +0.000 A 
ATOM     26  CE1 PHE A   2       2.102  11.960  18.357  0.00  0.00    +0.000 A 
ATOM     27  CZ  PHE A   2       0.901  12.385  18.927  0.00  0.00    +0.000 A 
ATOM     28  CE2 PHE A   2      -0.170  11.504  19.020  0.00  0.00    +0.000 A 
ATOM     29  CD2 PHE A   2      -0.027  10.192  18.580  0.00  0.00    +0.000 A 
ENDBRANCH  23  24
ENDBRANCH  18  23
ENDBRANCH   3  18
TORSDOF 12
ENDMDL
