MODEL 1
REMARK VINA RESULT:      -8.4      0.000      0.000
REMARK  Name = 
REMARK  9 active torsions:
REMARK  status: ('A' for Active; 'I' for Inactive)
REMARK    1  A    between atoms: C_1  and  C_2
REMARK    2  A    between atoms: C_2  and  C_3
REMARK    3  A    between atoms: C_3  and  O_4
REMARK    4  A    between atoms: C_23  and  O_24
REMARK    5  A    between atoms: O_24  and  C_25
REMARK    6  A    between atoms: C_28  and  C_29
REMARK    7  A    between atoms: C_29  and  O_30
REMARK    8  A    between atoms: O_30  and  C_31
REMARK    9  A    between atoms: C_31  and  C_32
REMARK                            x       y       z     vdW  Elec       q    Type
REMARK                         _______ _______ _______ _____ _____    ______ ____
ROOT
ATOM      1  C   UNL     1       3.031   3.512  19.374  0.00  0.00    +0.000 C 
ATOM      2  C   UNL     1       4.503   2.961  19.427  0.00  0.00    +0.000 C 
ATOM      3  O   UNL     1       4.801   1.819  19.768  0.00  0.00    +0.000 OA
ATOM      4  O   UNL     1       5.444   3.765  18.880  0.00  0.00    +0.000 OA
ATOM      5  C   UNL     1       5.385   5.166  19.161  0.00  0.00    +0.000 C 
ATOM      6  C   UNL     1       4.032   5.691  19.513  0.00  0.00    +0.000 A 
ATOM      7  C   UNL     1       3.001   4.940  19.959  0.00  0.00    +0.000 A 
ATOM      8  C   UNL     1       1.915   5.717  20.656  0.00  0.00    +0.000 A 
ATOM      9  C   UNL     1       1.691   7.008  20.267  0.00  0.00    +0.000 A 
ATOM     10  N   UNL     1       2.385   7.408  19.140  0.00  0.00    +0.000 N 
ATOM     11  C   UNL     1       3.597   6.907  18.760  0.00  0.00    +0.000 A 
ATOM     12  O   UNL     1       4.267   7.378  17.846  0.00  0.00    +0.000 OA
ATOM     13  C   UNL     1       1.667   8.420  18.399  0.00  0.00    +0.000 C 
ATOM     14  C   UNL     1       0.731   8.954  19.430  0.00  0.00    +0.000 A 
ATOM     15  C   UNL     1       0.818   8.205  20.601  0.00  0.00    +0.000 A 
ATOM     16  N   UNL     1       0.406   8.724  21.782  0.00  0.00    +0.000 NA
ATOM     17  C   UNL     1      -0.213   9.975  21.752  0.00  0.00    +0.000 A 
ATOM     18  C   UNL     1      -0.568  10.698  22.910  0.00  0.00    +0.000 A 
ATOM     19  C   UNL     1      -1.261  11.938  22.886  0.00  0.00    +0.000 A 
ATOM     20  C   UNL     1      -1.636  12.521  21.686  0.00  0.00    +0.000 A 
ATOM     21  C   UNL     1      -1.224  11.890  20.525  0.00  0.00    +0.000 A 
ATOM     22  C   UNL     1      -0.512  10.655  20.539  0.00  0.00    +0.000 A 
ATOM     23  C   UNL     1      -0.040  10.106  19.334  0.00  0.00    +0.000 A 
ENDROOT
BRANCH   1  25
ATOM     24  C   UNL     1       0.785   2.214  19.093  0.00  0.00    +0.000 C 
ATOM     25  C   UNL     1       2.121   2.342  19.805  0.00  0.00    +0.000 C 
ENDBRANCH   1  25
BRANCH   1  26
ATOM     26  O   UNL     1       2.746   3.704  17.955  0.00  0.00    +0.000 OA
ATOM     27  H   UNL     1       3.599   3.684  17.476  0.00  0.00    +0.000 HD
ENDBRANCH   1  26
BRANCH  20  28
ATOM     28  O   UNL     1      -2.362  13.680  21.739  0.00  0.00    +0.000 OA
ATOM     29  C   UNL     1      -2.795  14.121  23.030  0.00  0.00    +0.000 C 
ENDBRANCH  20  28
BRANCH  23  30
ATOM     30  C   UNL     1      -0.303  10.714  17.982  0.00  0.00    +0.000 C 
BRANCH  30  31
ATOM     31  O   UNL     1      -1.114   9.838  17.178  0.00  0.00    +0.000 OA
BRANCH  31  32
ATOM     32  C   UNL     1      -2.333  10.325  16.825  0.00  0.00    +0.000 C 
ATOM     33  C   UNL     1      -3.408   9.740  17.691  0.00  0.00    +0.000 C 
ATOM     34  O   UNL     1      -2.538  11.141  15.936  0.00  0.00    +0.000 OA
ENDBRANCH  31  32
ENDBRANCH  30  31
ENDBRANCH  23  30
TORSDOF 6
ENDMDL
MODEL 2
REMARK VINA RESULT:      -7.7      1.394      1.707
REMARK  Name = 
REMARK  9 active torsions:
REMARK  status: ('A' for Active; 'I' for Inactive)
REMARK    1  A    between atoms: C_1  and  C_2
REMARK    2  A    between atoms: C_2  and  C_3
REMARK    3  A    between atoms: C_3  and  O_4
REMARK    4  A    between atoms: C_23  and  O_24
REMARK    5  A    between atoms: O_24  and  C_25
REMARK    6  A    between atoms: C_28  and  C_29
REMARK    7  A    between atoms: C_29  and  O_30
REMARK    8  A    between atoms: O_30  and  C_31
REMARK    9  A    between atoms: C_31  and  C_32
REMARK                            x       y       z     vdW  Elec       q    Type
REMARK                         _______ _______ _______ _____ _____    ______ ____
ROOT
ATOM      1  C   UNL     1       2.287   4.829  19.283  0.00  0.00    +0.000 C 
ATOM      2  C   UNL     1       3.745   4.295  19.033  0.00  0.00    +0.000 C 
ATOM      3  O   UNL     1       4.159   3.209  19.428  0.00  0.00    +0.000 OA
ATOM      4  O   UNL     1       4.491   5.026  18.173  0.00  0.00    +0.000 OA
ATOM      5  C   UNL     1       4.453   6.450  18.283  0.00  0.00    +0.000 C 
ATOM      6  C   UNL     1       3.211   7.011  18.895  0.00  0.00    +0.000 A 
ATOM      7  C   UNL     1       2.351   6.321  19.675  0.00  0.00    +0.000 A 
ATOM      8  C   UNL     1       1.444   7.177  20.519  0.00  0.00    +0.000 A 
ATOM      9  C   UNL     1       1.084   8.405  20.042  0.00  0.00    +0.000 A 
ATOM     10  N   UNL     1       1.462   8.660  18.735  0.00  0.00    +0.000 N 
ATOM     11  C   UNL     1       2.560   8.118  18.130  0.00  0.00    +0.000 A 
ATOM     12  O   UNL     1       2.965   8.470  17.026  0.00  0.00    +0.000 OA
ATOM     13  C   UNL     1       0.547   9.564  18.078  0.00  0.00    +0.000 C 
ATOM     14  C   UNL     1      -0.123  10.223  19.236  0.00  0.00    +0.000 A 
ATOM     15  C   UNL     1       0.278   9.632  20.432  0.00  0.00    +0.000 A 
ATOM     16  N   UNL     1       0.153  10.298  21.604  0.00  0.00    +0.000 NA
ATOM     17  C   UNL     1      -0.499  11.533  21.575  0.00  0.00    +0.000 A 
ATOM     18  C   UNL     1      -0.582  12.398  22.686  0.00  0.00    +0.000 A 
ATOM     19  C   UNL     1      -1.304  13.621  22.682  0.00  0.00    +0.000 A 
ATOM     20  C   UNL     1      -1.985  14.042  21.552  0.00  0.00    +0.000 A 
ATOM     21  C   UNL     1      -1.851  13.268  20.412  0.00  0.00    +0.000 A 
ATOM     22  C   UNL     1      -1.114  12.048  20.401  0.00  0.00    +0.000 A 
ATOM     23  C   UNL     1      -0.935  11.350  19.193  0.00  0.00    +0.000 A 
ENDROOT
BRANCH   1  25
ATOM     24  C   UNL     1       0.719   2.744  19.261  0.00  0.00    +0.000 C 
ATOM     25  C   UNL     1       1.555   3.721  20.070  0.00  0.00    +0.000 C 
ENDBRANCH   1  25
BRANCH   1  26
ATOM     26  O   UNL     1       1.653   4.834  17.968  0.00  0.00    +0.000 OA
ATOM     27  H   UNL     1       0.723   4.556  18.085  0.00  0.00    +0.000 HD
ENDBRANCH   1  26
BRANCH  20  28
ATOM     28  O   UNL     1      -2.717  15.196  21.639  0.00  0.00    +0.000 OA
ATOM     29  C   UNL     1      -2.084  16.325  22.252  0.00  0.00    +0.000 C 
ENDBRANCH  20  28
BRANCH  23  30
ATOM     30  C   UNL     1      -1.547  11.777  17.886  0.00  0.00    +0.000 C 
BRANCH  30  31
ATOM     31  O   UNL     1      -2.920  11.356  17.804  0.00  0.00    +0.000 OA
BRANCH  31  32
ATOM     32  C   UNL     1      -3.127  10.129  17.254  0.00  0.00    +0.000 C 
ATOM     33  C   UNL     1      -2.665  10.105  15.828  0.00  0.00    +0.000 C 
ATOM     34  O   UNL     1      -3.607   9.165  17.835  0.00  0.00    +0.000 OA
ENDBRANCH  31  32
ENDBRANCH  30  31
ENDBRANCH  23  30
TORSDOF 6
ENDMDL
MODEL 3
REMARK VINA RESULT:      -7.6      1.964      4.205
REMARK  Name = 
REMARK  9 active torsions:
REMARK  status: ('A' for Active; 'I' for Inactive)
REMARK    1  A    between atoms: C_1  and  C_2
REMARK    2  A    between atoms: C_2  and  C_3
REMARK    3  A    between atoms: C_3  and  O_4
REMARK    4  A    between atoms: C_23  and  O_24
REMARK    5  A    between atoms: O_24  and  C_25
REMARK    6  A    between atoms: C_28  and  C_29
REMARK    7  A    between atoms: C_29  and  O_30
REMARK    8  A    between atoms: O_30  and  C_31
REMARK    9  A    between atoms: C_31  and  C_32
REMARK                            x       y       z     vdW  Elec       q    Type
REMARK                         _______ _______ _______ _____ _____    ______ ____
ROOT
ATOM      1  C   UNL     1       5.878   6.074  17.921  0.00  0.00    +0.000 C 
ATOM      2  C   UNL     1       6.215   4.558  17.671  0.00  0.00    +0.000 C 
ATOM      3  O   UNL     1       7.134   4.164  16.959  0.00  0.00    +0.000 OA
ATOM      4  O   UNL     1       5.544   3.679  18.451  0.00  0.00    +0.000 OA
ATOM      5  C   UNL     1       4.147   3.890  18.664  0.00  0.00    +0.000 C 
ATOM      6  C   UNL     1       3.685   5.303  18.524  0.00  0.00    +0.000 A 
ATOM      7  C   UNL     1       4.349   6.273  17.858  0.00  0.00    +0.000 A 
ATOM      8  C   UNL     1       3.506   7.462  17.477  0.00  0.00    +0.000 A 
ATOM      9  C   UNL     1       2.455   7.796  18.283  0.00  0.00    +0.000 A 
ATOM     10  N   UNL     1       2.385   7.095  19.474  0.00  0.00    +0.000 N 
ATOM     11  C   UNL     1       2.850   5.823  19.650  0.00  0.00    +0.000 A 
ATOM     12  O   UNL     1       2.644   5.162  20.663  0.00  0.00    +0.000 OA
ATOM     13  C   UNL     1       1.768   7.875  20.522  0.00  0.00    +0.000 C 
ATOM     14  C   UNL     1       1.023   8.906  19.742  0.00  0.00    +0.000 A 
ATOM     15  C   UNL     1       1.319   8.798  18.385  0.00  0.00    +0.000 A 
ATOM     16  N   UNL     1       0.480   9.314  17.455  0.00  0.00    +0.000 NA
ATOM     17  C   UNL     1      -0.612  10.053  17.915  0.00  0.00    +0.000 A 
ATOM     18  C   UNL     1      -1.640  10.530  17.075  0.00  0.00    +0.000 A 
ATOM     19  C   UNL     1      -2.715  11.342  17.525  0.00  0.00    +0.000 A 
ATOM     20  C   UNL     1      -2.814  11.718  18.856  0.00  0.00    +0.000 A 
ATOM     21  C   UNL     1      -1.878  11.192  19.729  0.00  0.00    +0.000 A 
ATOM     22  C   UNL     1      -0.805  10.362  19.289  0.00  0.00    +0.000 A 
ATOM     23  C   UNL     1       0.063   9.783  20.231  0.00  0.00    +0.000 A 
ENDROOT
BRANCH   1  25
ATOM     24  C   UNL     1       7.868   7.761  17.929  0.00  0.00    +0.000 C 
ATOM     25  C   UNL     1       6.926   6.881  17.126  0.00  0.00    +0.000 C 
ENDBRANCH   1  25
BRANCH   1  26
ATOM     26  O   UNL     1       6.209   6.311  19.324  0.00  0.00    +0.000 OA
ATOM     27  H   UNL     1       5.568   6.961  19.674  0.00  0.00    +0.000 HD
ENDBRANCH   1  26
BRANCH  20  28
ATOM     28  O   UNL     1      -3.836  12.557  19.207  0.00  0.00    +0.000 OA
ATOM     29  C   UNL     1      -5.158  12.181  18.805  0.00  0.00    +0.000 C 
ENDBRANCH  20  28
BRANCH  23  30
ATOM     30  C   UNL     1      -0.021  10.044  21.711  0.00  0.00    +0.000 C 
BRANCH  30  31
ATOM     31  O   UNL     1       0.370  11.396  22.013  0.00  0.00    +0.000 OA
BRANCH  31  32
ATOM     32  C   UNL     1      -0.592  12.173  22.579  0.00  0.00    +0.000 C 
ATOM     33  C   UNL     1      -1.627  11.325  23.256  0.00  0.00    +0.000 C 
ATOM     34  O   UNL     1      -0.615  13.396  22.561  0.00  0.00    +0.000 OA
ENDBRANCH  31  32
ENDBRANCH  30  31
ENDBRANCH  23  30
TORSDOF 6
ENDMDL
MODEL 4
REMARK VINA RESULT:      -7.5      1.279      1.873
REMARK  Name = 
REMARK  9 active torsions:
REMARK  status: ('A' for Active; 'I' for Inactive)
REMARK    1  A    between atoms: C_1  and  C_2
REMARK    2  A    between atoms: C_2  and  C_3
REMARK    3  A    between atoms: C_3  and  O_4
REMARK    4  A    between atoms: C_23  and  O_24
REMARK    5  A    between atoms: O_24  and  C_25
REMARK    6  A    between atoms: C_28  and  C_29
REMARK    7  A    between atoms: C_29  and  O_30
REMARK    8  A    between atoms: O_30  and  C_31
REMARK    9  A    between atoms: C_31  and  C_32
REMARK                            x       y       z     vdW  Elec       q    Type
REMARK                         _______ _______ _______ _____ _____    ______ ____
ROOT
ATOM      1  C   UNL     1       2.944   3.449  19.180  0.00  0.00    +0.000 C 
ATOM      2  C   UNL     1       4.392   2.842  19.267  0.00  0.00    +0.000 C 
ATOM      3  O   UNL     1       4.633   1.663  19.513  0.00  0.00    +0.000 OA
ATOM      4  O   UNL     1       5.390   3.659  18.859  0.00  0.00    +0.000 OA
ATOM      5  C   UNL     1       5.356   5.028  19.270  0.00  0.00    +0.000 C 
ATOM      6  C   UNL     1       4.001   5.567  19.589  0.00  0.00    +0.000 A 
ATOM      7  C   UNL     1       2.921   4.815  19.898  0.00  0.00    +0.000 A 
ATOM      8  C   UNL     1       1.817   5.561  20.600  0.00  0.00    +0.000 A 
ATOM      9  C   UNL     1       1.658   6.890  20.326  0.00  0.00    +0.000 A 
ATOM     10  N   UNL     1       2.434   7.371  19.286  0.00  0.00    +0.000 N 
ATOM     11  C   UNL     1       3.652   6.863  18.933  0.00  0.00    +0.000 A 
ATOM     12  O   UNL     1       4.393   7.395  18.112  0.00  0.00    +0.000 OA
ATOM     13  C   UNL     1       1.796   8.474  18.605  0.00  0.00    +0.000 C 
ATOM     14  C   UNL     1       0.813   8.942  19.625  0.00  0.00    +0.000 A 
ATOM     15  C   UNL     1       0.802   8.081  20.721  0.00  0.00    +0.000 A 
ATOM     16  N   UNL     1       0.332   8.501  21.919  0.00  0.00    +0.000 NA
ATOM     17  C   UNL     1      -0.245   9.771  21.974  0.00  0.00    +0.000 A 
ATOM     18  C   UNL     1      -0.651  10.393  23.173  0.00  0.00    +0.000 A 
ATOM     19  C   UNL     1      -1.303  11.654  23.228  0.00  0.00    +0.000 A 
ATOM     20  C   UNL     1      -1.583  12.362  22.070  0.00  0.00    +0.000 A 
ATOM     21  C   UNL     1      -1.116  11.830  20.880  0.00  0.00    +0.000 A 
ATOM     22  C   UNL     1      -0.445  10.573  20.817  0.00  0.00    +0.000 A 
ATOM     23  C   UNL     1       0.085  10.125  19.595  0.00  0.00    +0.000 A 
ENDROOT
BRANCH   1  25
ATOM     24  C   UNL     1       0.580   2.398  18.847  0.00  0.00    +0.000 C 
ATOM     25  C   UNL     1       1.974   2.277  19.439  0.00  0.00    +0.000 C 
ENDBRANCH   1  25
BRANCH   1  26
ATOM     26  O   UNL     1       2.757   3.785  17.771  0.00  0.00    +0.000 OA
ATOM     27  H   UNL     1       2.785   4.759  17.692  0.00  0.00    +0.000 HD
ENDBRANCH   1  26
BRANCH  20  28
ATOM     28  O   UNL     1      -2.274  13.537  22.191  0.00  0.00    +0.000 OA
ATOM     29  C   UNL     1      -3.617  13.557  21.695  0.00  0.00    +0.000 C 
ENDBRANCH  20  28
BRANCH  23  30
ATOM     30  C   UNL     1      -0.072  10.868  18.295  0.00  0.00    +0.000 C 
BRANCH  30  31
ATOM     31  O   UNL     1       0.443  12.207  18.408  0.00  0.00    +0.000 OA
BRANCH  31  32
ATOM     32  C   UNL     1       1.797  12.312  18.479  0.00  0.00    +0.000 C 
ATOM     33  C   UNL     1       2.198  13.256  19.572  0.00  0.00    +0.000 C 
ATOM     34  O   UNL     1       2.591  11.712  17.766  0.00  0.00    +0.000 OA
ENDBRANCH  31  32
ENDBRANCH  30  31
ENDBRANCH  23  30
TORSDOF 6
ENDMDL
MODEL 5
REMARK VINA RESULT:      -7.4      1.817      8.770
REMARK  Name = 
REMARK  9 active torsions:
REMARK  status: ('A' for Active; 'I' for Inactive)
REMARK    1  A    between atoms: C_1  and  C_2
REMARK    2  A    between atoms: C_2  and  C_3
REMARK    3  A    between atoms: C_3  and  O_4
REMARK    4  A    between atoms: C_23  and  O_24
REMARK    5  A    between atoms: O_24  and  C_25
REMARK    6  A    between atoms: C_28  and  C_29
REMARK    7  A    between atoms: C_29  and  O_30
REMARK    8  A    between atoms: O_30  and  C_31
REMARK    9  A    between atoms: C_31  and  C_32
REMARK                            x       y       z     vdW  Elec       q    Type
REMARK                         _______ _______ _______ _____ _____    ______ ____
ROOT
ATOM      1  C   UNL     1      -0.360  12.908  20.819  0.00  0.00    +0.000 C 
ATOM      2  C   UNL     1      -1.779  13.559  20.632  0.00  0.00    +0.000 C 
ATOM      3  O   UNL     1      -2.245  14.421  21.373  0.00  0.00    +0.000 OA
ATOM      4  O   UNL     1      -2.408  13.258  19.473  0.00  0.00    +0.000 OA
ATOM      5  C   UNL     1      -2.375  11.904  19.016  0.00  0.00    +0.000 C 
ATOM      6  C   UNL     1      -1.216  11.094  19.496  0.00  0.00    +0.000 A 
ATOM      7  C   UNL     1      -0.464  11.386  20.580  0.00  0.00    +0.000 A 
ATOM      8  C   UNL     1       0.337  10.229  21.118  0.00  0.00    +0.000 A 
ATOM      9  C   UNL     1       0.761   9.271  20.240  0.00  0.00    +0.000 A 
ATOM     10  N   UNL     1       0.550   9.566  18.905  0.00  0.00    +0.000 N 
ATOM     11  C   UNL     1      -0.468  10.349  18.439  0.00  0.00    +0.000 A 
ATOM     12  O   UNL     1      -0.731  10.476  17.246  0.00  0.00    +0.000 OA
ATOM     13  C   UNL     1       1.545   8.953  18.055  0.00  0.00    +0.000 C 
ATOM     14  C   UNL     1       2.070   7.864  18.929  0.00  0.00    +0.000 A 
ATOM     15  C   UNL     1       1.520   7.956  20.205  0.00  0.00    +0.000 A 
ATOM     16  N   UNL     1       1.502   6.879  21.026  0.00  0.00    +0.000 NA
ATOM     17  C   UNL     1       2.160   5.728  20.588  0.00  0.00    +0.000 A 
ATOM     18  C   UNL     1       2.109   4.493  21.269  0.00  0.00    +0.000 A 
ATOM     19  C   UNL     1       2.834   3.339  20.867  0.00  0.00    +0.000 A 
ATOM     20  C   UNL     1       3.653   3.366  19.750  0.00  0.00    +0.000 A 
ATOM     21  C   UNL     1       3.656   4.530  19.001  0.00  0.00    +0.000 A 
ATOM     22  C   UNL     1       2.919   5.688  19.386  0.00  0.00    +0.000 A 
ATOM     23  C   UNL     1       2.888   6.810  18.540  0.00  0.00    +0.000 A 
ENDROOT
BRANCH   1  25
ATOM     24  C   UNL     1       1.375  14.588  21.806  0.00  0.00    +0.000 C 
ATOM     25  C   UNL     1       0.262  13.585  22.059  0.00  0.00    +0.000 C 
ENDBRANCH   1  25
BRANCH   1  26
ATOM     26  O   UNL     1       0.432  13.391  19.692  0.00  0.00    +0.000 OA
ATOM     27  H   UNL     1       1.135  12.733  19.519  0.00  0.00    +0.000 HD
ENDBRANCH   1  26
BRANCH  20  28
ATOM     28  O   UNL     1       4.375   2.240  19.460  0.00  0.00    +0.000 OA
ATOM     29  C   UNL     1       3.766   1.281  18.588  0.00  0.00    +0.000 C 
ENDBRANCH  20  28
BRANCH  23  30
ATOM     30  C   UNL     1       3.659   6.904  17.251  0.00  0.00    +0.000 C 
BRANCH  30  31
ATOM     31  O   UNL     1       5.035   7.242  17.505  0.00  0.00    +0.000 OA
BRANCH  31  32
ATOM     32  C   UNL     1       5.943   6.681  16.662  0.00  0.00    +0.000 C 
ATOM     33  C   UNL     1       5.288   5.652  15.789  0.00  0.00    +0.000 C 
ATOM     34  O   UNL     1       7.129   6.976  16.601  0.00  0.00    +0.000 OA
ENDBRANCH  31  32
ENDBRANCH  30  31
ENDBRANCH  23  30
TORSDOF 6
ENDMDL
MODEL 6
REMARK VINA RESULT:      -7.4      2.089      8.818
REMARK  Name = 
REMARK  9 active torsions:
REMARK  status: ('A' for Active; 'I' for Inactive)
REMARK    1  A    between atoms: C_1  and  C_2
REMARK    2  A    between atoms: C_2  and  C_3
REMARK    3  A    between atoms: C_3  and  O_4
REMARK    4  A    between atoms: C_23  and  O_24
REMARK    5  A    between atoms: O_24  and  C_25
REMARK    6  A    between atoms: C_28  and  C_29
REMARK    7  A    between atoms: C_29  and  O_30
REMARK    8  A    between atoms: O_30  and  C_31
REMARK    9  A    between atoms: C_31  and  C_32
REMARK                            x       y       z     vdW  Elec       q    Type
REMARK                         _______ _______ _______ _____ _____    ______ ____
ROOT
ATOM      1  C   UNL     1      -1.870  12.143  19.952  0.00  0.00    +0.000 C 
ATOM      2  C   UNL     1      -1.816  13.523  20.705  0.00  0.00    +0.000 C 
ATOM      3  O   UNL     1      -2.498  14.499  20.407  0.00  0.00    +0.000 OA
ATOM      4  O   UNL     1      -1.099  13.529  21.853  0.00  0.00    +0.000 OA
ATOM      5  C   UNL     1       0.164  12.860  21.868  0.00  0.00    +0.000 C 
ATOM      6  C   UNL     1       0.315  11.758  20.871  0.00  0.00    +0.000 A 
ATOM      7  C   UNL     1      -0.433  11.614  19.756  0.00  0.00    +0.000 A 
ATOM      8  C   UNL     1       0.173  10.720  18.705  0.00  0.00    +0.000 A 
ATOM      9  C   UNL     1       0.980   9.697  19.113  0.00  0.00    +0.000 A 
ATOM     10  N   UNL     1       1.014   9.486  20.480  0.00  0.00    +0.000 N 
ATOM     11  C   UNL     1       0.823  10.462  21.416  0.00  0.00    +0.000 A 
ATOM     12  O   UNL     1       1.007  10.291  22.618  0.00  0.00    +0.000 OA
ATOM     13  C   UNL     1       1.267   8.101  20.805  0.00  0.00    +0.000 C 
ATOM     14  C   UNL     1       1.878   7.594  19.542  0.00  0.00    +0.000 A 
ATOM     15  C   UNL     1       1.833   8.572  18.552  0.00  0.00    +0.000 A 
ATOM     16  N   UNL     1       2.673   8.515  17.491  0.00  0.00    +0.000 NA
ATOM     17  C   UNL     1       3.485   7.386  17.375  0.00  0.00    +0.000 A 
ATOM     18  C   UNL     1       4.501   7.252  16.405  0.00  0.00    +0.000 A 
ATOM     19  C   UNL     1       5.282   6.077  16.236  0.00  0.00    +0.000 A 
ATOM     20  C   UNL     1       5.081   4.967  17.041  0.00  0.00    +0.000 A 
ATOM     21  C   UNL     1       4.159   5.092  18.066  0.00  0.00    +0.000 A 
ATOM     22  C   UNL     1       3.383   6.273  18.254  0.00  0.00    +0.000 A 
ATOM     23  C   UNL     1       2.527   6.378  19.365  0.00  0.00    +0.000 A 
ENDROOT
BRANCH   1  25
ATOM     24  C   UNL     1      -3.339  11.044  18.098  0.00  0.00    +0.000 C 
ATOM     25  C   UNL     1      -2.931  12.304  18.843  0.00  0.00    +0.000 C 
ENDBRANCH   1  25
BRANCH   1  26
ATOM     26  O   UNL     1      -2.465  11.212  20.907  0.00  0.00    +0.000 OA
ATOM     27  H   UNL     1      -3.075  11.720  21.477  0.00  0.00    +0.000 HD
ENDBRANCH   1  26
BRANCH  20  28
ATOM     28  O   UNL     1       5.821   3.846  16.779  0.00  0.00    +0.000 OA
ATOM     29  C   UNL     1       6.289   3.672  15.437  0.00  0.00    +0.000 C 
ENDBRANCH  20  28
BRANCH  23  30
ATOM     30  C   UNL     1       2.313   5.269  20.359  0.00  0.00    +0.000 C 
BRANCH  30  31
ATOM     31  O   UNL     1       1.030   4.647  20.162  0.00  0.00    +0.000 OA
BRANCH  31  32
ATOM     32  C   UNL     1       1.031   3.288  20.155  0.00  0.00    +0.000 C 
ATOM     33  C   UNL     1       1.477   2.753  21.483  0.00  0.00    +0.000 C 
ATOM     34  O   UNL     1       0.699   2.585  19.210  0.00  0.00    +0.000 OA
ENDBRANCH  31  32
ENDBRANCH  30  31
ENDBRANCH  23  30
TORSDOF 6
ENDMDL
MODEL 7
REMARK VINA RESULT:      -7.0      2.434      4.518
REMARK  Name = 
REMARK  9 active torsions:
REMARK  status: ('A' for Active; 'I' for Inactive)
REMARK    1  A    between atoms: C_1  and  C_2
REMARK    2  A    between atoms: C_2  and  C_3
REMARK    3  A    between atoms: C_3  and  O_4
REMARK    4  A    between atoms: C_23  and  O_24
REMARK    5  A    between atoms: O_24  and  C_25
REMARK    6  A    between atoms: C_28  and  C_29
REMARK    7  A    between atoms: C_29  and  O_30
REMARK    8  A    between atoms: O_30  and  C_31
REMARK    9  A    between atoms: C_31  and  C_32
REMARK                            x       y       z     vdW  Elec       q    Type
REMARK                         _______ _______ _______ _____ _____    ______ ____
ROOT
ATOM      1  C   UNL     1       6.383   5.942  17.396  0.00  0.00    +0.000 C 
ATOM      2  C   UNL     1       6.704   4.656  16.549  0.00  0.00    +0.000 C 
ATOM      3  O   UNL     1       7.732   4.498  15.897  0.00  0.00    +0.000 OA
ATOM      4  O   UNL     1       5.855   3.617  16.728  0.00  0.00    +0.000 OA
ATOM      5  C   UNL     1       4.453   3.889  16.781  0.00  0.00    +0.000 C 
ATOM      6  C   UNL     1       4.085   5.268  17.219  0.00  0.00    +0.000 A 
ATOM      7  C   UNL     1       4.907   6.339  17.179  0.00  0.00    +0.000 A 
ATOM      8  C   UNL     1       4.206   7.671  17.243  0.00  0.00    +0.000 A 
ATOM      9  C   UNL     1       3.028   7.750  17.929  0.00  0.00    +0.000 A 
ATOM     10  N   UNL     1       2.691   6.617  18.647  0.00  0.00    +0.000 N 
ATOM     11  C   UNL     1       3.060   5.348  18.304  0.00  0.00    +0.000 A 
ATOM     12  O   UNL     1       2.627   4.344  18.862  0.00  0.00    +0.000 OA
ATOM     13  C   UNL     1       1.905   6.936  19.817  0.00  0.00    +0.000 C 
ATOM     14  C   UNL     1       1.374   8.287  19.475  0.00  0.00    +0.000 A 
ATOM     15  C   UNL     1       1.934   8.743  18.284  0.00  0.00    +0.000 A 
ATOM     16  N   UNL     1       1.322   9.712  17.562  0.00  0.00    +0.000 NA
ATOM     17  C   UNL     1       0.189  10.309  18.120  0.00  0.00    +0.000 A 
ATOM     18  C   UNL     1      -0.628  11.228  17.429  0.00  0.00    +0.000 A 
ATOM     19  C   UNL     1      -1.739  11.892  18.015  0.00  0.00    +0.000 A 
ATOM     20  C   UNL     1      -2.091  11.662  19.335  0.00  0.00    +0.000 A 
ATOM     21  C   UNL     1      -1.372  10.696  20.018  0.00  0.00    +0.000 A 
ATOM     22  C   UNL     1      -0.266  10.012  19.434  0.00  0.00    +0.000 A 
ATOM     23  C   UNL     1       0.370   8.978  20.142  0.00  0.00    +0.000 A 
ENDROOT
BRANCH   1  25
ATOM     24  C   UNL     1       8.259   7.374  18.508  0.00  0.00    +0.000 C 
ATOM     25  C   UNL     1       7.601   6.876  17.233  0.00  0.00    +0.000 C 
ENDBRANCH   1  25
BRANCH   1  26
ATOM     26  O   UNL     1       6.432   5.503  18.788  0.00  0.00    +0.000 OA
ATOM     27  H   UNL     1       6.165   6.259  19.347  0.00  0.00    +0.000 HD
ENDBRANCH   1  26
BRANCH  20  28
ATOM     28  O   UNL     1      -3.129  12.386  19.855  0.00  0.00    +0.000 OA
ATOM     29  C   UNL     1      -4.423  12.179  19.277  0.00  0.00    +0.000 C 
ENDBRANCH  20  28
BRANCH  23  30
ATOM     30  C   UNL     1      -0.002   8.578  21.545  0.00  0.00    +0.000 C 
BRANCH  30  31
ATOM     31  O   UNL     1       0.840   9.243  22.504  0.00  0.00    +0.000 OA
BRANCH  31  32
ATOM     32  C   UNL     1       0.228   9.630  23.655  0.00  0.00    +0.000 C 
ATOM     33  C   UNL     1      -0.959  10.496  23.357  0.00  0.00    +0.000 C 
ATOM     34  O   UNL     1       0.576   9.310  24.784  0.00  0.00    +0.000 OA
ENDBRANCH  31  32
ENDBRANCH  30  31
ENDBRANCH  23  30
TORSDOF 6
ENDMDL
MODEL 8
REMARK VINA RESULT:      -6.9      1.536      2.320
REMARK  Name = 
REMARK  9 active torsions:
REMARK  status: ('A' for Active; 'I' for Inactive)
REMARK    1  A    between atoms: C_1  and  C_2
REMARK    2  A    between atoms: C_2  and  C_3
REMARK    3  A    between atoms: C_3  and  O_4
REMARK    4  A    between atoms: C_23  and  O_24
REMARK    5  A    between atoms: O_24  and  C_25
REMARK    6  A    between atoms: C_28  and  C_29
REMARK    7  A    between atoms: C_29  and  O_30
REMARK    8  A    between atoms: O_30  and  C_31
REMARK    9  A    between atoms: C_31  and  C_32
REMARK                            x       y       z     vdW  Elec       q    Type
REMARK                         _______ _______ _______ _____ _____    ______ ____
ROOT
ATOM      1  C   UNL     1       2.334   5.594  19.729  0.00  0.00    +0.000 C 
ATOM      2  C   UNL     1       3.747   5.191  19.169  0.00  0.00    +0.000 C 
ATOM      3  O   UNL     1       4.398   4.230  19.569  0.00  0.00    +0.000 OA
ATOM      4  O   UNL     1       4.145   5.859  18.062  0.00  0.00    +0.000 OA
ATOM      5  C   UNL     1       3.929   7.271  18.007  0.00  0.00    +0.000 C 
ATOM      6  C   UNL     1       2.808   7.780  18.852  0.00  0.00    +0.000 A 
ATOM      7  C   UNL     1       2.276   7.127  19.908  0.00  0.00    +0.000 A 
ATOM      8  C   UNL     1       1.489   7.997  20.853  0.00  0.00    +0.000 A 
ATOM      9  C   UNL     1       0.849   9.092  20.343  0.00  0.00    +0.000 A 
ATOM     10  N   UNL     1       0.854   9.183  18.963  0.00  0.00    +0.000 N 
ATOM     11  C   UNL     1       1.836   8.678  18.159  0.00  0.00    +0.000 A 
ATOM     12  O   UNL     1       1.903   8.900  16.954  0.00  0.00    +0.000 OA
ATOM     13  C   UNL     1      -0.316   9.871  18.466  0.00  0.00    +0.000 C 
ATOM     14  C   UNL     1      -0.769  10.623  19.673  0.00  0.00    +0.000 A 
ATOM     15  C   UNL     1      -0.005  10.268  20.783  0.00  0.00    +0.000 A 
ATOM     16  N   UNL     1       0.066  11.088  21.858  0.00  0.00    +0.000 NA
ATOM     17  C   UNL     1      -0.745  12.225  21.854  0.00  0.00    +0.000 A 
ATOM     18  C   UNL     1      -0.677  13.235  22.836  0.00  0.00    +0.000 A 
ATOM     19  C   UNL     1      -1.546  14.357  22.876  0.00  0.00    +0.000 A 
ATOM     20  C   UNL     1      -2.538  14.524  21.923  0.00  0.00    +0.000 A 
ATOM     21  C   UNL     1      -2.577  13.604  20.889  0.00  0.00    +0.000 A 
ATOM     22  C   UNL     1      -1.697  12.484  20.830  0.00  0.00    +0.000 A 
ATOM     23  C   UNL     1      -1.721  11.634  19.711  0.00  0.00    +0.000 A 
ENDROOT
BRANCH   1  25
ATOM     24  C   UNL     1       1.035   3.434  20.401  0.00  0.00    +0.000 C 
ATOM     25  C   UNL     1       1.986   4.547  20.807  0.00  0.00    +0.000 C 
ENDBRANCH   1  25
BRANCH   1  26
ATOM     26  O   UNL     1       1.402   5.329  18.636  0.00  0.00    +0.000 OA
ATOM     27  H   UNL     1       0.702   4.740  18.978  0.00  0.00    +0.000 HD
ENDBRANCH   1  26
BRANCH  20  28
ATOM     28  O   UNL     1      -3.385  15.590  22.062  0.00  0.00    +0.000 OA
ATOM     29  C   UNL     1      -2.787  16.880  22.228  0.00  0.00    +0.000 C 
ENDBRANCH  20  28
BRANCH  23  30
ATOM     30  C   UNL     1      -2.690  11.787  18.570  0.00  0.00    +0.000 C 
BRANCH  30  31
ATOM     31  O   UNL     1      -2.040  11.527  17.312  0.00  0.00    +0.000 OA
BRANCH  31  32
ATOM     32  C   UNL     1      -2.859  11.144  16.296  0.00  0.00    +0.000 C 
ATOM     33  C   UNL     1      -4.297  11.243  16.710  0.00  0.00    +0.000 C 
ATOM     34  O   UNL     1      -2.489  10.783  15.187  0.00  0.00    +0.000 OA
ENDBRANCH  31  32
ENDBRANCH  30  31
ENDBRANCH  23  30
TORSDOF 6
ENDMDL
MODEL 9
REMARK VINA RESULT:      -6.8      3.184     10.288
REMARK  Name = 
REMARK  9 active torsions:
REMARK  status: ('A' for Active; 'I' for Inactive)
REMARK    1  A    between atoms: C_1  and  C_2
REMARK    2  A    between atoms: C_2  and  C_3
REMARK    3  A    between atoms: C_3  and  O_4
REMARK    4  A    between atoms: C_23  and  O_24
REMARK    5  A    between atoms: O_24  and  C_25
REMARK    6  A    between atoms: C_28  and  C_29
REMARK    7  A    between atoms: C_29  and  O_30
REMARK    8  A    between atoms: O_30  and  C_31
REMARK    9  A    between atoms: C_31  and  C_32
REMARK                            x       y       z     vdW  Elec       q    Type
REMARK                         _______ _______ _______ _____ _____    ______ ____
ROOT
ATOM      1  C   UNL     1      -3.637  16.734  24.100  0.00  0.00    +0.000 C 
ATOM      2  C   UNL     1      -4.994  16.976  24.857  0.00  0.00    +0.000 C 
ATOM      3  O   UNL     1      -5.139  17.776  25.777  0.00  0.00    +0.000 OA
ATOM      4  O   UNL     1      -6.079  16.381  24.307  0.00  0.00    +0.000 OA
ATOM      5  C   UNL     1      -5.953  15.033  23.848  0.00  0.00    +0.000 C 
ATOM      6  C   UNL     1      -4.571  14.612  23.473  0.00  0.00    +0.000 A 
ATOM      7  C   UNL     1      -3.437  15.218  23.886  0.00  0.00    +0.000 A 
ATOM      8  C   UNL     1      -2.193  14.379  23.755  0.00  0.00    +0.000 A 
ATOM      9  C   UNL     1      -2.137  13.458  22.747  0.00  0.00    +0.000 A 
ATOM     10  N   UNL     1      -3.178  13.520  21.839  0.00  0.00    +0.000 N 
ATOM     11  C   UNL     1      -4.438  13.954  22.137  0.00  0.00    +0.000 A 
ATOM     12  O   UNL     1      -5.386  13.859  21.364  0.00  0.00    +0.000 OA
ATOM     13  C   UNL     1      -2.772  13.077  20.525  0.00  0.00    +0.000 C 
ATOM     14  C   UNL     1      -1.551  12.276  20.831  0.00  0.00    +0.000 A 
ATOM     15  C   UNL     1      -1.223  12.385  22.181  0.00  0.00    +0.000 A 
ATOM     16  N   UNL     1      -0.445  11.450  22.777  0.00  0.00    +0.000 NA
ATOM     17  C   UNL     1       0.105  10.458  21.962  0.00  0.00    +0.000 A 
ATOM     18  C   UNL     1       0.817   9.347  22.460  0.00  0.00    +0.000 A 
ATOM     19  C   UNL     1       1.439   8.373  21.633  0.00  0.00    +0.000 A 
ATOM     20  C   UNL     1       1.376   8.466  20.252  0.00  0.00    +0.000 A 
ATOM     21  C   UNL     1       0.606   9.489  19.726  0.00  0.00    +0.000 A 
ATOM     22  C   UNL     1      -0.037  10.461  20.548  0.00  0.00    +0.000 A 
ATOM     23  C   UNL     1      -0.879  11.424  19.963  0.00  0.00    +0.000 A 
ENDROOT
BRANCH   1  25
ATOM     24  C   UNL     1      -1.757  17.140  25.863  0.00  0.00    +0.000 C 
ATOM     25  C   UNL     1      -2.614  17.697  24.739  0.00  0.00    +0.000 C 
ENDBRANCH   1  25
BRANCH   1  26
ATOM     26  O   UNL     1      -3.853  17.257  22.754  0.00  0.00    +0.000 OA
ATOM     27  H   UNL     1      -4.612  17.873  22.793  0.00  0.00    +0.000 HD
ENDBRANCH   1  26
BRANCH  20  28
ATOM     28  O   UNL     1       2.055   7.533  19.517  0.00  0.00    +0.000 OA
ATOM     29  C   UNL     1       2.465   7.912  18.199  0.00  0.00    +0.000 C 
ENDBRANCH  20  28
BRANCH  23  30
ATOM     30  C   UNL     1      -1.100  11.547  18.480  0.00  0.00    +0.000 C 
BRANCH  30  31
ATOM     31  O   UNL     1      -2.126  10.639  18.040  0.00  0.00    +0.000 OA
BRANCH  31  32
ATOM     32  C   UNL     1      -2.873  11.063  16.986  0.00  0.00    +0.000 C 
ATOM     33  C   UNL     1      -4.236  11.490  17.442  0.00  0.00    +0.000 C 
ATOM     34  O   UNL     1      -2.494  11.111  15.824  0.00  0.00    +0.000 OA
ENDBRANCH  31  32
ENDBRANCH  30  31
ENDBRANCH  23  30
TORSDOF 6
ENDMDL
