MODEL 1
REMARK VINA RESULT:      -8.2      0.000      0.000
REMARK  Name = 
REMARK  4 active torsions:
REMARK  status: ('A' for Active; 'I' for Inactive)
REMARK    1  A    between atoms: C_2  and  C_4
REMARK    2  A    between atoms: C_9  and  C_10
REMARK    3  A    between atoms: C_13  and  C_14
REMARK    4  A    between atoms: C_17  and  N_18
REMARK                            x       y       z     vdW  Elec       q    Type
REMARK                         _______ _______ _______ _____ _____    ______ ____
ROOT
ATOM      1  C   UNL     1       2.957   6.893  18.401  0.00  0.00    +0.000 A 
ATOM      2  C   UNL     1       2.580   6.553  19.716  0.00  0.00    +0.000 A 
ATOM      3  C   UNL     1       1.820   7.418  20.519  0.00  0.00    +0.000 A 
ATOM      4  C   UNL     1       1.364   8.651  20.032  0.00  0.00    +0.000 A 
ATOM      5  C   UNL     1       1.728   8.977  18.720  0.00  0.00    +0.000 A 
ATOM      6  F   UNL     1       1.341  10.145  18.183  0.00  0.00    +0.000 F 
ATOM      7  C   UNL     1       2.524   8.140  17.933  0.00  0.00    +0.000 A 
ENDROOT
BRANCH   1  13
ATOM      8  C   UNL     1       3.534   4.634  17.275  0.00  0.00    +0.000 A 
ATOM      9  C   UNL     1       4.423   3.878  16.482  0.00  0.00    +0.000 A 
ATOM     10  C   UNL     1       5.595   4.438  15.981  0.00  0.00    +0.000 A 
ATOM     11  C   UNL     1       5.893   5.760  16.266  0.00  0.00    +0.000 A 
ATOM     12  C   UNL     1       5.017   6.520  17.047  0.00  0.00    +0.000 A 
ATOM     13  C   UNL     1       3.820   5.989  17.588  0.00  0.00    +0.000 A 
BRANCH   8  15
ATOM     14  N   UNL     1       2.573   3.017  18.825  0.00  0.00    +0.000 N 
ATOM     15  C   UNL     1       2.344   3.905  17.803  0.00  0.00    +0.000 C 
ATOM     16  O   UNL     1       1.214   4.067  17.366  0.00  0.00    +0.000 OA
ATOM     17  H   UNL     1       1.782   2.488  19.165  0.00  0.00    +0.000 HD
ATOM     18  H   UNL     1       3.492   2.791  19.179  0.00  0.00    +0.000 HD
ENDBRANCH   8  15
ENDBRANCH   1  13
BRANCH   4  19
ATOM     19  C   UNL     1       0.586   9.569  20.876  0.00  0.00    +0.000 A 
ATOM     20  C   UNL     1       0.672   9.602  22.269  0.00  0.00    +0.000 A 
ATOM     21  N   UNL     1      -0.096  10.404  23.055  0.00  0.00    +0.000 NA
ATOM     22  C   UNL     1      -0.975  11.186  22.408  0.00  0.00    +0.000 A 
ATOM     23  C   UNL     1      -1.058  11.172  21.017  0.00  0.00    +0.000 A 
ATOM     24  N   UNL     1      -0.280  10.392  20.228  0.00  0.00    +0.000 NA
BRANCH  22  25
ATOM     25  N   UNL     1      -1.824  11.956  23.196  0.00  0.00    +0.000 N 
ATOM     26  H   UNL     1      -1.440  11.948  24.139  0.00  0.00    +0.000 HD
ATOM     27  H   UNL     1      -1.926  12.898  22.838  0.00  0.00    +0.000 HD
ENDBRANCH  22  25
ENDBRANCH   4  19
TORSDOF 4
ENDMDL
MODEL 2
REMARK VINA RESULT:      -8.1      1.157      1.530
REMARK  Name = 
REMARK  4 active torsions:
REMARK  status: ('A' for Active; 'I' for Inactive)
REMARK    1  A    between atoms: C_2  and  C_4
REMARK    2  A    between atoms: C_9  and  C_10
REMARK    3  A    between atoms: C_13  and  C_14
REMARK    4  A    between atoms: C_17  and  N_18
REMARK                            x       y       z     vdW  Elec       q    Type
REMARK                         _______ _______ _______ _____ _____    ______ ____
ROOT
ATOM      1  C   UNL     1       2.987   7.045  18.285  0.00  0.00    +0.000 A 
ATOM      2  C   UNL     1       2.632   8.221  17.593  0.00  0.00    +0.000 A 
ATOM      3  C   UNL     1       1.823   9.211  18.175  0.00  0.00    +0.000 A 
ATOM      4  C   UNL     1       1.363   9.092  19.494  0.00  0.00    +0.000 A 
ATOM      5  C   UNL     1       1.732   7.930  20.182  0.00  0.00    +0.000 A 
ATOM      6  F   UNL     1       1.322   7.735  21.445  0.00  0.00    +0.000 F 
ATOM      7  C   UNL     1       2.497   6.921  19.590  0.00  0.00    +0.000 A 
ENDROOT
BRANCH   1  13
ATOM      8  C   UNL     1       3.377   4.636  17.421  0.00  0.00    +0.000 A 
ATOM      9  C   UNL     1       4.224   3.714  16.770  0.00  0.00    +0.000 A 
ATOM     10  C   UNL     1       5.480   4.093  16.307  0.00  0.00    +0.000 A 
ATOM     11  C   UNL     1       5.907   5.399  16.489  0.00  0.00    +0.000 A 
ATOM     12  C   UNL     1       5.074   6.322  17.129  0.00  0.00    +0.000 A 
ATOM     13  C   UNL     1       3.792   5.977  17.626  0.00  0.00    +0.000 A 
BRANCH   8  15
ATOM     14  N   UNL     1       2.126   3.398  19.107  0.00  0.00    +0.000 N 
ATOM     15  C   UNL     1       2.081   4.094  17.925  0.00  0.00    +0.000 C 
ATOM     16  O   UNL     1       1.021   4.243  17.335  0.00  0.00    +0.000 OA
ATOM     17  H   UNL     1       1.262   2.993  19.440  0.00  0.00    +0.000 HD
ATOM     18  H   UNL     1       2.980   3.184  19.602  0.00  0.00    +0.000 HD
ENDBRANCH   8  15
ENDBRANCH   1  13
BRANCH   4  19
ATOM     19  C   UNL     1       0.499  10.116  20.099  0.00  0.00    +0.000 A 
ATOM     20  C   UNL     1       0.744  10.701  21.343  0.00  0.00    +0.000 A 
ATOM     21  N   UNL     1      -0.090  11.599  21.933  0.00  0.00    +0.000 NA
ATOM     22  C   UNL     1      -1.201  11.905  21.244  0.00  0.00    +0.000 A 
ATOM     23  C   UNL     1      -1.447  11.339  19.994  0.00  0.00    +0.000 A 
ATOM     24  N   UNL     1      -0.609  10.461  19.392  0.00  0.00    +0.000 NA
BRANCH  22  25
ATOM     25  N   UNL     1      -2.105  12.761  21.863  0.00  0.00    +0.000 N 
ATOM     26  H   UNL     1      -2.096  13.632  21.335  0.00  0.00    +0.000 HD
ATOM     27  H   UNL     1      -3.034  12.361  21.915  0.00  0.00    +0.000 HD
ENDBRANCH  22  25
ENDBRANCH   4  19
TORSDOF 4
ENDMDL
MODEL 3
REMARK VINA RESULT:      -8.1      1.366      1.887
REMARK  Name = 
REMARK  4 active torsions:
REMARK  status: ('A' for Active; 'I' for Inactive)
REMARK    1  A    between atoms: C_2  and  C_4
REMARK    2  A    between atoms: C_9  and  C_10
REMARK    3  A    between atoms: C_13  and  C_14
REMARK    4  A    between atoms: C_17  and  N_18
REMARK                            x       y       z     vdW  Elec       q    Type
REMARK                         _______ _______ _______ _____ _____    ______ ____
ROOT
ATOM      1  C   UNL     1       2.915   7.152  18.308  0.00  0.00    +0.000 A 
ATOM      2  C   UNL     1       2.538   8.285  17.557  0.00  0.00    +0.000 A 
ATOM      3  C   UNL     1       1.697   9.279  18.081  0.00  0.00    +0.000 A 
ATOM      4  C   UNL     1       1.224   9.211  19.399  0.00  0.00    +0.000 A 
ATOM      5  C   UNL     1       1.613   8.093  20.146  0.00  0.00    +0.000 A 
ATOM      6  F   UNL     1       1.193   7.947  21.413  0.00  0.00    +0.000 F 
ATOM      7  C   UNL     1       2.412   7.077  19.612  0.00  0.00    +0.000 A 
ENDROOT
BRANCH   1  13
ATOM      8  C   UNL     1       3.352   4.730  17.505  0.00  0.00    +0.000 A 
ATOM      9  C   UNL     1       4.233   3.799  16.915  0.00  0.00    +0.000 A 
ATOM     10  C   UNL     1       5.512   4.173  16.513  0.00  0.00    +0.000 A 
ATOM     11  C   UNL     1       5.927   5.483  16.695  0.00  0.00    +0.000 A 
ATOM     12  C   UNL     1       5.060   6.414  17.275  0.00  0.00    +0.000 A 
ATOM     13  C   UNL     1       3.755   6.075  17.710  0.00  0.00    +0.000 A 
BRANCH   8  15
ATOM     14  N   UNL     1       2.013   3.529  19.150  0.00  0.00    +0.000 N 
ATOM     15  C   UNL     1       2.032   4.194  17.949  0.00  0.00    +0.000 C 
ATOM     16  O   UNL     1       1.007   4.321  17.296  0.00  0.00    +0.000 OA
ATOM     17  H   UNL     1       1.133   3.128  19.444  0.00  0.00    +0.000 HD
ATOM     18  H   UNL     1       2.839   3.334  19.699  0.00  0.00    +0.000 HD
ENDBRANCH   8  15
ENDBRANCH   1  13
BRANCH   4  19
ATOM     19  C   UNL     1       0.327  10.240  19.946  0.00  0.00    +0.000 A 
ATOM     20  C   UNL     1      -0.923  10.545  19.405  0.00  0.00    +0.000 A 
ATOM     21  N   UNL     1      -1.724  11.542  19.869  0.00  0.00    +0.000 NA
ATOM     22  C   UNL     1      -1.239  12.247  20.904  0.00  0.00    +0.000 A 
ATOM     23  C   UNL     1       0.000  11.939  21.462  0.00  0.00    +0.000 A 
ATOM     24  N   UNL     1       0.793  10.933  21.017  0.00  0.00    +0.000 NA
BRANCH  22  25
ATOM     25  N   UNL     1      -2.007  13.320  21.344  0.00  0.00    +0.000 N 
ATOM     26  H   UNL     1      -1.361  14.001  21.741  0.00  0.00    +0.000 HD
ATOM     27  H   UNL     1      -2.565  13.719  20.599  0.00  0.00    +0.000 HD
ENDBRANCH  22  25
ENDBRANCH   4  19
TORSDOF 4
ENDMDL
MODEL 4
REMARK VINA RESULT:      -7.9      0.879      1.242
REMARK  Name = 
REMARK  4 active torsions:
REMARK  status: ('A' for Active; 'I' for Inactive)
REMARK    1  A    between atoms: C_2  and  C_4
REMARK    2  A    between atoms: C_9  and  C_10
REMARK    3  A    between atoms: C_13  and  C_14
REMARK    4  A    between atoms: C_17  and  N_18
REMARK                            x       y       z     vdW  Elec       q    Type
REMARK                         _______ _______ _______ _____ _____    ______ ____
ROOT
ATOM      1  C   UNL     1       3.448   6.507  18.101  0.00  0.00    +0.000 A 
ATOM      2  C   UNL     1       3.030   6.083  19.378  0.00  0.00    +0.000 A 
ATOM      3  C   UNL     1       2.208   6.876  20.195  0.00  0.00    +0.000 A 
ATOM      4  C   UNL     1       1.728   8.118  19.755  0.00  0.00    +0.000 A 
ATOM      5  C   UNL     1       2.132   8.528  18.479  0.00  0.00    +0.000 A 
ATOM      6  F   UNL     1       1.726   9.710  17.990  0.00  0.00    +0.000 F 
ATOM      7  C   UNL     1       2.989   7.762  17.683  0.00  0.00    +0.000 A 
ENDROOT
BRANCH   1  13
ATOM      8  C   UNL     1       4.192   4.308  16.954  0.00  0.00    +0.000 A 
ATOM      9  C   UNL     1       5.134   3.629  16.151  0.00  0.00    +0.000 A 
ATOM     10  C   UNL     1       6.257   4.281  15.652  0.00  0.00    +0.000 A 
ATOM     11  C   UNL     1       6.454   5.620  15.948  0.00  0.00    +0.000 A 
ATOM     12  C   UNL     1       5.526   6.304  16.738  0.00  0.00    +0.000 A 
ATOM     13  C   UNL     1       4.374   5.678  17.277  0.00  0.00    +0.000 A 
BRANCH   8  15
ATOM     14  N   UNL     1       3.372   2.574  18.457  0.00  0.00    +0.000 N 
ATOM     15  C   UNL     1       3.062   3.486  17.479  0.00  0.00    +0.000 C 
ATOM     16  O   UNL     1       1.915   3.594  17.074  0.00  0.00    +0.000 OA
ATOM     17  H   UNL     1       2.624   1.984  18.794  0.00  0.00    +0.000 HD
ATOM     18  H   UNL     1       4.312   2.392  18.781  0.00  0.00    +0.000 HD
ENDBRANCH   8  15
ENDBRANCH   1  13
BRANCH   4  19
ATOM     19  C   UNL     1       0.884   8.961  20.614  0.00  0.00    +0.000 A 
ATOM     20  C   UNL     1      -0.007   9.919  20.126  0.00  0.00    +0.000 A 
ATOM     21  N   UNL     1      -0.738  10.744  20.922  0.00  0.00    +0.000 NA
ATOM     22  C   UNL     1      -0.556  10.595  22.244  0.00  0.00    +0.000 A 
ATOM     23  C   UNL     1       0.318   9.630  22.741  0.00  0.00    +0.000 A 
ATOM     24  N   UNL     1       1.033   8.790  21.954  0.00  0.00    +0.000 NA
BRANCH  22  25
ATOM     25  N   UNL     1      -1.235  11.481  23.073  0.00  0.00    +0.000 N 
ATOM     26  H   UNL     1      -1.819  12.059  22.471  0.00  0.00    +0.000 HD
ATOM     27  H   UNL     1      -1.781  11.001  23.778  0.00  0.00    +0.000 HD
ENDBRANCH  22  25
ENDBRANCH   4  19
TORSDOF 4
ENDMDL
MODEL 5
REMARK VINA RESULT:      -7.9      3.245      7.520
REMARK  Name = 
REMARK  4 active torsions:
REMARK  status: ('A' for Active; 'I' for Inactive)
REMARK    1  A    between atoms: C_2  and  C_4
REMARK    2  A    between atoms: C_9  and  C_10
REMARK    3  A    between atoms: C_13  and  C_14
REMARK    4  A    between atoms: C_17  and  N_18
REMARK                            x       y       z     vdW  Elec       q    Type
REMARK                         _______ _______ _______ _____ _____    ______ ____
ROOT
ATOM      1  C   UNL     1       1.278  10.113  19.001  0.00  0.00    +0.000 A 
ATOM      2  C   UNL     1       1.925   9.621  17.849  0.00  0.00    +0.000 A 
ATOM      3  C   UNL     1       2.422   8.310  17.777  0.00  0.00    +0.000 A 
ATOM      4  C   UNL     1       2.259   7.411  18.841  0.00  0.00    +0.000 A 
ATOM      5  C   UNL     1       1.602   7.898  19.976  0.00  0.00    +0.000 A 
ATOM      6  F   UNL     1       1.417   7.104  21.043  0.00  0.00    +0.000 F 
ATOM      7  C   UNL     1       1.148   9.218  20.070  0.00  0.00    +0.000 A 
ENDROOT
BRANCH   1  13
ATOM      8  C   UNL     1      -0.449  12.011  18.658  0.00  0.00    +0.000 A 
ATOM      9  C   UNL     1      -0.780  13.376  18.797  0.00  0.00    +0.000 A 
ATOM     10  C   UNL     1       0.118  14.280  19.357  0.00  0.00    +0.000 A 
ATOM     11  C   UNL     1       1.358  13.833  19.785  0.00  0.00    +0.000 A 
ATOM     12  C   UNL     1       1.694  12.482  19.655  0.00  0.00    +0.000 A 
ATOM     13  C   UNL     1       0.817  11.528  19.081  0.00  0.00    +0.000 A 
BRANCH   8  15
ATOM     14  N   UNL     1      -1.928  11.586  16.768  0.00  0.00    +0.000 N 
ATOM     15  C   UNL     1      -1.470  11.153  17.988  0.00  0.00    +0.000 C 
ATOM     16  O   UNL     1      -1.897  10.119  18.477  0.00  0.00    +0.000 OA
ATOM     17  H   UNL     1      -2.648  11.035  16.322  0.00  0.00    +0.000 HD
ATOM     18  H   UNL     1      -1.664  12.465  16.347  0.00  0.00    +0.000 HD
ENDBRANCH   8  15
ENDBRANCH   1  13
BRANCH   4  19
ATOM     19  C   UNL     1       2.795   6.043  18.777  0.00  0.00    +0.000 A 
ATOM     20  C   UNL     1       3.980   5.645  19.399  0.00  0.00    +0.000 A 
ATOM     21  N   UNL     1       4.511   4.398  19.285  0.00  0.00    +0.000 NA
ATOM     22  C   UNL     1       3.822   3.538  18.517  0.00  0.00    +0.000 A 
ATOM     23  C   UNL     1       2.630   3.920  17.906  0.00  0.00    +0.000 A 
ATOM     24  N   UNL     1       2.085   5.155  18.033  0.00  0.00    +0.000 NA
BRANCH  22  25
ATOM     25  N   UNL     1       4.387   2.282  18.324  0.00  0.00    +0.000 N 
ATOM     26  H   UNL     1       4.211   1.746  19.172  0.00  0.00    +0.000 HD
ATOM     27  H   UNL     1       4.017   1.820  17.502  0.00  0.00    +0.000 HD
ENDBRANCH  22  25
ENDBRANCH   4  19
TORSDOF 4
ENDMDL
MODEL 6
REMARK VINA RESULT:      -7.8      1.825      2.154
REMARK  Name = 
REMARK  4 active torsions:
REMARK  status: ('A' for Active; 'I' for Inactive)
REMARK    1  A    between atoms: C_2  and  C_4
REMARK    2  A    between atoms: C_9  and  C_10
REMARK    3  A    between atoms: C_13  and  C_14
REMARK    4  A    between atoms: C_17  and  N_18
REMARK                            x       y       z     vdW  Elec       q    Type
REMARK                         _______ _______ _______ _____ _____    ______ ____
ROOT
ATOM      1  C   UNL     1       2.785   7.244  18.528  0.00  0.00    +0.000 A 
ATOM      2  C   UNL     1       2.543   8.235  17.554  0.00  0.00    +0.000 A 
ATOM      3  C   UNL     1       1.705   9.333  17.803  0.00  0.00    +0.000 A 
ATOM      4  C   UNL     1       1.098   9.517  19.053  0.00  0.00    +0.000 A 
ATOM      5  C   UNL     1       1.353   8.539  20.021  0.00  0.00    +0.000 A 
ATOM      6  F   UNL     1       0.799   8.635  21.241  0.00  0.00    +0.000 F 
ATOM      7  C   UNL     1       2.149   7.419  19.763  0.00  0.00    +0.000 A 
ENDROOT
BRANCH   1  13
ATOM      8  C   UNL     1       3.144   4.735  17.999  0.00  0.00    +0.000 A 
ATOM      9  C   UNL     1       4.039   3.684  17.702  0.00  0.00    +0.000 A 
ATOM     10  C   UNL     1       5.410   3.909  17.614  0.00  0.00    +0.000 A 
ATOM     11  C   UNL     1       5.904   5.187  17.821  0.00  0.00    +0.000 A 
ATOM     12  C   UNL     1       5.026   6.236  18.111  0.00  0.00    +0.000 A 
ATOM     13  C   UNL     1       3.626   6.051  18.222  0.00  0.00    +0.000 A 
BRANCH   8  15
ATOM     14  N   UNL     1       1.291   3.935  19.365  0.00  0.00    +0.000 N 
ATOM     15  C   UNL     1       1.706   4.356  18.126  0.00  0.00    +0.000 C 
ATOM     16  O   UNL     1       0.919   4.404  17.193  0.00  0.00    +0.000 OA
ATOM     17  H   UNL     1       0.329   3.639  19.455  0.00  0.00    +0.000 HD
ATOM     18  H   UNL     1       1.910   3.809  20.154  0.00  0.00    +0.000 HD
ENDBRANCH   8  15
ENDBRANCH   1  13
BRANCH   4  19
ATOM     19  C   UNL     1       0.203  10.654  19.311  0.00  0.00    +0.000 A 
ATOM     20  C   UNL     1       0.579  11.790  20.030  0.00  0.00    +0.000 A 
ATOM     21  N   UNL     1      -0.268  12.812  20.326  0.00  0.00    +0.000 NA
ATOM     22  C   UNL     1      -1.527  12.674  19.882  0.00  0.00    +0.000 A 
ATOM     23  C   UNL     1      -1.909  11.552  19.148  0.00  0.00    +0.000 A 
ATOM     24  N   UNL     1      -1.064  10.541  18.832  0.00  0.00    +0.000 NA
BRANCH  22  25
ATOM     25  N   UNL     1      -2.429  13.670  20.240  0.00  0.00    +0.000 N 
ATOM     26  H   UNL     1      -2.680  13.505  21.213  0.00  0.00    +0.000 HD
ATOM     27  H   UNL     1      -2.047  14.598  20.102  0.00  0.00    +0.000 HD
ENDBRANCH  22  25
ENDBRANCH   4  19
TORSDOF 4
ENDMDL
MODEL 7
REMARK VINA RESULT:      -7.8      1.087      1.325
REMARK  Name = 
REMARK  4 active torsions:
REMARK  status: ('A' for Active; 'I' for Inactive)
REMARK    1  A    between atoms: C_2  and  C_4
REMARK    2  A    between atoms: C_9  and  C_10
REMARK    3  A    between atoms: C_13  and  C_14
REMARK    4  A    between atoms: C_17  and  N_18
REMARK                            x       y       z     vdW  Elec       q    Type
REMARK                         _______ _______ _______ _____ _____    ______ ____
ROOT
ATOM      1  C   UNL     1       2.849   7.123  18.382  0.00  0.00    +0.000 A 
ATOM      2  C   UNL     1       2.367   7.033  19.704  0.00  0.00    +0.000 A 
ATOM      3  C   UNL     1       1.582   8.045  20.281  0.00  0.00    +0.000 A 
ATOM      4  C   UNL     1       1.206   9.180  19.548  0.00  0.00    +0.000 A 
ATOM      5  C   UNL     1       1.674   9.257  18.231  0.00  0.00    +0.000 A 
ATOM      6  F   UNL     1       1.368  10.318  17.467  0.00  0.00    +0.000 F 
ATOM      7  C   UNL     1       2.494   8.274  17.669  0.00  0.00    +0.000 A 
ENDROOT
BRANCH   1  13
ATOM      8  C   UNL     1       3.366   4.719  17.571  0.00  0.00    +0.000 A 
ATOM      9  C   UNL     1       4.290   3.811  17.011  0.00  0.00    +0.000 A 
ATOM     10  C   UNL     1       5.579   4.213  16.675  0.00  0.00    +0.000 A 
ATOM     11  C   UNL     1       5.963   5.526  16.894  0.00  0.00    +0.000 A 
ATOM     12  C   UNL     1       5.054   6.435  17.444  0.00  0.00    +0.000 A 
ATOM     13  C   UNL     1       3.735   6.069  17.812  0.00  0.00    +0.000 A 
BRANCH   8  15
ATOM     14  N   UNL     1       1.977   3.452  19.121  0.00  0.00    +0.000 N 
ATOM     15  C   UNL     1       2.035   4.155  17.944  0.00  0.00    +0.000 C 
ATOM     16  O   UNL     1       1.035   4.293  17.256  0.00  0.00    +0.000 OA
ATOM     17  H   UNL     1       1.092   3.031  19.367  0.00  0.00    +0.000 HD
ATOM     18  H   UNL     1       2.783   3.247  19.696  0.00  0.00    +0.000 HD
ENDBRANCH   8  15
ENDBRANCH   1  13
BRANCH   4  19
ATOM     19  C   UNL     1       0.402  10.251  20.154  0.00  0.00    +0.000 A 
ATOM     20  C   UNL     1      -0.877  10.602  19.719  0.00  0.00    +0.000 A 
ATOM     21  N   UNL     1      -1.594  11.637  20.235  0.00  0.00    +0.000 NA
ATOM     22  C   UNL     1      -0.993  12.331  21.215  0.00  0.00    +0.000 A 
ATOM     23  C   UNL     1       0.276  11.979  21.669  0.00  0.00    +0.000 A 
ATOM     24  N   UNL     1       0.986  10.936  21.173  0.00  0.00    +0.000 NA
BRANCH  22  25
ATOM     25  N   UNL     1      -1.676  13.440  21.703  0.00  0.00    +0.000 N 
ATOM     26  H   UNL     1      -2.363  13.093  22.370  0.00  0.00    +0.000 HD
ATOM     27  H   UNL     1      -1.051  14.117  22.124  0.00  0.00    +0.000 HD
ENDBRANCH  22  25
ENDBRANCH   4  19
TORSDOF 4
ENDMDL
MODEL 8
REMARK VINA RESULT:      -7.7      3.270      7.254
REMARK  Name = 
REMARK  4 active torsions:
REMARK  status: ('A' for Active; 'I' for Inactive)
REMARK    1  A    between atoms: C_2  and  C_4
REMARK    2  A    between atoms: C_9  and  C_10
REMARK    3  A    between atoms: C_13  and  C_14
REMARK    4  A    between atoms: C_17  and  N_18
REMARK                            x       y       z     vdW  Elec       q    Type
REMARK                         _______ _______ _______ _____ _____    ______ ____
ROOT
ATOM      1  C   UNL     1       1.363   9.806  18.920  0.00  0.00    +0.000 A 
ATOM      2  C   UNL     1       1.210   9.001  20.067  0.00  0.00    +0.000 A 
ATOM      3  C   UNL     1       1.763   7.713  20.152  0.00  0.00    +0.000 A 
ATOM      4  C   UNL     1       2.533   7.182  19.107  0.00  0.00    +0.000 A 
ATOM      5  C   UNL     1       2.695   7.991  17.977  0.00  0.00    +0.000 A 
ATOM      6  F   UNL     1       3.409   7.551  16.928  0.00  0.00    +0.000 F 
ATOM      7  C   UNL     1       2.107   9.255  17.870  0.00  0.00    +0.000 A 
ENDROOT
BRANCH   1  13
ATOM      8  C   UNL     1      -0.628  11.386  18.428  0.00  0.00    +0.000 A 
ATOM      9  C   UNL     1      -1.139  12.701  18.389  0.00  0.00    +0.000 A 
ATOM     10  C   UNL     1      -0.349  13.791  18.743  0.00  0.00    +0.000 A 
ATOM     11  C   UNL     1       0.962  13.581  19.140  0.00  0.00    +0.000 A 
ATOM     12  C   UNL     1       1.477  12.282  19.186  0.00  0.00    +0.000 A 
ATOM     13  C   UNL     1       0.713  11.144  18.825  0.00  0.00    +0.000 A 
BRANCH   8  15
ATOM     14  N   UNL     1      -1.625  10.101  16.613  0.00  0.00    +0.000 N 
ATOM     15  C   UNL     1      -1.553  10.308  17.968  0.00  0.00    +0.000 C 
ATOM     16  O   UNL     1      -2.225   9.634  18.734  0.00  0.00    +0.000 OA
ATOM     17  H   UNL     1      -2.277   9.401  16.286  0.00  0.00    +0.000 HD
ATOM     18  H   UNL     1      -1.148  10.672  15.930  0.00  0.00    +0.000 HD
ENDBRANCH   8  15
ENDBRANCH   1  13
BRANCH   4  19
ATOM     19  C   UNL     1       3.096   5.826  19.183  0.00  0.00    +0.000 A 
ATOM     20  C   UNL     1       2.328   4.677  19.377  0.00  0.00    +0.000 A 
ATOM     21  N   UNL     1       2.854   3.430  19.515  0.00  0.00    +0.000 NA
ATOM     22  C   UNL     1       4.194   3.353  19.457  0.00  0.00    +0.000 A 
ATOM     23  C   UNL     1       4.969   4.492  19.247  0.00  0.00    +0.000 A 
ATOM     24  N   UNL     1       4.448   5.733  19.088  0.00  0.00    +0.000 NA
BRANCH  22  25
ATOM     25  N   UNL     1       4.757   2.100  19.673  0.00  0.00    +0.000 N 
ATOM     26  H   UNL     1       5.757   2.193  19.505  0.00  0.00    +0.000 HD
ATOM     27  H   UNL     1       4.563   1.750  20.604  0.00  0.00    +0.000 HD
ENDBRANCH  22  25
ENDBRANCH   4  19
TORSDOF 4
ENDMDL
MODEL 9
REMARK VINA RESULT:      -7.7      2.840      7.849
REMARK  Name = 
REMARK  4 active torsions:
REMARK  status: ('A' for Active; 'I' for Inactive)
REMARK    1  A    between atoms: C_2  and  C_4
REMARK    2  A    between atoms: C_9  and  C_10
REMARK    3  A    between atoms: C_13  and  C_14
REMARK    4  A    between atoms: C_17  and  N_18
REMARK                            x       y       z     vdW  Elec       q    Type
REMARK                         _______ _______ _______ _____ _____    ______ ____
ROOT
ATOM      1  C   UNL     1       0.784   9.720  19.503  0.00  0.00    +0.000 A 
ATOM      2  C   UNL     1       1.291   9.739  18.188  0.00  0.00    +0.000 A 
ATOM      3  C   UNL     1       2.116   8.716  17.694  0.00  0.00    +0.000 A 
ATOM      4  C   UNL     1       2.442   7.601  18.479  0.00  0.00    +0.000 A 
ATOM      5  C   UNL     1       1.924   7.579  19.779  0.00  0.00    +0.000 A 
ATOM      6  F   UNL     1       2.199   6.552  20.599  0.00  0.00    +0.000 F 
ATOM      7  C   UNL     1       1.141   8.618  20.290  0.00  0.00    +0.000 A 
ENDROOT
BRANCH   1  13
ATOM      8  C   UNL     1      -1.211  11.369  19.426  0.00  0.00    +0.000 A 
ATOM      9  C   UNL     1      -1.914  12.435  20.027  0.00  0.00    +0.000 A 
ATOM     10  C   UNL     1      -1.482  12.998  21.224  0.00  0.00    +0.000 A 
ATOM     11  C   UNL     1      -0.341  12.504  21.837  0.00  0.00    +0.000 A 
ATOM     12  C   UNL     1       0.361  11.445  21.252  0.00  0.00    +0.000 A 
ATOM     13  C   UNL     1      -0.036  10.848  20.030  0.00  0.00    +0.000 A 
BRANCH   8  15
ATOM     14  N   UNL     1      -1.619  11.755  17.056  0.00  0.00    +0.000 N 
ATOM     15  C   UNL     1      -1.738  10.891  18.115  0.00  0.00    +0.000 C 
ATOM     16  O   UNL     1      -2.257   9.795  17.964  0.00  0.00    +0.000 OA
ATOM     17  H   UNL     1      -2.007  11.460  16.170  0.00  0.00    +0.000 HD
ATOM     18  H   UNL     1      -1.263  12.698  17.135  0.00  0.00    +0.000 HD
ENDBRANCH   8  15
ENDBRANCH   1  13
BRANCH   4  19
ATOM     19  C   UNL     1       3.322   6.538  17.972  0.00  0.00    +0.000 A 
ATOM     20  C   UNL     1       4.617   6.762  17.502  0.00  0.00    +0.000 A 
ATOM     21  N   UNL     1       5.407   5.789  16.971  0.00  0.00    +0.000 NA
ATOM     22  C   UNL     1       4.864   4.562  16.915  0.00  0.00    +0.000 A 
ATOM     23  C   UNL     1       3.579   4.325  17.398  0.00  0.00    +0.000 A 
ATOM     24  N   UNL     1       2.796   5.285  17.947  0.00  0.00    +0.000 NA
BRANCH  22  25
ATOM     25  N   UNL     1       5.624   3.570  16.305  0.00  0.00    +0.000 N 
ATOM     26  H   UNL     1       6.543   3.591  16.744  0.00  0.00    +0.000 HD
ATOM     27  H   UNL     1       5.191   2.658  16.380  0.00  0.00    +0.000 HD
ENDBRANCH  22  25
ENDBRANCH   4  19
TORSDOF 4
ENDMDL
