MODEL 1
REMARK VINA RESULT:      -9.0      0.000      0.000
REMARK  Name = 
REMARK  6 active torsions:
REMARK  status: ('A' for Active; 'I' for Inactive)
REMARK    1  A    between atoms: C_1  and  C_2
REMARK    2  A    between atoms: C_5  and  S_6
REMARK    3  A    between atoms: S_6  and  N_9
REMARK    4  A    between atoms: C_13  and  C_14
REMARK    5  A    between atoms: C_14  and  N_15
REMARK    6  A    between atoms: C_16  and  C_18
REMARK                            x       y       z     vdW  Elec       q    Type
REMARK                         _______ _______ _______ _____ _____    ______ ____
ROOT
ATOM      1  N   UNL     1       2.664   3.309  19.312  0.00  0.00    +0.000 NA
ATOM      2  C   UNL     1       3.427   2.789  20.443  0.00  0.00    +0.000 C 
ATOM      3  C   UNL     1       2.358   2.770  21.522  0.00  0.00    +0.000 C 
ATOM      4  C   UNL     1       1.561   4.050  21.272  0.00  0.00    +0.000 C 
ATOM      5  C   UNL     1       1.773   4.400  19.779  0.00  0.00    +0.000 C 
ENDROOT
BRANCH   1   6
ATOM      6  S   UNL     1       3.208   3.183  17.742  0.00  0.00    +0.000 S 
ATOM      7  O   UNL     1       2.141   3.645  16.884  0.00  0.00    +0.000 OA
ATOM      8  O   UNL     1       3.813   1.882  17.552  0.00  0.00    +0.000 OA
BRANCH   6  13
ATOM      9  C   UNL     1       7.614   7.385  17.651  0.00  0.00    +0.000 C 
ATOM     10  C   UNL     1       6.544   6.329  17.645  0.00  0.00    +0.000 A 
ATOM     11  C   UNL     1       5.513   6.353  16.696  0.00  0.00    +0.000 A 
ATOM     12  C   UNL     1       4.505   5.385  16.719  0.00  0.00    +0.000 A 
ATOM     13  C   UNL     1       4.526   4.384  17.696  0.00  0.00    +0.000 A 
ATOM     14  C   UNL     1       5.553   4.342  18.642  0.00  0.00    +0.000 A 
ATOM     15  C   UNL     1       6.556   5.317  18.615  0.00  0.00    +0.000 A 
ENDBRANCH   6  13
ENDBRANCH   1   6
BRANCH   5  16
ATOM     16  C   UNL     1       2.397   5.812  19.610  0.00  0.00    +0.000 C 
BRANCH  16  17
ATOM     17  N   UNL     1       1.904   6.814  20.557  0.00  0.00    +0.000 N 
ATOM     18  C   UNL     1       1.663   8.099  20.127  0.00  0.00    +0.000 C 
ATOM     19  O   UNL     1       1.821   8.439  18.960  0.00  0.00    +0.000 OA
ATOM     20  H   UNL     1       2.012   6.638  21.547  0.00  0.00    +0.000 HD
BRANCH  18  21
ATOM     21  C   UNL     1       1.143   9.098  21.100  0.00  0.00    +0.000 A 
ATOM     22  C   UNL     1       0.758   8.759  22.420  0.00  0.00    +0.000 A 
ATOM     23  C   UNL     1      -0.089   9.611  23.147  0.00  0.00    +0.000 A 
ATOM     24  C   UNL     1      -0.542  10.745  22.508  0.00  0.00    +0.000 A 
ATOM     25  C   UNL     1      -0.076  11.120  21.266  0.00  0.00    +0.000 A 
ATOM     26  C   UNL     1       0.794  10.341  20.553  0.00  0.00    +0.000 A 
ATOM     27  O   UNL     1      -0.734  12.209  20.775  0.00  0.00    +0.000 OA
ATOM     28  C   UNL     1      -1.895  12.142  21.623  0.00  0.00    +0.000 C 
ATOM     29  O   UNL     1      -1.586  11.534  22.899  0.00  0.00    +0.000 OA
ENDBRANCH  18  21
ENDBRANCH  16  17
ENDBRANCH   5  16
TORSDOF 5
ENDMDL
MODEL 2
REMARK VINA RESULT:      -8.8      5.105      8.186
REMARK  Name = 
REMARK  6 active torsions:
REMARK  status: ('A' for Active; 'I' for Inactive)
REMARK    1  A    between atoms: C_1  and  C_2
REMARK    2  A    between atoms: C_5  and  S_6
REMARK    3  A    between atoms: S_6  and  N_9
REMARK    4  A    between atoms: C_13  and  C_14
REMARK    5  A    between atoms: C_14  and  N_15
REMARK    6  A    between atoms: C_16  and  C_18
REMARK                            x       y       z     vdW  Elec       q    Type
REMARK                         _______ _______ _______ _____ _____    ______ ____
ROOT
ATOM      1  N   UNL     1       6.273   5.706  17.429  0.00  0.00    +0.000 NA
ATOM      2  C   UNL     1       7.273   4.714  17.045  0.00  0.00    +0.000 C 
ATOM      3  C   UNL     1       8.001   4.520  18.364  0.00  0.00    +0.000 C 
ATOM      4  C   UNL     1       8.069   5.926  18.958  0.00  0.00    +0.000 C 
ATOM      5  C   UNL     1       6.897   6.715  18.322  0.00  0.00    +0.000 C 
ENDROOT
BRANCH   1   6
ATOM      6  S   UNL     1       4.932   6.022  16.494  0.00  0.00    +0.000 S 
ATOM      7  O   UNL     1       5.236   5.584  15.151  0.00  0.00    +0.000 OA
ATOM      8  O   UNL     1       4.476   7.371  16.757  0.00  0.00    +0.000 OA
BRANCH   6  13
ATOM      9  C   UNL     1       0.874   2.215  18.967  0.00  0.00    +0.000 C 
ATOM     10  C   UNL     1       1.858   3.151  18.322  0.00  0.00    +0.000 A 
ATOM     11  C   UNL     1       2.938   2.659  17.577  0.00  0.00    +0.000 A 
ATOM     12  C   UNL     1       3.866   3.537  17.009  0.00  0.00    +0.000 A 
ATOM     13  C   UNL     1       3.714   4.916  17.184  0.00  0.00    +0.000 A 
ATOM     14  C   UNL     1       2.636   5.421  17.916  0.00  0.00    +0.000 A 
ATOM     15  C   UNL     1       1.714   4.536  18.485  0.00  0.00    +0.000 A 
ENDBRANCH   6  13
ENDBRANCH   1   6
BRANCH   5  16
ATOM     16  C   UNL     1       7.403   7.972  17.563  0.00  0.00    +0.000 C 
BRANCH  16  17
ATOM     17  N   UNL     1       8.503   8.679  18.222  0.00  0.00    +0.000 N 
ATOM     18  C   UNL     1       8.599  10.048  18.109  0.00  0.00    +0.000 C 
ATOM     19  O   UNL     1       7.773  10.712  17.494  0.00  0.00    +0.000 OA
ATOM     20  H   UNL     1       9.318   8.150  18.506  0.00  0.00    +0.000 HD
BRANCH  18  21
ATOM     21  C   UNL     1       9.712  10.751  18.803  0.00  0.00    +0.000 A 
ATOM     22  C   UNL     1       9.686  11.057  20.186  0.00  0.00    +0.000 A 
ATOM     23  C   UNL     1      10.531  12.053  20.702  0.00  0.00    +0.000 A 
ATOM     24  C   UNL     1      11.337  12.722  19.807  0.00  0.00    +0.000 A 
ATOM     25  C   UNL     1      11.434  12.342  18.485  0.00  0.00    +0.000 A 
ATOM     26  C   UNL     1      10.665  11.339  17.961  0.00  0.00    +0.000 A 
ATOM     27  O   UNL     1      12.200  13.203  17.756  0.00  0.00    +0.000 OA
ATOM     28  C   UNL     1      12.155  14.326  18.655  0.00  0.00    +0.000 C 
ATOM     29  O   UNL     1      11.993  13.899  20.028  0.00  0.00    +0.000 OA
ENDBRANCH  18  21
ENDBRANCH  16  17
ENDBRANCH   5  16
TORSDOF 5
ENDMDL
MODEL 3
REMARK VINA RESULT:      -8.6      1.088      1.327
REMARK  Name = 
REMARK  6 active torsions:
REMARK  status: ('A' for Active; 'I' for Inactive)
REMARK    1  A    between atoms: C_1  and  C_2
REMARK    2  A    between atoms: C_5  and  S_6
REMARK    3  A    between atoms: S_6  and  N_9
REMARK    4  A    between atoms: C_13  and  C_14
REMARK    5  A    between atoms: C_14  and  N_15
REMARK    6  A    between atoms: C_16  and  C_18
REMARK                            x       y       z     vdW  Elec       q    Type
REMARK                         _______ _______ _______ _____ _____    ______ ____
ROOT
ATOM      1  N   UNL     1       2.575   3.364  19.200  0.00  0.00    +0.000 NA
ATOM      2  C   UNL     1       3.113   2.866  20.463  0.00  0.00    +0.000 C 
ATOM      3  C   UNL     1       1.919   3.068  21.379  0.00  0.00    +0.000 C 
ATOM      4  C   UNL     1       1.328   4.403  20.925  0.00  0.00    +0.000 C 
ATOM      5  C   UNL     1       1.775   4.589  19.454  0.00  0.00    +0.000 C 
ENDROOT
BRANCH   1   6
ATOM      6  S   UNL     1       3.298   3.034  17.736  0.00  0.00    +0.000 S 
ATOM      7  O   UNL     1       2.333   3.341  16.706  0.00  0.00    +0.000 OA
ATOM      8  O   UNL     1       3.936   1.736  17.803  0.00  0.00    +0.000 OA
BRANCH   6  13
ATOM      9  C   UNL     1       7.640   7.299  17.554  0.00  0.00    +0.000 C 
ATOM     10  C   UNL     1       6.589   6.225  17.574  0.00  0.00    +0.000 A 
ATOM     11  C   UNL     1       5.626   6.141  16.558  0.00  0.00    +0.000 A 
ATOM     12  C   UNL     1       4.633   5.158  16.603  0.00  0.00    +0.000 A 
ATOM     13  C   UNL     1       4.600   4.252  17.668  0.00  0.00    +0.000 A 
ATOM     14  C   UNL     1       5.559   4.319  18.682  0.00  0.00    +0.000 A 
ATOM     15  C   UNL     1       6.547   5.307  18.633  0.00  0.00    +0.000 A 
ENDBRANCH   6  13
ENDBRANCH   1   6
BRANCH   5  16
ATOM     16  C   UNL     1       2.589   5.898  19.268  0.00  0.00    +0.000 C 
BRANCH  16  17
ATOM     17  N   UNL     1       1.940   7.099  19.800  0.00  0.00    +0.000 N 
ATOM     18  C   UNL     1       1.831   8.221  19.010  0.00  0.00    +0.000 C 
ATOM     19  O   UNL     1       2.235   8.249  17.853  0.00  0.00    +0.000 OA
ATOM     20  H   UNL     1       1.838   7.190  20.802  0.00  0.00    +0.000 HD
BRANCH  18  21
ATOM     21  C   UNL     1       1.150   9.425  19.561  0.00  0.00    +0.000 A 
ATOM     22  C   UNL     1       0.773   9.541  20.921  0.00  0.00    +0.000 A 
ATOM     23  C   UNL     1      -0.204  10.475  21.303  0.00  0.00    +0.000 A 
ATOM     24  C   UNL     1      -0.784  11.225  20.303  0.00  0.00    +0.000 A 
ATOM     25  C   UNL     1      -0.333  11.182  19.001  0.00  0.00    +0.000 A 
ATOM     26  C   UNL     1       0.656  10.322  18.604  0.00  0.00    +0.000 A 
ATOM     27  O   UNL     1      -1.115  11.916  18.159  0.00  0.00    +0.000 OA
ATOM     28  C   UNL     1      -2.283  12.005  18.994  0.00  0.00    +0.000 C 
ATOM     29  O   UNL     1      -1.936  11.952  20.398  0.00  0.00    +0.000 OA
ENDBRANCH  18  21
ENDBRANCH  16  17
ENDBRANCH   5  16
TORSDOF 5
ENDMDL
MODEL 4
REMARK VINA RESULT:      -8.5      2.114      2.850
REMARK  Name = 
REMARK  6 active torsions:
REMARK  status: ('A' for Active; 'I' for Inactive)
REMARK    1  A    between atoms: C_1  and  C_2
REMARK    2  A    between atoms: C_5  and  S_6
REMARK    3  A    between atoms: S_6  and  N_9
REMARK    4  A    between atoms: C_13  and  C_14
REMARK    5  A    between atoms: C_14  and  N_15
REMARK    6  A    between atoms: C_16  and  C_18
REMARK                            x       y       z     vdW  Elec       q    Type
REMARK                         _______ _______ _______ _____ _____    ______ ____
ROOT
ATOM      1  N   UNL     1       3.551   4.541  18.809  0.00  0.00    +0.000 NA
ATOM      2  C   UNL     1       2.620   4.360  19.919  0.00  0.00    +0.000 C 
ATOM      3  C   UNL     1       1.310   4.195  19.167  0.00  0.00    +0.000 C 
ATOM      4  C   UNL     1       1.417   5.197  18.018  0.00  0.00    +0.000 C 
ATOM      5  C   UNL     1       2.932   5.419  17.785  0.00  0.00    +0.000 C 
ENDROOT
BRANCH   1   6
ATOM      6  S   UNL     1       5.198   4.380  18.997  0.00  0.00    +0.000 S 
ATOM      7  O   UNL     1       5.445   3.030  19.450  0.00  0.00    +0.000 OA
ATOM      8  O   UNL     1       5.706   5.521  19.729  0.00  0.00    +0.000 OA
BRANCH   6  13
ATOM      9  C   UNL     1       7.351   4.808  13.318  0.00  0.00    +0.000 C 
ATOM     10  C   UNL     1       6.797   4.733  14.713  0.00  0.00    +0.000 A 
ATOM     11  C   UNL     1       7.289   5.565  15.729  0.00  0.00    +0.000 A 
ATOM     12  C   UNL     1       6.789   5.465  17.031  0.00  0.00    +0.000 A 
ATOM     13  C   UNL     1       5.791   4.529  17.321  0.00  0.00    +0.000 A 
ATOM     14  C   UNL     1       5.286   3.700  16.317  0.00  0.00    +0.000 A 
ATOM     15  C   UNL     1       5.793   3.803  15.017  0.00  0.00    +0.000 A 
ENDBRANCH   6  13
ENDBRANCH   1   6
BRANCH   5  16
ATOM     16  C   UNL     1       3.319   6.914  17.949  0.00  0.00    +0.000 C 
BRANCH  16  17
ATOM     17  N   UNL     1       2.446   7.675  18.846  0.00  0.00    +0.000 N 
ATOM     18  C   UNL     1       1.919   8.876  18.428  0.00  0.00    +0.000 C 
ATOM     19  O   UNL     1       2.130   9.329  17.309  0.00  0.00    +0.000 OA
ATOM     20  H   UNL     1       2.466   7.464  19.835  0.00  0.00    +0.000 HD
BRANCH  18  21
ATOM     21  C   UNL     1       1.017   9.625  19.346  0.00  0.00    +0.000 A 
ATOM     22  C   UNL     1       1.060  11.033  19.487  0.00  0.00    +0.000 A 
ATOM     23  C   UNL     1       0.506  11.644  20.624  0.00  0.00    +0.000 A 
ATOM     24  C   UNL     1      -0.032  10.815  21.585  0.00  0.00    +0.000 A 
ATOM     25  C   UNL     1      -0.166   9.457  21.388  0.00  0.00    +0.000 A 
ATOM     26  C   UNL     1       0.312   8.837  20.266  0.00  0.00    +0.000 A 
ATOM     27  O   UNL     1      -0.620   8.817  22.503  0.00  0.00    +0.000 OA
ATOM     28  C   UNL     1      -0.303   9.838  23.466  0.00  0.00    +0.000 C 
ATOM     29  O   UNL     1      -0.338  11.157  22.871  0.00  0.00    +0.000 OA
ENDBRANCH  18  21
ENDBRANCH  16  17
ENDBRANCH   5  16
TORSDOF 5
ENDMDL
MODEL 5
REMARK VINA RESULT:      -8.5      4.991      8.044
REMARK  Name = 
REMARK  6 active torsions:
REMARK  status: ('A' for Active; 'I' for Inactive)
REMARK    1  A    between atoms: C_1  and  C_2
REMARK    2  A    between atoms: C_5  and  S_6
REMARK    3  A    between atoms: S_6  and  N_9
REMARK    4  A    between atoms: C_13  and  C_14
REMARK    5  A    between atoms: C_14  and  N_15
REMARK    6  A    between atoms: C_16  and  C_18
REMARK                            x       y       z     vdW  Elec       q    Type
REMARK                         _______ _______ _______ _____ _____    ______ ____
ROOT
ATOM      1  N   UNL     1       6.284   5.546  17.408  0.00  0.00    +0.000 NA
ATOM      2  C   UNL     1       7.325   4.625  16.962  0.00  0.00    +0.000 C 
ATOM      3  C   UNL     1       8.102   4.429  18.251  0.00  0.00    +0.000 C 
ATOM      4  C   UNL     1       8.110   5.818  18.891  0.00  0.00    +0.000 C 
ATOM      5  C   UNL     1       6.877   6.559  18.316  0.00  0.00    +0.000 C 
ENDROOT
BRANCH   1   6
ATOM      6  S   UNL     1       4.899   5.816  16.522  0.00  0.00    +0.000 S 
ATOM      7  O   UNL     1       4.412   4.526  16.089  0.00  0.00    +0.000 OA
ATOM      8  O   UNL     1       5.142   6.882  15.574  0.00  0.00    +0.000 OA
BRANCH   6  13
ATOM      9  C   UNL     1       1.191   8.043  20.808  0.00  0.00    +0.000 C 
ATOM     10  C   UNL     1       2.077   7.472  19.737  0.00  0.00    +0.000 A 
ATOM     11  C   UNL     1       2.658   6.205  19.882  0.00  0.00    +0.000 A 
ATOM     12  C   UNL     1       3.507   5.696  18.894  0.00  0.00    +0.000 A 
ATOM     13  C   UNL     1       3.776   6.457  17.752  0.00  0.00    +0.000 A 
ATOM     14  C   UNL     1       3.196   7.717  17.589  0.00  0.00    +0.000 A 
ATOM     15  C   UNL     1       2.351   8.221  18.584  0.00  0.00    +0.000 A 
ENDBRANCH   6  13
ENDBRANCH   1   6
BRANCH   5  16
ATOM     16  C   UNL     1       7.290   7.866  17.586  0.00  0.00    +0.000 C 
BRANCH  16  17
ATOM     17  N   UNL     1       8.402   8.587  18.209  0.00  0.00    +0.000 N 
ATOM     18  C   UNL     1       8.488   9.955  18.077  0.00  0.00    +0.000 C 
ATOM     19  O   UNL     1       7.644  10.608  17.474  0.00  0.00    +0.000 OA
ATOM     20  H   UNL     1       9.226   8.066  18.479  0.00  0.00    +0.000 HD
BRANCH  18  21
ATOM     21  C   UNL     1       9.614  10.672  18.735  0.00  0.00    +0.000 A 
ATOM     22  C   UNL     1       9.668  10.903  20.131  0.00  0.00    +0.000 A 
ATOM     23  C   UNL     1      10.503  11.909  20.646  0.00  0.00    +0.000 A 
ATOM     24  C   UNL     1      11.217  12.661  19.738  0.00  0.00    +0.000 A 
ATOM     25  C   UNL     1      11.240  12.356  18.394  0.00  0.00    +0.000 A 
ATOM     26  C   UNL     1      10.482  11.347  17.866  0.00  0.00    +0.000 A 
ATOM     27  O   UNL     1      11.918  13.289  17.665  0.00  0.00    +0.000 OA
ATOM     28  C   UNL     1      11.885  14.359  18.626  0.00  0.00    +0.000 C 
ATOM     29  O   UNL     1      11.836  13.854  19.981  0.00  0.00    +0.000 OA
ENDBRANCH  18  21
ENDBRANCH  16  17
ENDBRANCH   5  16
TORSDOF 5
ENDMDL
MODEL 6
REMARK VINA RESULT:      -8.5      2.170      2.874
REMARK  Name = 
REMARK  6 active torsions:
REMARK  status: ('A' for Active; 'I' for Inactive)
REMARK    1  A    between atoms: C_1  and  C_2
REMARK    2  A    between atoms: C_5  and  S_6
REMARK    3  A    between atoms: S_6  and  N_9
REMARK    4  A    between atoms: C_13  and  C_14
REMARK    5  A    between atoms: C_14  and  N_15
REMARK    6  A    between atoms: C_16  and  C_18
REMARK                            x       y       z     vdW  Elec       q    Type
REMARK                         _______ _______ _______ _____ _____    ______ ____
ROOT
ATOM      1  N   UNL     1       3.538   4.476  18.739  0.00  0.00    +0.000 NA
ATOM      2  C   UNL     1       2.590   4.121  19.792  0.00  0.00    +0.000 C 
ATOM      3  C   UNL     1       1.304   4.012  18.991  0.00  0.00    +0.000 C 
ATOM      4  C   UNL     1       1.400   5.159  17.984  0.00  0.00    +0.000 C 
ATOM      5  C   UNL     1       2.910   5.459  17.822  0.00  0.00    +0.000 C 
ENDROOT
BRANCH   1   6
ATOM      6  S   UNL     1       5.186   4.346  18.948  0.00  0.00    +0.000 S 
ATOM      7  O   UNL     1       5.454   2.997  19.392  0.00  0.00    +0.000 OA
ATOM      8  O   UNL     1       5.661   5.490  19.697  0.00  0.00    +0.000 OA
BRANCH   6  13
ATOM      9  C   UNL     1       7.392   4.849  13.295  0.00  0.00    +0.000 C 
ATOM     10  C   UNL     1       6.829   4.759  14.686  0.00  0.00    +0.000 A 
ATOM     11  C   UNL     1       7.426   5.448  15.751  0.00  0.00    +0.000 A 
ATOM     12  C   UNL     1       6.914   5.332  17.046  0.00  0.00    +0.000 A 
ATOM     13  C   UNL     1       5.798   4.522  17.282  0.00  0.00    +0.000 A 
ATOM     14  C   UNL     1       5.188   3.837  16.228  0.00  0.00    +0.000 A 
ATOM     15  C   UNL     1       5.708   3.956  14.935  0.00  0.00    +0.000 A 
ENDBRANCH   6  13
ENDBRANCH   1   6
BRANCH   5  16
ATOM     16  C   UNL     1       3.240   6.932  18.188  0.00  0.00    +0.000 C 
BRANCH  16  17
ATOM     17  N   UNL     1       2.149   7.655  18.845  0.00  0.00    +0.000 N 
ATOM     18  C   UNL     1       1.722   8.859  18.331  0.00  0.00    +0.000 C 
ATOM     19  O   UNL     1       2.205   9.345  17.315  0.00  0.00    +0.000 OA
ATOM     20  H   UNL     1       1.917   7.417  19.800  0.00  0.00    +0.000 HD
BRANCH  18  21
ATOM     21  C   UNL     1       0.598   9.569  19.001  0.00  0.00    +0.000 A 
ATOM     22  C   UNL     1      -0.459  10.184  18.286  0.00  0.00    +0.000 A 
ATOM     23  C   UNL     1      -1.249  11.166  18.904  0.00  0.00    +0.000 A 
ATOM     24  C   UNL     1      -0.922  11.515  20.197  0.00  0.00    +0.000 A 
ATOM     25  C   UNL     1       0.035  10.836  20.919  0.00  0.00    +0.000 A 
ATOM     26  C   UNL     1       0.786   9.835  20.364  0.00  0.00    +0.000 A 
ATOM     27  O   UNL     1       0.275  11.413  22.131  0.00  0.00    +0.000 OA
ATOM     28  C   UNL     1      -0.286  12.708  21.852  0.00  0.00    +0.000 C 
ATOM     29  O   UNL     1      -1.344  12.628  20.868  0.00  0.00    +0.000 OA
ENDBRANCH  18  21
ENDBRANCH  16  17
ENDBRANCH   5  16
TORSDOF 5
ENDMDL
MODEL 7
REMARK VINA RESULT:      -8.4      2.663      3.282
REMARK  Name = 
REMARK  6 active torsions:
REMARK  status: ('A' for Active; 'I' for Inactive)
REMARK    1  A    between atoms: C_1  and  C_2
REMARK    2  A    between atoms: C_5  and  S_6
REMARK    3  A    between atoms: S_6  and  N_9
REMARK    4  A    between atoms: C_13  and  C_14
REMARK    5  A    between atoms: C_14  and  N_15
REMARK    6  A    between atoms: C_16  and  C_18
REMARK                            x       y       z     vdW  Elec       q    Type
REMARK                         _______ _______ _______ _____ _____    ______ ____
ROOT
ATOM      1  N   UNL     1       4.025   4.655  17.913  0.00  0.00    +0.000 NA
ATOM      2  C   UNL     1       3.648   3.379  18.515  0.00  0.00    +0.000 C 
ATOM      3  C   UNL     1       2.235   3.220  17.983  0.00  0.00    +0.000 C 
ATOM      4  C   UNL     1       1.660   4.636  18.038  0.00  0.00    +0.000 C 
ATOM      5  C   UNL     1       2.876   5.592  17.988  0.00  0.00    +0.000 C 
ENDROOT
BRANCH   1   6
ATOM      6  S   UNL     1       5.610   5.159  17.821  0.00  0.00    +0.000 S 
ATOM      7  O   UNL     1       6.383   4.295  18.683  0.00  0.00    +0.000 OA
ATOM      8  O   UNL     1       5.658   6.599  17.966  0.00  0.00    +0.000 OA
BRANCH   6  13
ATOM      9  C   UNL     1       6.958   4.018  11.994  0.00  0.00    +0.000 C 
ATOM     10  C   UNL     1       6.635   4.263  13.442  0.00  0.00    +0.000 A 
ATOM     11  C   UNL     1       5.418   3.838  13.991  0.00  0.00    +0.000 A 
ATOM     12  C   UNL     1       5.114   4.100  15.330  0.00  0.00    +0.000 A 
ATOM     13  C   UNL     1       6.032   4.791  16.128  0.00  0.00    +0.000 A 
ATOM     14  C   UNL     1       7.253   5.211  15.596  0.00  0.00    +0.000 A 
ATOM     15  C   UNL     1       7.549   4.949  14.255  0.00  0.00    +0.000 A 
ENDBRANCH   6  13
ENDBRANCH   1   6
BRANCH   5  16
ATOM     16  C   UNL     1       2.924   6.518  19.234  0.00  0.00    +0.000 C 
BRANCH  16  17
ATOM     17  N   UNL     1       2.203   7.784  19.080  0.00  0.00    +0.000 N 
ATOM     18  C   UNL     1       1.505   8.305  20.146  0.00  0.00    +0.000 C 
ATOM     19  O   UNL     1       1.485   7.760  21.244  0.00  0.00    +0.000 OA
ATOM     20  H   UNL     1       1.992   8.110  18.146  0.00  0.00    +0.000 HD
BRANCH  18  21
ATOM     21  C   UNL     1       0.796   9.603  19.977  0.00  0.00    +0.000 A 
ATOM     22  C   UNL     1       0.448  10.437  21.067  0.00  0.00    +0.000 A 
ATOM     23  C   UNL     1      -0.551  11.412  20.916  0.00  0.00    +0.000 A 
ATOM     24  C   UNL     1      -1.181  11.484  19.692  0.00  0.00    +0.000 A 
ATOM     25  C   UNL     1      -0.761  10.743  18.608  0.00  0.00    +0.000 A 
ATOM     26  C   UNL     1       0.247   9.823  18.706  0.00  0.00    +0.000 A 
ATOM     27  O   UNL     1      -1.589  10.885  17.534  0.00  0.00    +0.000 OA
ATOM     28  C   UNL     1      -2.738  11.397  18.231  0.00  0.00    +0.000 C 
ATOM     29  O   UNL     1      -2.356  12.126  19.421  0.00  0.00    +0.000 OA
ENDBRANCH  18  21
ENDBRANCH  16  17
ENDBRANCH   5  16
TORSDOF 5
ENDMDL
MODEL 8
REMARK VINA RESULT:      -8.2      3.102      9.263
REMARK  Name = 
REMARK  6 active torsions:
REMARK  status: ('A' for Active; 'I' for Inactive)
REMARK    1  A    between atoms: C_1  and  C_2
REMARK    2  A    between atoms: C_5  and  S_6
REMARK    3  A    between atoms: S_6  and  N_9
REMARK    4  A    between atoms: C_13  and  C_14
REMARK    5  A    between atoms: C_14  and  N_15
REMARK    6  A    between atoms: C_16  and  C_18
REMARK                            x       y       z     vdW  Elec       q    Type
REMARK                         _______ _______ _______ _____ _____    ______ ____
ROOT
ATOM      1  N   UNL     1      -0.374  11.399  20.005  0.00  0.00    +0.000 NA
ATOM      2  C   UNL     1      -0.720  12.478  19.085  0.00  0.00    +0.000 C 
ATOM      3  C   UNL     1      -1.739  11.782  18.201  0.00  0.00    +0.000 C 
ATOM      4  C   UNL     1      -1.173  10.372  18.026  0.00  0.00    +0.000 C 
ATOM      5  C   UNL     1      -0.257  10.126  19.250  0.00  0.00    +0.000 C 
ENDROOT
BRANCH   1   6
ATOM      6  S   UNL     1       0.412  11.679  21.447  0.00  0.00    +0.000 S 
ATOM      7  O   UNL     1       1.501  12.587  21.170  0.00  0.00    +0.000 OA
ATOM      8  O   UNL     1       0.642  10.415  22.116  0.00  0.00    +0.000 OA
BRANCH   6  13
ATOM      9  C   UNL     1      -3.852  14.728  24.545  0.00  0.00    +0.000 C 
ATOM     10  C   UNL     1      -2.779  13.971  23.813  0.00  0.00    +0.000 A 
ATOM     11  C   UNL     1      -1.598  14.608  23.407  0.00  0.00    +0.000 A 
ATOM     12  C   UNL     1      -0.621  13.903  22.698  0.00  0.00    +0.000 A 
ATOM     13  C   UNL     1      -0.823  12.553  22.393  0.00  0.00    +0.000 A 
ATOM     14  C   UNL     1      -1.991  11.903  22.801  0.00  0.00    +0.000 A 
ATOM     15  C   UNL     1      -2.966  12.616  23.506  0.00  0.00    +0.000 A 
ENDBRANCH   6  13
ENDBRANCH   1   6
BRANCH   5  16
ATOM     16  C   UNL     1       1.199   9.806  18.815  0.00  0.00    +0.000 C 
BRANCH  16  17
ATOM     17  N   UNL     1       1.659   8.461  19.169  0.00  0.00    +0.000 N 
ATOM     18  C   UNL     1       2.423   7.745  18.276  0.00  0.00    +0.000 C 
ATOM     19  O   UNL     1       2.764   8.204  17.192  0.00  0.00    +0.000 OA
ATOM     20  H   UNL     1       1.190   7.971  19.919  0.00  0.00    +0.000 HD
BRANCH  18  21
ATOM     21  C   UNL     1       2.898   6.388  18.661  0.00  0.00    +0.000 A 
ATOM     22  C   UNL     1       3.317   5.421  17.714  0.00  0.00    +0.000 A 
ATOM     23  C   UNL     1       3.359   4.063  18.067  0.00  0.00    +0.000 A 
ATOM     24  C   UNL     1       2.946   3.729  19.339  0.00  0.00    +0.000 A 
ATOM     25  C   UNL     1       2.646   4.685  20.285  0.00  0.00    +0.000 A 
ATOM     26  C   UNL     1       2.649   6.022  19.991  0.00  0.00    +0.000 A 
ATOM     27  O   UNL     1       2.157   4.138  21.434  0.00  0.00    +0.000 OA
ATOM     28  C   UNL     1       1.785   2.854  20.905  0.00  0.00    +0.000 C 
ATOM     29  O   UNL     1       2.621   2.480  19.784  0.00  0.00    +0.000 OA
ENDBRANCH  18  21
ENDBRANCH  16  17
ENDBRANCH   5  16
TORSDOF 5
ENDMDL
MODEL 9
REMARK VINA RESULT:      -8.2      1.263      1.858
REMARK  Name = 
REMARK  6 active torsions:
REMARK  status: ('A' for Active; 'I' for Inactive)
REMARK    1  A    between atoms: C_1  and  C_2
REMARK    2  A    between atoms: C_5  and  S_6
REMARK    3  A    between atoms: S_6  and  N_9
REMARK    4  A    between atoms: C_13  and  C_14
REMARK    5  A    between atoms: C_14  and  N_15
REMARK    6  A    between atoms: C_16  and  C_18
REMARK                            x       y       z     vdW  Elec       q    Type
REMARK                         _______ _______ _______ _____ _____    ______ ____
ROOT
ATOM      1  N   UNL     1       2.609   3.742  19.155  0.00  0.00    +0.000 NA
ATOM      2  C   UNL     1       3.038   3.250  20.461  0.00  0.00    +0.000 C 
ATOM      3  C   UNL     1       1.804   3.546  21.295  0.00  0.00    +0.000 C 
ATOM      4  C   UNL     1       1.321   4.899  20.771  0.00  0.00    +0.000 C 
ATOM      5  C   UNL     1       1.868   5.016  19.327  0.00  0.00    +0.000 C 
ENDROOT
BRANCH   1   6
ATOM      6  S   UNL     1       3.400   3.330  17.748  0.00  0.00    +0.000 S 
ATOM      7  O   UNL     1       2.484   3.574  16.657  0.00  0.00    +0.000 OA
ATOM      8  O   UNL     1       4.034   2.039  17.920  0.00  0.00    +0.000 OA
BRANCH   6  13
ATOM      9  C   UNL     1       7.753   7.582  17.547  0.00  0.00    +0.000 C 
ATOM     10  C   UNL     1       6.698   6.512  17.569  0.00  0.00    +0.000 A 
ATOM     11  C   UNL     1       5.684   6.480  16.602  0.00  0.00    +0.000 A 
ATOM     12  C   UNL     1       4.688   5.501  16.650  0.00  0.00    +0.000 A 
ATOM     13  C   UNL     1       4.704   4.544  17.671  0.00  0.00    +0.000 A 
ATOM     14  C   UNL     1       5.714   4.558  18.636  0.00  0.00    +0.000 A 
ATOM     15  C   UNL     1       6.705   5.544  18.583  0.00  0.00    +0.000 A 
ENDBRANCH   6  13
ENDBRANCH   1   6
BRANCH   5  16
ATOM     16  C   UNL     1       2.767   6.272  19.160  0.00  0.00    +0.000 C 
BRANCH  16  17
ATOM     17  N   UNL     1       2.087   7.545  19.411  0.00  0.00    +0.000 N 
ATOM     18  C   UNL     1       2.076   8.516  18.436  0.00  0.00    +0.000 C 
ATOM     19  O   UNL     1       2.595   8.347  17.338  0.00  0.00    +0.000 OA
ATOM     20  H   UNL     1       1.886   7.805  20.368  0.00  0.00    +0.000 HD
BRANCH  18  21
ATOM     21  C   UNL     1       1.363   9.795  18.701  0.00  0.00    +0.000 A 
ATOM     22  C   UNL     1       1.848  11.052  18.263  0.00  0.00    +0.000 A 
ATOM     23  C   UNL     1       1.388  12.233  18.867  0.00  0.00    +0.000 A 
ATOM     24  C   UNL     1       0.492  12.102  19.906  0.00  0.00    +0.000 A 
ATOM     25  C   UNL     1      -0.055  10.884  20.251  0.00  0.00    +0.000 A 
ATOM     26  C   UNL     1       0.329   9.719  19.645  0.00  0.00    +0.000 A 
ATOM     27  O   UNL     1      -0.830  10.965  21.371  0.00  0.00    +0.000 OA
ATOM     28  C   UNL     1      -0.318  12.209  21.881  0.00  0.00    +0.000 C 
ATOM     29  O   UNL     1       0.156  13.065  20.815  0.00  0.00    +0.000 OA
ENDBRANCH  18  21
ENDBRANCH  16  17
ENDBRANCH   5  16
TORSDOF 5
ENDMDL
