MODEL 1
REMARK VINA RESULT:      -8.0      0.000      0.000
REMARK  Name = 
REMARK  5 active torsions:
REMARK  status: ('A' for Active; 'I' for Inactive)
REMARK    1  A    between atoms: C_1  and  C_2
REMARK    2  A    between atoms: C_2  and  C_3
REMARK    3  A    between atoms: C_2  and  C_4
REMARK    4  A    between atoms: C_9  and  C_10
REMARK    5  A    between atoms: C_10  and  C_11
REMARK                            x       y       z     vdW  Elec       q    Type
REMARK                         _______ _______ _______ _____ _____    ______ ____
ROOT
ATOM      1  C   UNL     1       6.340   3.778  13.068  0.00  0.00    +0.000 A 
ATOM      2  N   UNL     1       7.335   4.565  12.664  0.00  0.00    +0.000 NA
ATOM      3  N   UNL     1       7.736   5.373  13.723  0.00  0.00    +0.000 NA
ATOM      4  C   UNL     1       6.973   5.041  14.722  0.00  0.00    +0.000 A 
ATOM      5  S   UNL     1       6.750   5.530  16.344  0.00  0.00    +0.000 S 
ATOM      6  C   UNL     1       5.461   4.303  16.418  0.00  0.00    +0.000 A 
ATOM      7  N   UNL     1       5.228   3.595  15.342  0.00  0.00    +0.000 NA
ATOM      8  N   UNL     1       6.102   4.057  14.397  0.00  0.00    +0.000 N 
ENDROOT
BRANCH   1  10
ATOM      9  C   UNL     1       4.452   3.412  11.481  0.00  0.00    +0.000 C 
ATOM     10  C   UNL     1       5.597   2.762  12.260  0.00  0.00    +0.000 C 
ATOM     11  C   UNL     1       6.517   2.031  11.271  0.00  0.00    +0.000 C 
ENDBRANCH   1  10
BRANCH   6  12
ATOM     12  C   UNL     1       4.742   4.113  17.742  0.00  0.00    +0.000 C 
BRANCH  12  13
ATOM     13  C   UNL     1       3.197   4.169  17.659  0.00  0.00    +0.000 C 
ATOM     14  C   UNL     1       2.579   5.091  18.733  0.00  0.00    +0.000 C 
ATOM     15  C   UNL     1       2.775   4.640  20.174  0.00  0.00    +0.000 C 
ATOM     16  S   UNL     1       2.363   2.939  20.487  0.00  0.00    +0.000 S 
ATOM     17  O   UNL     1       3.212   2.473  21.565  0.00  0.00    +0.000 OA
ATOM     18  O   UNL     1       0.919   2.840  20.586  0.00  0.00    +0.000 OA
ATOM     19  C   UNL     1       2.849   2.050  19.018  0.00  0.00    +0.000 C 
ATOM     20  C   UNL     1       2.500   2.803  17.746  0.00  0.00    +0.000 C 
ENDBRANCH  12  13
ENDBRANCH   6  12
TORSDOF 3
ENDMDL
MODEL 2
REMARK VINA RESULT:      -8.0      0.825      1.033
REMARK  Name = 
REMARK  5 active torsions:
REMARK  status: ('A' for Active; 'I' for Inactive)
REMARK    1  A    between atoms: C_1  and  C_2
REMARK    2  A    between atoms: C_2  and  C_3
REMARK    3  A    between atoms: C_2  and  C_4
REMARK    4  A    between atoms: C_9  and  C_10
REMARK    5  A    between atoms: C_10  and  C_11
REMARK                            x       y       z     vdW  Elec       q    Type
REMARK                         _______ _______ _______ _____ _____    ______ ____
ROOT
ATOM      1  C   UNL     1       6.444   3.798  13.088  0.00  0.00    +0.000 A 
ATOM      2  N   UNL     1       7.398   4.642  12.701  0.00  0.00    +0.000 NA
ATOM      3  N   UNL     1       7.770   5.435  13.781  0.00  0.00    +0.000 NA
ATOM      4  C   UNL     1       7.032   5.039  14.775  0.00  0.00    +0.000 A 
ATOM      5  S   UNL     1       6.801   5.469  16.412  0.00  0.00    +0.000 S 
ATOM      6  C   UNL     1       5.571   4.181  16.459  0.00  0.00    +0.000 A 
ATOM      7  N   UNL     1       5.361   3.496  15.364  0.00  0.00    +0.000 NA
ATOM      8  N   UNL     1       6.205   4.025  14.427  0.00  0.00    +0.000 N 
ENDROOT
BRANCH   1  10
ATOM      9  C   UNL     1       4.570   3.395  11.493  0.00  0.00    +0.000 C 
ATOM     10  C   UNL     1       5.742   2.772  12.255  0.00  0.00    +0.000 C 
ATOM     11  C   UNL     1       6.690   2.105  11.248  0.00  0.00    +0.000 C 
ENDBRANCH   1  10
BRANCH   6  12
ATOM     12  C   UNL     1       4.872   3.919  17.781  0.00  0.00    +0.000 C 
BRANCH  12  13
ATOM     13  C   UNL     1       3.688   2.925  17.708  0.00  0.00    +0.000 C 
ATOM     14  C   UNL     1       2.327   3.636  17.531  0.00  0.00    +0.000 C 
ATOM     15  C   UNL     1       1.894   4.518  18.694  0.00  0.00    +0.000 C 
ATOM     16  S   UNL     1       2.003   3.751  20.294  0.00  0.00    +0.000 S 
ATOM     17  O   UNL     1       2.273   4.794  21.263  0.00  0.00    +0.000 OA
ATOM     18  O   UNL     1       0.858   2.874  20.449  0.00  0.00    +0.000 OA
ATOM     19  C   UNL     1       3.453   2.711  20.230  0.00  0.00    +0.000 C 
ATOM     20  C   UNL     1       3.575   1.973  18.908  0.00  0.00    +0.000 C 
ENDBRANCH  12  13
ENDBRANCH   6  12
TORSDOF 3
ENDMDL
MODEL 3
REMARK VINA RESULT:      -7.4      0.880      1.685
REMARK  Name = 
REMARK  5 active torsions:
REMARK  status: ('A' for Active; 'I' for Inactive)
REMARK    1  A    between atoms: C_1  and  C_2
REMARK    2  A    between atoms: C_2  and  C_3
REMARK    3  A    between atoms: C_2  and  C_4
REMARK    4  A    between atoms: C_9  and  C_10
REMARK    5  A    between atoms: C_10  and  C_11
REMARK                            x       y       z     vdW  Elec       q    Type
REMARK                         _______ _______ _______ _____ _____    ______ ____
ROOT
ATOM      1  C   UNL     1       6.370   3.927  13.340  0.00  0.00    +0.000 A 
ATOM      2  N   UNL     1       7.472   4.650  13.153  0.00  0.00    +0.000 NA
ATOM      3  N   UNL     1       7.654   5.495  14.243  0.00  0.00    +0.000 NA
ATOM      4  C   UNL     1       6.660   5.248  15.043  0.00  0.00    +0.000 A 
ATOM      5  S   UNL     1       6.086   5.830  16.544  0.00  0.00    +0.000 S 
ATOM      6  C   UNL     1       4.754   4.663  16.359  0.00  0.00    +0.000 A 
ATOM      7  N   UNL     1       4.744   3.910  15.288  0.00  0.00    +0.000 NA
ATOM      8  N   UNL     1       5.840   4.285  14.562  0.00  0.00    +0.000 N 
ENDROOT
BRANCH   1  10
ATOM      9  C   UNL     1       4.584   3.467  11.661  0.00  0.00    +0.000 C 
ATOM     10  C   UNL     1       5.786   2.902  12.420  0.00  0.00    +0.000 C 
ATOM     11  C   UNL     1       6.818   2.389  11.404  0.00  0.00    +0.000 C 
ENDBRANCH   1  10
BRANCH   6  12
ATOM     12  C   UNL     1       3.733   4.573  17.479  0.00  0.00    +0.000 C 
BRANCH  12  13
ATOM     13  C   UNL     1       4.324   4.648  18.909  0.00  0.00    +0.000 C 
ATOM     14  C   UNL     1       4.524   3.253  19.542  0.00  0.00    +0.000 C 
ATOM     15  C   UNL     1       3.248   2.461  19.797  0.00  0.00    +0.000 C 
ATOM     16  S   UNL     1       1.967   3.361  20.640  0.00  0.00    +0.000 S 
ATOM     17  O   UNL     1       0.694   2.831  20.196  0.00  0.00    +0.000 OA
ATOM     18  O   UNL     1       2.302   3.399  22.051  0.00  0.00    +0.000 OA
ATOM     19  C   UNL     1       2.076   5.035  20.031  0.00  0.00    +0.000 C 
ATOM     20  C   UNL     1       3.513   5.506  19.893  0.00  0.00    +0.000 C 
ENDBRANCH  12  13
ENDBRANCH   6  12
TORSDOF 3
ENDMDL
MODEL 4
REMARK VINA RESULT:      -7.4      1.312      1.514
REMARK  Name = 
REMARK  5 active torsions:
REMARK  status: ('A' for Active; 'I' for Inactive)
REMARK    1  A    between atoms: C_1  and  C_2
REMARK    2  A    between atoms: C_2  and  C_3
REMARK    3  A    between atoms: C_2  and  C_4
REMARK    4  A    between atoms: C_9  and  C_10
REMARK    5  A    between atoms: C_10  and  C_11
REMARK                            x       y       z     vdW  Elec       q    Type
REMARK                         _______ _______ _______ _____ _____    ______ ____
ROOT
ATOM      1  C   UNL     1       6.729   4.424  14.082  0.00  0.00    +0.000 A 
ATOM      2  N   UNL     1       7.581   5.426  14.288  0.00  0.00    +0.000 NA
ATOM      3  N   UNL     1       7.506   5.823  15.619  0.00  0.00    +0.000 NA
ATOM      4  C   UNL     1       6.617   5.046  16.164  0.00  0.00    +0.000 A 
ATOM      5  S   UNL     1       5.890   4.859  17.698  0.00  0.00    +0.000 S 
ATOM      6  C   UNL     1       4.947   3.538  16.965  0.00  0.00    +0.000 A 
ATOM      7  N   UNL     1       5.160   3.261  15.703  0.00  0.00    +0.000 NA
ATOM      8  N   UNL     1       6.110   4.151  15.284  0.00  0.00    +0.000 N 
ENDROOT
BRANCH   1  10
ATOM      9  C   UNL     1       4.987   3.758  12.427  0.00  0.00    +0.000 C 
ATOM     10  C   UNL     1       6.469   3.697  12.801  0.00  0.00    +0.000 C 
ATOM     11  C   UNL     1       7.297   4.269  11.640  0.00  0.00    +0.000 C 
ENDBRANCH   1  10
BRANCH   6  12
ATOM     12  C   UNL     1       3.985   2.776  17.859  0.00  0.00    +0.000 C 
BRANCH  12  13
ATOM     13  C   UNL     1       2.488   3.106  17.639  0.00  0.00    +0.000 C 
ATOM     14  C   UNL     1       2.183   4.612  17.803  0.00  0.00    +0.000 C 
ATOM     15  C   UNL     1       2.401   5.174  19.201  0.00  0.00    +0.000 C 
ATOM     16  S   UNL     1       1.657   4.231  20.511  0.00  0.00    +0.000 S 
ATOM     17  O   UNL     1       2.474   4.402  21.695  0.00  0.00    +0.000 OA
ATOM     18  O   UNL     1       0.240   4.544  20.537  0.00  0.00    +0.000 OA
ATOM     19  C   UNL     1       1.806   2.522  20.017  0.00  0.00    +0.000 C 
ATOM     20  C   UNL     1       1.520   2.323  18.539  0.00  0.00    +0.000 C 
ENDBRANCH  12  13
ENDBRANCH   6  12
TORSDOF 3
ENDMDL
MODEL 5
REMARK VINA RESULT:      -7.4      1.400      1.870
REMARK  Name = 
REMARK  5 active torsions:
REMARK  status: ('A' for Active; 'I' for Inactive)
REMARK    1  A    between atoms: C_1  and  C_2
REMARK    2  A    between atoms: C_2  and  C_3
REMARK    3  A    between atoms: C_2  and  C_4
REMARK    4  A    between atoms: C_9  and  C_10
REMARK    5  A    between atoms: C_10  and  C_11
REMARK                            x       y       z     vdW  Elec       q    Type
REMARK                         _______ _______ _______ _____ _____    ______ ____
ROOT
ATOM      1  C   UNL     1       6.556   4.522  14.391  0.00  0.00    +0.000 A 
ATOM      2  N   UNL     1       7.599   5.294  14.685  0.00  0.00    +0.000 NA
ATOM      3  N   UNL     1       7.370   5.927  15.902  0.00  0.00    +0.000 NA
ATOM      4  C   UNL     1       6.203   5.511  16.296  0.00  0.00    +0.000 A 
ATOM      5  S   UNL     1       5.154   5.790  17.616  0.00  0.00    +0.000 S 
ATOM      6  C   UNL     1       4.041   4.644  16.827  0.00  0.00    +0.000 A 
ATOM      7  N   UNL     1       4.420   4.103  15.697  0.00  0.00    +0.000 NA
ATOM      8  N   UNL     1       5.651   4.633  15.426  0.00  0.00    +0.000 N 
ENDROOT
BRANCH   1  10
ATOM      9  C   UNL     1       4.924   3.752  12.669  0.00  0.00    +0.000 C 
ATOM     10  C   UNL     1       6.366   3.670  13.176  0.00  0.00    +0.000 C 
ATOM     11  C   UNL     1       7.315   4.075  12.039  0.00  0.00    +0.000 C 
ENDBRANCH   1  10
BRANCH   6  12
ATOM     12  C   UNL     1       2.738   4.323  17.537  0.00  0.00    +0.000 C 
BRANCH  12  13
ATOM     13  C   UNL     1       2.596   2.854  18.007  0.00  0.00    +0.000 C 
ATOM     14  C   UNL     1       1.227   2.573  18.668  0.00  0.00    +0.000 C 
ATOM     15  C   UNL     1       0.964   3.320  19.969  0.00  0.00    +0.000 C 
ATOM     16  S   UNL     1       2.276   3.224  21.164  0.00  0.00    +0.000 S 
ATOM     17  O   UNL     1       2.252   4.446  21.941  0.00  0.00    +0.000 OA
ATOM     18  O   UNL     1       2.193   1.930  21.816  0.00  0.00    +0.000 OA
ATOM     19  C   UNL     1       3.789   3.237  20.218  0.00  0.00    +0.000 C 
ATOM     20  C   UNL     1       3.695   2.379  18.968  0.00  0.00    +0.000 C 
ENDBRANCH  12  13
ENDBRANCH   6  12
TORSDOF 3
ENDMDL
MODEL 6
REMARK VINA RESULT:      -7.3      1.260      2.026
REMARK  Name = 
REMARK  5 active torsions:
REMARK  status: ('A' for Active; 'I' for Inactive)
REMARK    1  A    between atoms: C_1  and  C_2
REMARK    2  A    between atoms: C_2  and  C_3
REMARK    3  A    between atoms: C_2  and  C_4
REMARK    4  A    between atoms: C_9  and  C_10
REMARK    5  A    between atoms: C_10  and  C_11
REMARK                            x       y       z     vdW  Elec       q    Type
REMARK                         _______ _______ _______ _____ _____    ______ ____
ROOT
ATOM      1  C   UNL     1       6.555   4.479  14.229  0.00  0.00    +0.000 A 
ATOM      2  N   UNL     1       7.688   5.177  14.274  0.00  0.00    +0.000 NA
ATOM      3  N   UNL     1       7.694   5.963  15.422  0.00  0.00    +0.000 NA
ATOM      4  C   UNL     1       6.571   5.707  16.024  0.00  0.00    +0.000 A 
ATOM      5  S   UNL     1       5.757   6.234  17.431  0.00  0.00    +0.000 S 
ATOM      6  C   UNL     1       4.452   5.117  16.957  0.00  0.00    +0.000 A 
ATOM      7  N   UNL     1       4.614   4.417  15.863  0.00  0.00    +0.000 NA
ATOM      8  N   UNL     1       5.828   4.794  15.357  0.00  0.00    +0.000 N 
ENDROOT
BRANCH   1  10
ATOM      9  C   UNL     1       4.732   3.880  12.637  0.00  0.00    +0.000 C 
ATOM     10  C   UNL     1       6.120   3.517  13.170  0.00  0.00    +0.000 C 
ATOM     11  C   UNL     1       7.106   3.474  11.993  0.00  0.00    +0.000 C 
ENDBRANCH   1  10
BRANCH   6  12
ATOM     12  C   UNL     1       3.250   5.004  17.877  0.00  0.00    +0.000 C 
BRANCH  12  13
ATOM     13  C   UNL     1       3.589   4.739  19.364  0.00  0.00    +0.000 C 
ATOM     14  C   UNL     1       3.929   3.258  19.640  0.00  0.00    +0.000 C 
ATOM     15  C   UNL     1       2.788   2.273  19.423  0.00  0.00    +0.000 C 
ATOM     16  S   UNL     1       1.254   2.724  20.199  0.00  0.00    +0.000 S 
ATOM     17  O   UNL     1       0.178   2.189  19.390  0.00  0.00    +0.000 OA
ATOM     18  O   UNL     1       1.354   2.397  21.609  0.00  0.00    +0.000 OA
ATOM     19  C   UNL     1       1.161   4.503  20.080  0.00  0.00    +0.000 C 
ATOM     20  C   UNL     1       2.498   5.169  20.356  0.00  0.00    +0.000 C 
ENDBRANCH  12  13
ENDBRANCH   6  12
TORSDOF 3
ENDMDL
MODEL 7
REMARK VINA RESULT:      -7.2      1.207      1.771
REMARK  Name = 
REMARK  5 active torsions:
REMARK  status: ('A' for Active; 'I' for Inactive)
REMARK    1  A    between atoms: C_1  and  C_2
REMARK    2  A    between atoms: C_2  and  C_3
REMARK    3  A    between atoms: C_2  and  C_4
REMARK    4  A    between atoms: C_9  and  C_10
REMARK    5  A    between atoms: C_10  and  C_11
REMARK                            x       y       z     vdW  Elec       q    Type
REMARK                         _______ _______ _______ _____ _____    ______ ____
ROOT
ATOM      1  C   UNL     1       6.747   4.247  12.952  0.00  0.00    +0.000 A 
ATOM      2  N   UNL     1       7.780   5.085  12.960  0.00  0.00    +0.000 NA
ATOM      3  N   UNL     1       7.984   5.544  14.258  0.00  0.00    +0.000 NA
ATOM      4  C   UNL     1       7.071   4.965  14.979  0.00  0.00    +0.000 A 
ATOM      5  S   UNL     1       6.571   4.977  16.613  0.00  0.00    +0.000 S 
ATOM      6  C   UNL     1       5.311   3.820  16.118  0.00  0.00    +0.000 A 
ATOM      7  N   UNL     1       5.273   3.456  14.862  0.00  0.00    +0.000 NA
ATOM      8  N   UNL     1       6.285   4.141  14.247  0.00  0.00    +0.000 N 
ENDROOT
BRANCH   1  10
ATOM      9  C   UNL     1       6.706   2.097  11.689  0.00  0.00    +0.000 C 
ATOM     10  C   UNL     1       6.168   3.527  11.775  0.00  0.00    +0.000 C 
ATOM     11  C   UNL     1       4.634   3.477  11.832  0.00  0.00    +0.000 C 
ENDBRANCH   1  10
BRANCH   6  12
ATOM     12  C   UNL     1       4.384   3.282  17.194  0.00  0.00    +0.000 C 
BRANCH  12  13
ATOM     13  C   UNL     1       4.061   4.278  18.335  0.00  0.00    +0.000 C 
ATOM     14  C   UNL     1       3.902   3.579  19.704  0.00  0.00    +0.000 C 
ATOM     15  C   UNL     1       2.725   2.620  19.815  0.00  0.00    +0.000 C 
ATOM     16  S   UNL     1       1.171   3.276  19.256  0.00  0.00    +0.000 S 
ATOM     17  O   UNL     1       0.384   2.170  18.748  0.00  0.00    +0.000 OA
ATOM     18  O   UNL     1       0.648   4.139  20.298  0.00  0.00    +0.000 OA
ATOM     19  C   UNL     1       1.564   4.319  17.862  0.00  0.00    +0.000 C 
ATOM     20  C   UNL     1       2.817   5.146  18.096  0.00  0.00    +0.000 C 
ENDBRANCH  12  13
ENDBRANCH   6  12
TORSDOF 3
ENDMDL
MODEL 8
REMARK VINA RESULT:      -7.1      2.326      4.056
REMARK  Name = 
REMARK  5 active torsions:
REMARK  status: ('A' for Active; 'I' for Inactive)
REMARK    1  A    between atoms: C_1  and  C_2
REMARK    2  A    between atoms: C_2  and  C_3
REMARK    3  A    between atoms: C_2  and  C_4
REMARK    4  A    between atoms: C_9  and  C_10
REMARK    5  A    between atoms: C_10  and  C_11
REMARK                            x       y       z     vdW  Elec       q    Type
REMARK                         _______ _______ _______ _____ _____    ______ ____
ROOT
ATOM      1  C   UNL     1       7.086   6.170  16.855  0.00  0.00    +0.000 A 
ATOM      2  N   UNL     1       7.866   6.056  15.782  0.00  0.00    +0.000 NA
ATOM      3  N   UNL     1       7.315   5.118  14.916  0.00  0.00    +0.000 NA
ATOM      4  C   UNL     1       6.227   4.706  15.496  0.00  0.00    +0.000 A 
ATOM      5  S   UNL     1       4.990   3.571  15.177  0.00  0.00    +0.000 S 
ATOM      6  C   UNL     1       4.286   4.070  16.735  0.00  0.00    +0.000 A 
ATOM      7  N   UNL     1       4.908   4.996  17.419  0.00  0.00    +0.000 NA
ATOM      8  N   UNL     1       6.014   5.321  16.683  0.00  0.00    +0.000 N 
ENDROOT
BRANCH   1  10
ATOM      9  C   UNL     1       8.097   6.326  19.130  0.00  0.00    +0.000 C 
ATOM     10  C   UNL     1       7.298   7.052  18.045  0.00  0.00    +0.000 C 
ATOM     11  C   UNL     1       8.031   8.349  17.674  0.00  0.00    +0.000 C 
ENDBRANCH   1  10
BRANCH   6  12
ATOM     12  C   UNL     1       2.976   3.428  17.156  0.00  0.00    +0.000 C 
BRANCH  12  13
ATOM     13  C   UNL     1       3.109   2.307  18.216  0.00  0.00    +0.000 C 
ATOM     14  C   UNL     1       1.738   1.769  18.685  0.00  0.00    +0.000 C 
ATOM     15  C   UNL     1       0.864   2.770  19.430  0.00  0.00    +0.000 C 
ATOM     16  S   UNL     1       1.682   3.647  20.741  0.00  0.00    +0.000 S 
ATOM     17  O   UNL     1       1.061   4.951  20.852  0.00  0.00    +0.000 OA
ATOM     18  O   UNL     1       1.760   2.764  21.889  0.00  0.00    +0.000 OA
ATOM     19  C   UNL     1       3.353   3.913  20.171  0.00  0.00    +0.000 C 
ATOM     20  C   UNL     1       3.920   2.696  19.461  0.00  0.00    +0.000 C 
ENDBRANCH  12  13
ENDBRANCH   6  12
TORSDOF 3
ENDMDL
MODEL 9
REMARK VINA RESULT:      -7.0      5.372      8.214
REMARK  Name = 
REMARK  5 active torsions:
REMARK  status: ('A' for Active; 'I' for Inactive)
REMARK    1  A    between atoms: C_1  and  C_2
REMARK    2  A    between atoms: C_2  and  C_3
REMARK    3  A    between atoms: C_2  and  C_4
REMARK    4  A    between atoms: C_9  and  C_10
REMARK    5  A    between atoms: C_10  and  C_11
REMARK                            x       y       z     vdW  Elec       q    Type
REMARK                         _______ _______ _______ _____ _____    ______ ____
ROOT
ATOM      1  C   UNL     1       0.166  10.008  20.736  0.00  0.00    +0.000 A 
ATOM      2  N   UNL     1       0.024  11.026  19.890  0.00  0.00    +0.000 NA
ATOM      3  N   UNL     1       0.740  10.756  18.729  0.00  0.00    +0.000 NA
ATOM      4  C   UNL     1       1.282   9.590  18.917  0.00  0.00    +0.000 A 
ATOM      5  S   UNL     1       2.321   8.539  18.060  0.00  0.00    +0.000 S 
ATOM      6  C   UNL     1       2.200   7.454  19.467  0.00  0.00    +0.000 A 
ATOM      7  N   UNL     1       1.453   7.836  20.472  0.00  0.00    +0.000 NA
ATOM      8  N   UNL     1       0.960   9.063  20.121  0.00  0.00    +0.000 N 
ENDROOT
BRANCH   1  10
ATOM      9  C   UNL     1       0.643   9.428  23.114  0.00  0.00    +0.000 C 
ATOM     10  C   UNL     1      -0.419   9.874  22.107  0.00  0.00    +0.000 C 
ATOM     11  C   UNL     1      -1.043  11.190  22.595  0.00  0.00    +0.000 C 
ENDBRANCH   1  10
BRANCH   6  12
ATOM     12  C   UNL     1       2.931   6.125  19.400  0.00  0.00    +0.000 C 
BRANCH  12  13
ATOM     13  C   UNL     1       2.293   5.077  18.456  0.00  0.00    +0.000 C 
ATOM     14  C   UNL     1       1.560   3.955  19.225  0.00  0.00    +0.000 C 
ATOM     15  C   UNL     1       2.447   3.066  20.088  0.00  0.00    +0.000 C 
ATOM     16  S   UNL     1       3.891   2.432  19.270  0.00  0.00    +0.000 S 
ATOM     17  O   UNL     1       4.925   2.263  20.271  0.00  0.00    +0.000 OA
ATOM     18  O   UNL     1       3.480   1.320  18.434  0.00  0.00    +0.000 OA
ATOM     19  C   UNL     1       4.434   3.735  18.176  0.00  0.00    +0.000 C 
ATOM     20  C   UNL     1       3.273   4.418  17.474  0.00  0.00    +0.000 C 
ENDBRANCH  12  13
ENDBRANCH   6  12
TORSDOF 3
ENDMDL
