MODEL 1
REMARK VINA RESULT:      -8.0      0.000      0.000
REMARK  Name = 
REMARK  6 active torsions:
REMARK  status: ('A' for Active; 'I' for Inactive)
REMARK    1  A    between atoms: C_1  and  C_2
REMARK    2  A    between atoms: N_4  and  C_5
REMARK    3  A    between atoms: C_7  and  C_8
REMARK    4  A    between atoms: C_8  and  O_9
REMARK    5  A    between atoms: C_10  and  O_11
REMARK    6  A    between atoms: C_12  and  O_13
REMARK                            x       y       z     vdW  Elec       q    Type
REMARK                         _______ _______ _______ _____ _____    ______ ____
ROOT
ATOM      1  C   UNL     1       4.028   4.633  19.302  0.00  0.00    +0.000 C 
ATOM      2  O   UNL     1       3.954   3.370  19.936  0.00  0.00    +0.000 OA
ATOM      3  C   UNL     1       2.759   2.601  19.748  0.00  0.00    +0.000 C 
ATOM      4  C   UNL     1       1.496   3.477  19.851  0.00  0.00    +0.000 C 
ATOM      5  C   UNL     1       1.480   4.591  18.802  0.00  0.00    +0.000 C 
ATOM      6  C   UNL     1       2.741   5.421  18.966  0.00  0.00    +0.000 C 
ATOM      7  O   UNL     1       2.740   6.636  18.752  0.00  0.00    +0.000 OA
ENDROOT
BRANCH   1  11
ATOM      8  C   UNL     1       5.251   4.376  14.518  0.00  0.00    +0.000 C 
ATOM      9  C   UNL     1       5.622   4.480  15.961  0.00  0.00    +0.000 A 
ATOM     10  C   UNL     1       4.744   4.441  16.968  0.00  0.00    +0.000 A 
ATOM     11  N   UNL     1       5.099   4.624  18.293  0.00  0.00    +0.000 N 
ATOM     12  C   UNL     1       6.406   4.927  18.642  0.00  0.00    +0.000 A 
ATOM     13  O   UNL     1       6.764   5.278  19.764  0.00  0.00    +0.000 OA
ATOM     14  N   UNL     1       7.328   4.821  17.631  0.00  0.00    +0.000 N 
ATOM     15  C   UNL     1       7.051   4.674  16.302  0.00  0.00    +0.000 A 
ATOM     16  O   UNL     1       7.926   4.720  15.442  0.00  0.00    +0.000 OA
ATOM     17  H   UNL     1       8.291   4.997  17.868  0.00  0.00    +0.000 HD
ENDBRANCH   1  11
BRANCH   4  18
ATOM     18  O   UNL     1       0.310   2.684  19.748  0.00  0.00    +0.000 OA
ATOM     19  H   UNL     1      -0.106   2.912  18.892  0.00  0.00    +0.000 HD
ENDBRANCH   4  18
BRANCH   5  20
ATOM     20  O   UNL     1       1.305   4.015  17.512  0.00  0.00    +0.000 OA
ATOM     21  H   UNL     1       1.733   3.128  17.532  0.00  0.00    +0.000 HD
ENDBRANCH   5  20
BRANCH   3  22
ATOM     22  C   UNL     1       2.839   1.718  18.490  0.00  0.00    +0.000 C 
BRANCH  22  23
ATOM     23  O   UNL     1       4.137   1.127  18.392  0.00  0.00    +0.000 OA
ATOM     24  H   UNL     1       4.709   1.597  19.022  0.00  0.00    +0.000 HD
ENDBRANCH  22  23
ENDBRANCH   3  22
TORSDOF 5
ENDMDL
MODEL 2
REMARK VINA RESULT:      -7.5      1.219      1.232
REMARK  Name = 
REMARK  6 active torsions:
REMARK  status: ('A' for Active; 'I' for Inactive)
REMARK    1  A    between atoms: C_1  and  C_2
REMARK    2  A    between atoms: N_4  and  C_5
REMARK    3  A    between atoms: C_7  and  C_8
REMARK    4  A    between atoms: C_8  and  O_9
REMARK    5  A    between atoms: C_10  and  O_11
REMARK    6  A    between atoms: C_12  and  O_13
REMARK                            x       y       z     vdW  Elec       q    Type
REMARK                         _______ _______ _______ _____ _____    ______ ____
ROOT
ATOM      1  C   UNL     1       4.565   5.273  18.481  0.00  0.00    +0.000 C 
ATOM      2  O   UNL     1       4.775   4.123  19.279  0.00  0.00    +0.000 OA
ATOM      3  C   UNL     1       3.696   3.187  19.393  0.00  0.00    +0.000 C 
ATOM      4  C   UNL     1       2.344   3.898  19.589  0.00  0.00    +0.000 C 
ATOM      5  C   UNL     1       2.007   4.827  18.420  0.00  0.00    +0.000 C 
ATOM      6  C   UNL     1       3.139   5.828  18.263  0.00  0.00    +0.000 C 
ATOM      7  O   UNL     1       2.923   6.986  17.895  0.00  0.00    +0.000 OA
ENDROOT
BRANCH   1  11
ATOM      8  C   UNL     1       5.254   3.964  13.764  0.00  0.00    +0.000 C 
ATOM      9  C   UNL     1       5.739   4.574  15.038  0.00  0.00    +0.000 A 
ATOM     10  C   UNL     1       5.033   4.604  16.173  0.00  0.00    +0.000 A 
ATOM     11  N   UNL     1       5.467   5.248  17.319  0.00  0.00    +0.000 N 
ATOM     12  C   UNL     1       6.654   5.963  17.325  0.00  0.00    +0.000 A 
ATOM     13  O   UNL     1       7.016   6.705  18.236  0.00  0.00    +0.000 OA
ATOM     14  N   UNL     1       7.444   5.810  16.213  0.00  0.00    +0.000 N 
ATOM     15  C   UNL     1       7.073   5.218  15.040  0.00  0.00    +0.000 A 
ATOM     16  O   UNL     1       7.789   5.237  14.043  0.00  0.00    +0.000 OA
ATOM     17  H   UNL     1       8.330   6.288  16.210  0.00  0.00    +0.000 HD
ENDBRANCH   1  11
BRANCH   4  18
ATOM     18  O   UNL     1       1.290   2.953  19.788  0.00  0.00    +0.000 OA
ATOM     19  H   UNL     1       0.677   3.350  20.440  0.00  0.00    +0.000 HD
ENDBRANCH   4  18
BRANCH   5  20
ATOM     20  O   UNL     1       1.736   4.043  17.264  0.00  0.00    +0.000 OA
ATOM     21  H   UNL     1       1.642   3.110  17.564  0.00  0.00    +0.000 HD
ENDBRANCH   5  20
BRANCH   3  22
ATOM     22  C   UNL     1       3.724   2.140  18.267  0.00  0.00    +0.000 C 
BRANCH  22  23
ATOM     23  O   UNL     1       2.633   1.229  18.420  0.00  0.00    +0.000 OA
ATOM     24  H   UNL     1       2.958   0.352  18.154  0.00  0.00    +0.000 HD
ENDBRANCH  22  23
ENDBRANCH   3  22
TORSDOF 5
ENDMDL
MODEL 3
REMARK VINA RESULT:      -7.3      1.692      2.444
REMARK  Name = 
REMARK  6 active torsions:
REMARK  status: ('A' for Active; 'I' for Inactive)
REMARK    1  A    between atoms: C_1  and  C_2
REMARK    2  A    between atoms: N_4  and  C_5
REMARK    3  A    between atoms: C_7  and  C_8
REMARK    4  A    between atoms: C_8  and  O_9
REMARK    5  A    between atoms: C_10  and  O_11
REMARK    6  A    between atoms: C_12  and  O_13
REMARK                            x       y       z     vdW  Elec       q    Type
REMARK                         _______ _______ _______ _____ _____    ______ ____
ROOT
ATOM      1  C   UNL     1       2.819   4.988  18.562  0.00  0.00    +0.000 C 
ATOM      2  O   UNL     1       3.034   5.093  19.958  0.00  0.00    +0.000 OA
ATOM      3  C   UNL     1       2.516   4.047  20.789  0.00  0.00    +0.000 C 
ATOM      4  C   UNL     1       1.098   3.627  20.361  0.00  0.00    +0.000 C 
ATOM      5  C   UNL     1       1.061   3.111  18.920  0.00  0.00    +0.000 C 
ATOM      6  C   UNL     1       1.614   4.194  18.010  0.00  0.00    +0.000 C 
ATOM      7  O   UNL     1       1.176   4.355  16.868  0.00  0.00    +0.000 OA
ENDROOT
BRANCH   1  11
ATOM      8  C   UNL     1       7.167   7.001  17.342  0.00  0.00    +0.000 C 
ATOM      9  C   UNL     1       6.188   5.874  17.301  0.00  0.00    +0.000 A 
ATOM     10  C   UNL     1       4.967   5.919  17.844  0.00  0.00    +0.000 A 
ATOM     11  N   UNL     1       4.108   4.834  17.868  0.00  0.00    +0.000 N 
ATOM     12  C   UNL     1       4.506   3.602  17.375  0.00  0.00    +0.000 A 
ATOM     13  O   UNL     1       3.876   2.556  17.523  0.00  0.00    +0.000 OA
ATOM     14  N   UNL     1       5.695   3.594  16.689  0.00  0.00    +0.000 N 
ATOM     15  C   UNL     1       6.605   4.611  16.648  0.00  0.00    +0.000 A 
ATOM     16  O   UNL     1       7.707   4.481  16.123  0.00  0.00    +0.000 OA
ATOM     17  H   UNL     1       5.987   2.718  16.287  0.00  0.00    +0.000 HD
ENDBRANCH   1  11
BRANCH   4  18
ATOM     18  O   UNL     1       0.560   2.646  21.251  0.00  0.00    +0.000 OA
ATOM     19  H   UNL     1      -0.162   2.195  20.769  0.00  0.00    +0.000 HD
ENDBRANCH   4  18
BRANCH   5  20
ATOM     20  O   UNL     1       1.744   1.864  18.854  0.00  0.00    +0.000 OA
ATOM     21  H   UNL     1       1.492   1.444  17.999  0.00  0.00    +0.000 HD
ENDBRANCH   5  20
BRANCH   3  22
ATOM     22  C   UNL     1       3.519   2.891  20.946  0.00  0.00    +0.000 C 
BRANCH  22  23
ATOM     23  O   UNL     1       3.142   2.065  22.051  0.00  0.00    +0.000 OA
ATOM     24  H   UNL     1       2.366   1.551  21.766  0.00  0.00    +0.000 HD
ENDBRANCH  22  23
ENDBRANCH   3  22
TORSDOF 5
ENDMDL
MODEL 4
REMARK VINA RESULT:      -7.3      2.098      5.420
REMARK  Name = 
REMARK  6 active torsions:
REMARK  status: ('A' for Active; 'I' for Inactive)
REMARK    1  A    between atoms: C_1  and  C_2
REMARK    2  A    between atoms: N_4  and  C_5
REMARK    3  A    between atoms: C_7  and  C_8
REMARK    4  A    between atoms: C_8  and  O_9
REMARK    5  A    between atoms: C_10  and  O_11
REMARK    6  A    between atoms: C_12  and  O_13
REMARK                            x       y       z     vdW  Elec       q    Type
REMARK                         _______ _______ _______ _____ _____    ______ ____
ROOT
ATOM      1  C   UNL     1       4.577   4.435  18.437  0.00  0.00    +0.000 C 
ATOM      2  O   UNL     1       5.899   4.665  18.886  0.00  0.00    +0.000 OA
ATOM      3  C   UNL     1       6.872   5.065  17.913  0.00  0.00    +0.000 C 
ATOM      4  C   UNL     1       6.740   4.256  16.609  0.00  0.00    +0.000 C 
ATOM      5  C   UNL     1       5.364   4.428  15.962  0.00  0.00    +0.000 C 
ATOM      6  C   UNL     1       4.305   4.022  16.972  0.00  0.00    +0.000 C 
ATOM      7  O   UNL     1       3.257   3.476  16.617  0.00  0.00    +0.000 OA
ENDROOT
BRANCH   1  11
ATOM      8  C   UNL     1       2.199   8.747  17.991  0.00  0.00    +0.000 C 
ATOM      9  C   UNL     1       2.554   7.522  18.767  0.00  0.00    +0.000 A 
ATOM     10  C   UNL     1       3.414   6.588  18.346  0.00  0.00    +0.000 A 
ATOM     11  N   UNL     1       3.665   5.419  19.043  0.00  0.00    +0.000 N 
ATOM     12  C   UNL     1       2.974   5.123  20.207  0.00  0.00    +0.000 A 
ATOM     13  O   UNL     1       3.007   4.037  20.780  0.00  0.00    +0.000 OA
ATOM     14  N   UNL     1       2.205   6.141  20.714  0.00  0.00    +0.000 N 
ATOM     15  C   UNL     1       1.888   7.305  20.073  0.00  0.00    +0.000 A 
ATOM     16  O   UNL     1       1.086   8.110  20.537  0.00  0.00    +0.000 OA
ATOM     17  H   UNL     1       1.724   5.965  21.581  0.00  0.00    +0.000 HD
ENDBRANCH   1  11
BRANCH   4  18
ATOM     18  O   UNL     1       7.770   4.605  15.681  0.00  0.00    +0.000 OA
ATOM     19  H   UNL     1       8.317   3.803  15.554  0.00  0.00    +0.000 HD
ENDBRANCH   4  18
BRANCH   5  20
ATOM     20  O   UNL     1       5.244   5.758  15.469  0.00  0.00    +0.000 OA
ATOM     21  H   UNL     1       4.477   6.168  15.932  0.00  0.00    +0.000 HD
ENDBRANCH   5  20
BRANCH   3  22
ATOM     22  C   UNL     1       6.906   6.592  17.732  0.00  0.00    +0.000 C 
BRANCH  22  23
ATOM     23  O   UNL     1       7.791   6.937  16.665  0.00  0.00    +0.000 OA
ATOM     24  H   UNL     1       8.144   6.103  16.310  0.00  0.00    +0.000 HD
ENDBRANCH  22  23
ENDBRANCH   3  22
TORSDOF 5
ENDMDL
MODEL 5
REMARK VINA RESULT:      -7.1      2.496      4.792
REMARK  Name = 
REMARK  6 active torsions:
REMARK  status: ('A' for Active; 'I' for Inactive)
REMARK    1  A    between atoms: C_1  and  C_2
REMARK    2  A    between atoms: N_4  and  C_5
REMARK    3  A    between atoms: C_7  and  C_8
REMARK    4  A    between atoms: C_8  and  O_9
REMARK    5  A    between atoms: C_10  and  O_11
REMARK    6  A    between atoms: C_12  and  O_13
REMARK                            x       y       z     vdW  Elec       q    Type
REMARK                         _______ _______ _______ _____ _____    ______ ____
ROOT
ATOM      1  C   UNL     1       3.542   5.204  18.218  0.00  0.00    +0.000 C 
ATOM      2  O   UNL     1       2.628   4.504  17.394  0.00  0.00    +0.000 OA
ATOM      3  C   UNL     1       2.341   3.141  17.728  0.00  0.00    +0.000 C 
ATOM      4  C   UNL     1       3.616   2.369  18.117  0.00  0.00    +0.000 C 
ATOM      5  C   UNL     1       4.316   2.987  19.329  0.00  0.00    +0.000 C 
ATOM      6  C   UNL     1       4.626   4.440  19.013  0.00  0.00    +0.000 C 
ATOM      7  O   UNL     1       5.643   4.988  19.448  0.00  0.00    +0.000 OA
ENDROOT
BRANCH   1  11
ATOM      8  C   UNL     1       1.619   9.748  17.907  0.00  0.00    +0.000 C 
ATOM      9  C   UNL     1       1.954   8.518  18.685  0.00  0.00    +0.000 A 
ATOM     10  C   UNL     1       2.627   7.474  18.189  0.00  0.00    +0.000 A 
ATOM     11  N   UNL     1       2.853   6.310  18.902  0.00  0.00    +0.000 N 
ATOM     12  C   UNL     1       2.327   6.141  20.172  0.00  0.00    +0.000 A 
ATOM     13  O   UNL     1       2.329   5.080  20.792  0.00  0.00    +0.000 OA
ATOM     14  N   UNL     1       1.767   7.261  20.735  0.00  0.00    +0.000 N 
ATOM     15  C   UNL     1       1.484   8.430  20.088  0.00  0.00    +0.000 A 
ATOM     16  O   UNL     1       0.861   9.341  20.624  0.00  0.00    +0.000 OA
ATOM     17  H   UNL     1       1.413   7.175  21.674  0.00  0.00    +0.000 HD
ENDBRANCH   1  11
BRANCH   4  18
ATOM     18  O   UNL     1       3.328   0.990  18.362  0.00  0.00    +0.000 OA
ATOM     19  H   UNL     1       4.066   0.476  17.975  0.00  0.00    +0.000 HD
ENDBRANCH   4  18
BRANCH   5  20
ATOM     20  O   UNL     1       3.513   2.784  20.486  0.00  0.00    +0.000 OA
ATOM     21  H   UNL     1       3.763   3.480  21.136  0.00  0.00    +0.000 HD
ENDBRANCH   5  20
BRANCH   3  22
ATOM     22  C   UNL     1       1.180   3.029  18.731  0.00  0.00    +0.000 C 
BRANCH  22  23
ATOM     23  O   UNL     1       0.385   1.879  18.429  0.00  0.00    +0.000 OA
ATOM     24  H   UNL     1       0.939   1.099  18.605  0.00  0.00    +0.000 HD
ENDBRANCH  22  23
ENDBRANCH   3  22
TORSDOF 5
ENDMDL
MODEL 6
REMARK VINA RESULT:      -6.9      1.789      5.403
REMARK  Name = 
REMARK  6 active torsions:
REMARK  status: ('A' for Active; 'I' for Inactive)
REMARK    1  A    between atoms: C_1  and  C_2
REMARK    2  A    between atoms: N_4  and  C_5
REMARK    3  A    between atoms: C_7  and  C_8
REMARK    4  A    between atoms: C_8  and  O_9
REMARK    5  A    between atoms: C_10  and  O_11
REMARK    6  A    between atoms: C_12  and  O_13
REMARK                            x       y       z     vdW  Elec       q    Type
REMARK                         _______ _______ _______ _____ _____    ______ ____
ROOT
ATOM      1  C   UNL     1       4.925   5.825  18.274  0.00  0.00    +0.000 C 
ATOM      2  O   UNL     1       4.581   6.281  16.978  0.00  0.00    +0.000 OA
ATOM      3  C   UNL     1       5.453   5.929  15.897  0.00  0.00    +0.000 C 
ATOM      4  C   UNL     1       6.935   6.079  16.287  0.00  0.00    +0.000 C 
ATOM      5  C   UNL     1       7.312   5.187  17.472  0.00  0.00    +0.000 C 
ATOM      6  C   UNL     1       6.398   5.527  18.637  0.00  0.00    +0.000 C 
ATOM      7  O   UNL     1       6.799   5.476  19.802  0.00  0.00    +0.000 OA
ENDROOT
BRANCH   1  11
ATOM      8  C   UNL     1       3.536   1.116  18.856  0.00  0.00    +0.000 C 
ATOM      9  C   UNL     1       3.287   2.582  18.997  0.00  0.00    +0.000 A 
ATOM     10  C   UNL     1       4.112   3.531  18.544  0.00  0.00    +0.000 A 
ATOM     11  N   UNL     1       3.904   4.882  18.759  0.00  0.00    +0.000 N 
ATOM     12  C   UNL     1       2.838   5.324  19.527  0.00  0.00    +0.000 A 
ATOM     13  O   UNL     1       2.689   6.481  19.912  0.00  0.00    +0.000 OA
ATOM     14  N   UNL     1       1.915   4.366  19.865  0.00  0.00    +0.000 N 
ATOM     15  C   UNL     1       2.065   3.017  19.714  0.00  0.00    +0.000 A 
ATOM     16  O   UNL     1       1.252   2.214  20.162  0.00  0.00    +0.000 OA
ATOM     17  H   UNL     1       1.110   4.668  20.389  0.00  0.00    +0.000 HD
ENDBRANCH   1  11
BRANCH   4  18
ATOM     18  O   UNL     1       7.790   5.809  15.174  0.00  0.00    +0.000 OA
ATOM     19  H   UNL     1       8.318   6.620  15.022  0.00  0.00    +0.000 HD
ENDBRANCH   4  18
BRANCH   5  20
ATOM     20  O   UNL     1       7.277   3.825  17.061  0.00  0.00    +0.000 OA
ATOM     21  H   UNL     1       6.885   3.310  17.803  0.00  0.00    +0.000 HD
ENDBRANCH   5  20
BRANCH   3  22
ATOM     22  C   UNL     1       5.076   4.573  15.277  0.00  0.00    +0.000 C 
BRANCH  22  23
ATOM     23  O   UNL     1       5.875   4.329  14.117  0.00  0.00    +0.000 OA
ATOM     24  H   UNL     1       5.285   4.405  13.347  0.00  0.00    +0.000 HD
ENDBRANCH  22  23
ENDBRANCH   3  22
TORSDOF 5
ENDMDL
MODEL 7
REMARK VINA RESULT:      -6.9      1.420      2.664
REMARK  Name = 
REMARK  6 active torsions:
REMARK  status: ('A' for Active; 'I' for Inactive)
REMARK    1  A    between atoms: C_1  and  C_2
REMARK    2  A    between atoms: N_4  and  C_5
REMARK    3  A    between atoms: C_7  and  C_8
REMARK    4  A    between atoms: C_8  and  O_9
REMARK    5  A    between atoms: C_10  and  O_11
REMARK    6  A    between atoms: C_12  and  O_13
REMARK                            x       y       z     vdW  Elec       q    Type
REMARK                         _______ _______ _______ _____ _____    ______ ____
ROOT
ATOM      1  C   UNL     1       3.969   3.002  18.191  0.00  0.00    +0.000 C 
ATOM      2  O   UNL     1       2.726   3.304  17.585  0.00  0.00    +0.000 OA
ATOM      3  C   UNL     1       1.636   3.657  18.446  0.00  0.00    +0.000 C 
ATOM      4  C   UNL     1       1.571   2.746  19.686  0.00  0.00    +0.000 C 
ATOM      5  C   UNL     1       2.847   2.827  20.527  0.00  0.00    +0.000 C 
ATOM      6  C   UNL     1       4.027   2.468  19.641  0.00  0.00    +0.000 C 
ATOM      7  O   UNL     1       5.006   1.866  20.090  0.00  0.00    +0.000 OA
ENDROOT
BRANCH   1  11
ATOM      8  C   UNL     1       6.928   4.765  14.645  0.00  0.00    +0.000 C 
ATOM      9  C   UNL     1       6.393   4.795  16.039  0.00  0.00    +0.000 A 
ATOM     10  C   UNL     1       5.522   3.907  16.529  0.00  0.00    +0.000 A 
ATOM     11  N   UNL     1       4.974   4.001  17.796  0.00  0.00    +0.000 N 
ATOM     12  C   UNL     1       5.260   5.082  18.615  0.00  0.00    +0.000 A 
ATOM     13  O   UNL     1       4.681   5.330  19.670  0.00  0.00    +0.000 OA
ATOM     14  N   UNL     1       6.262   5.911  18.173  0.00  0.00    +0.000 N 
ATOM     15  C   UNL     1       6.825   5.898  16.929  0.00  0.00    +0.000 A 
ATOM     16  O   UNL     1       7.622   6.756  16.563  0.00  0.00    +0.000 OA
ATOM     17  H   UNL     1       6.516   6.681  18.769  0.00  0.00    +0.000 HD
ENDBRANCH   1  11
BRANCH   4  18
ATOM     18  O   UNL     1       0.429   3.053  20.490  0.00  0.00    +0.000 OA
ATOM     19  H   UNL     1       0.178   2.225  20.949  0.00  0.00    +0.000 HD
ENDBRANCH   4  18
BRANCH   5  20
ATOM     20  O   UNL     1       2.923   4.110  21.137  0.00  0.00    +0.000 OA
ATOM     21  H   UNL     1       2.404   4.063  21.973  0.00  0.00    +0.000 HD
ENDBRANCH   5  20
BRANCH   3  22
ATOM     22  C   UNL     1       1.606   5.166  18.743  0.00  0.00    +0.000 C 
BRANCH  22  23
ATOM     23  O   UNL     1       2.229   5.885  17.676  0.00  0.00    +0.000 OA
ATOM     24  H   UNL     1       3.055   5.416  17.464  0.00  0.00    +0.000 HD
ENDBRANCH  22  23
ENDBRANCH   3  22
TORSDOF 5
ENDMDL
MODEL 8
REMARK VINA RESULT:      -6.9      1.217      2.800
REMARK  Name = 
REMARK  6 active torsions:
REMARK  status: ('A' for Active; 'I' for Inactive)
REMARK    1  A    between atoms: C_1  and  C_2
REMARK    2  A    between atoms: N_4  and  C_5
REMARK    3  A    between atoms: C_7  and  C_8
REMARK    4  A    between atoms: C_8  and  O_9
REMARK    5  A    between atoms: C_10  and  O_11
REMARK    6  A    between atoms: C_12  and  O_13
REMARK                            x       y       z     vdW  Elec       q    Type
REMARK                         _______ _______ _______ _____ _____    ______ ____
ROOT
ATOM      1  C   UNL     1       3.177   3.146  17.582  0.00  0.00    +0.000 C 
ATOM      2  O   UNL     1       2.308   4.263  17.577  0.00  0.00    +0.000 OA
ATOM      3  C   UNL     1       1.690   4.629  18.817  0.00  0.00    +0.000 C 
ATOM      4  C   UNL     1       1.188   3.395  19.590  0.00  0.00    +0.000 C 
ATOM      5  C   UNL     1       2.324   2.426  19.927  0.00  0.00    +0.000 C 
ATOM      6  C   UNL     1       3.010   2.024  18.633  0.00  0.00    +0.000 C 
ATOM      7  O   UNL     1       3.480   0.894  18.480  0.00  0.00    +0.000 OA
ENDROOT
BRANCH   1  11
ATOM      8  C   UNL     1       6.399   4.590  14.121  0.00  0.00    +0.000 C 
ATOM      9  C   UNL     1       6.060   4.257  15.537  0.00  0.00    +0.000 A 
ATOM     10  C   UNL     1       4.868   3.801  15.936  0.00  0.00    +0.000 A 
ATOM     11  N   UNL     1       4.548   3.578  17.264  0.00  0.00    +0.000 N 
ATOM     12  C   UNL     1       5.447   3.884  18.273  0.00  0.00    +0.000 A 
ATOM     13  O   UNL     1       5.176   3.887  19.472  0.00  0.00    +0.000 OA
ATOM     14  N   UNL     1       6.714   4.211  17.857  0.00  0.00    +0.000 N 
ATOM     15  C   UNL     1       7.095   4.476  16.573  0.00  0.00    +0.000 A 
ATOM     16  O   UNL     1       8.217   4.891  16.296  0.00  0.00    +0.000 OA
ATOM     17  H   UNL     1       7.398   4.399  18.573  0.00  0.00    +0.000 HD
ENDBRANCH   1  11
BRANCH   4  18
ATOM     18  O   UNL     1       0.498   3.780  20.782  0.00  0.00    +0.000 OA
ATOM     19  H   UNL     1       1.044   4.469  21.212  0.00  0.00    +0.000 HD
ENDBRANCH   4  18
BRANCH   5  20
ATOM     20  O   UNL     1       3.176   3.025  20.896  0.00  0.00    +0.000 OA
ATOM     21  H   UNL     1       2.599   3.359  21.620  0.00  0.00    +0.000 HD
ENDBRANCH   5  20
BRANCH   3  22
ATOM     22  C   UNL     1       2.567   5.596  19.631  0.00  0.00    +0.000 C 
BRANCH  22  23
ATOM     23  O   UNL     1       1.887   5.980  20.829  0.00  0.00    +0.000 OA
ATOM     24  H   UNL     1       2.342   6.770  21.169  0.00  0.00    +0.000 HD
ENDBRANCH  22  23
ENDBRANCH   3  22
TORSDOF 5
ENDMDL
MODEL 9
REMARK VINA RESULT:      -6.7      1.863      5.455
REMARK  Name = 
REMARK  6 active torsions:
REMARK  status: ('A' for Active; 'I' for Inactive)
REMARK    1  A    between atoms: C_1  and  C_2
REMARK    2  A    between atoms: N_4  and  C_5
REMARK    3  A    between atoms: C_7  and  C_8
REMARK    4  A    between atoms: C_8  and  O_9
REMARK    5  A    between atoms: C_10  and  O_11
REMARK    6  A    between atoms: C_12  and  O_13
REMARK                            x       y       z     vdW  Elec       q    Type
REMARK                         _______ _______ _______ _____ _____    ______ ____
ROOT
ATOM      1  C   UNL     1       5.165   5.780  18.770  0.00  0.00    +0.000 C 
ATOM      2  O   UNL     1       4.672   6.154  17.497  0.00  0.00    +0.000 OA
ATOM      3  C   UNL     1       5.443   5.778  16.349  0.00  0.00    +0.000 C 
ATOM      4  C   UNL     1       6.950   6.003  16.576  0.00  0.00    +0.000 C 
ATOM      5  C   UNL     1       7.483   5.189  17.757  0.00  0.00    +0.000 C 
ATOM      6  C   UNL     1       6.679   5.556  18.992  0.00  0.00    +0.000 C 
ATOM      7  O   UNL     1       7.199   5.582  20.111  0.00  0.00    +0.000 OA
ENDROOT
BRANCH   1  11
ATOM      8  C   UNL     1       0.633   4.925  20.552  0.00  0.00    +0.000 C 
ATOM      9  C   UNL     1       2.031   4.486  20.263  0.00  0.00    +0.000 A 
ATOM     10  C   UNL     1       2.975   5.277  19.743  0.00  0.00    +0.000 A 
ATOM     11  N   UNL     1       4.240   4.827  19.404  0.00  0.00    +0.000 N 
ATOM     12  C   UNL     1       4.575   3.489  19.532  0.00  0.00    +0.000 A 
ATOM     13  O   UNL     1       5.604   2.983  19.088  0.00  0.00    +0.000 OA
ATOM     14  N   UNL     1       3.662   2.710  20.198  0.00  0.00    +0.000 N 
ATOM     15  C   UNL     1       2.390   3.074  20.535  0.00  0.00    +0.000 A 
ATOM     16  O   UNL     1       1.586   2.278  21.012  0.00  0.00    +0.000 OA
ATOM     17  H   UNL     1       3.900   1.742  20.339  0.00  0.00    +0.000 HD
ENDBRANCH   1  11
BRANCH   4  18
ATOM     18  O   UNL     1       7.698   5.706  15.394  0.00  0.00    +0.000 OA
ATOM     19  H   UNL     1       7.322   4.881  15.024  0.00  0.00    +0.000 HD
ENDBRANCH   4  18
BRANCH   5  20
ATOM     20  O   UNL     1       7.464   3.807  17.418  0.00  0.00    +0.000 OA
ATOM     21  H   UNL     1       7.347   3.752  16.442  0.00  0.00    +0.000 HD
ENDBRANCH   5  20
BRANCH   3  22
ATOM     22  C   UNL     1       5.063   4.377  15.838  0.00  0.00    +0.000 C 
BRANCH  22  23
ATOM     23  O   UNL     1       5.459   4.233  14.472  0.00  0.00    +0.000 OA
ATOM     24  H   UNL     1       6.181   3.581  14.455  0.00  0.00    +0.000 HD
ENDBRANCH  22  23
ENDBRANCH   3  22
TORSDOF 5
ENDMDL
