MODEL 1
REMARK VINA RESULT:      -7.6      0.000      0.000
REMARK  Name = 
REMARK  3 active torsions:
REMARK  status: ('A' for Active; 'I' for Inactive)
REMARK    1  A    between atoms: C_2  and  C_5
REMARK    2  A    between atoms: N_10  and  N_11
REMARK    3  A    between atoms: C_12  and  C_13
REMARK                            x       y       z     vdW  Elec       q    Type
REMARK                         _______ _______ _______ _____ _____    ______ ____
ROOT
ATOM      1  C   UNL     1       2.342   3.288  19.972  0.00  0.00    +0.000 A 
ATOM      2  C   UNL     1       1.214   3.330  19.173  0.00  0.00    +0.000 A 
ATOM      3  C   UNL     1       1.432   3.490  17.830  0.00  0.00    +0.000 A 
ATOM      4  N   UNL     1       2.656   3.594  17.294  0.00  0.00    +0.000 NA
ATOM      5  C   UNL     1       3.715   3.553  18.121  0.00  0.00    +0.000 A 
ATOM      6  N   UNL     1       5.012   3.652  17.611  0.00  0.00    +0.000 N 
ATOM      7  N   UNL     1       3.596   3.411  19.452  0.00  0.00    +0.000 NA
ATOM      8  H   UNL     1       5.729   3.715  18.320  0.00  0.00    +0.000 HD
ENDROOT
BRANCH   1  10
ATOM      9  F   UNL     1       0.936   2.660  21.826  0.00  0.00    +0.000 F 
ATOM     10  C   UNL     1       2.188   3.080  21.469  0.00  0.00    +0.000 C 
ATOM     11  F   UNL     1       2.410   4.213  22.193  0.00  0.00    +0.000 F 
ATOM     12  F   UNL     1       3.039   2.138  21.967  0.00  0.00    +0.000 F 
ENDBRANCH   1  10
BRANCH   6  13
ATOM     13  N   UNL     1       5.210   3.768  16.280  0.00  0.00    +0.000 NA
ATOM     14  C   UNL     1       6.375   4.173  15.897  0.00  0.00    +0.000 C 
BRANCH  14  15
ATOM     15  C   UNL     1       6.682   4.307  14.457  0.00  0.00    +0.000 A 
ATOM     16  C   UNL     1       7.625   5.247  14.025  0.00  0.00    +0.000 A 
ATOM     17  C   UNL     1       7.907   5.379  12.666  0.00  0.00    +0.000 A 
ATOM     18  C   UNL     1       7.247   4.570  11.740  0.00  0.00    +0.000 A 
ATOM     19  C   UNL     1       6.307   3.632  12.171  0.00  0.00    +0.000 A 
ATOM     20  C   UNL     1       6.020   3.498  13.532  0.00  0.00    +0.000 A 
ENDBRANCH  14  15
ENDBRANCH   6  13
TORSDOF 3
ENDMDL
MODEL 2
REMARK VINA RESULT:      -7.6      6.690      8.084
REMARK  Name = 
REMARK  3 active torsions:
REMARK  status: ('A' for Active; 'I' for Inactive)
REMARK    1  A    between atoms: C_2  and  C_5
REMARK    2  A    between atoms: N_10  and  N_11
REMARK    3  A    between atoms: C_12  and  C_13
REMARK                            x       y       z     vdW  Elec       q    Type
REMARK                         _______ _______ _______ _____ _____    ______ ____
ROOT
ATOM      1  C   UNL     1       6.390   5.218  16.765  0.00  0.00    +0.000 A 
ATOM      2  C   UNL     1       6.846   4.508  17.861  0.00  0.00    +0.000 A 
ATOM      3  C   UNL     1       7.603   5.210  18.761  0.00  0.00    +0.000 A 
ATOM      4  N   UNL     1       7.895   6.509  18.616  0.00  0.00    +0.000 NA
ATOM      5  C   UNL     1       7.431   7.145  17.526  0.00  0.00    +0.000 A 
ATOM      6  N   UNL     1       7.703   8.502  17.332  0.00  0.00    +0.000 N 
ATOM      7  N   UNL     1       6.691   6.535  16.586  0.00  0.00    +0.000 NA
ATOM      8  H   UNL     1       7.400   8.859  16.437  0.00  0.00    +0.000 HD
ENDROOT
BRANCH   1  10
ATOM      9  F   UNL     1       5.216   5.313  14.662  0.00  0.00    +0.000 F 
ATOM     10  C   UNL     1       5.516   4.521  15.736  0.00  0.00    +0.000 C 
ATOM     11  F   UNL     1       4.312   4.122  16.238  0.00  0.00    +0.000 F 
ATOM     12  F   UNL     1       6.096   3.406  15.210  0.00  0.00    +0.000 F 
ENDBRANCH   1  10
BRANCH   6  13
ATOM     13  N   UNL     1       8.418   9.188  18.251  0.00  0.00    +0.000 NA
ATOM     14  C   UNL     1       8.995  10.272  17.849  0.00  0.00    +0.000 C 
BRANCH  14  15
ATOM     15  C   UNL     1       9.779  11.093  18.795  0.00  0.00    +0.000 A 
ATOM     16  C   UNL     1       9.381  11.195  20.133  0.00  0.00    +0.000 A 
ATOM     17  C   UNL     1      10.116  11.978  21.023  0.00  0.00    +0.000 A 
ATOM     18  C   UNL     1      11.250  12.656  20.575  0.00  0.00    +0.000 A 
ATOM     19  C   UNL     1      11.648  12.554  19.240  0.00  0.00    +0.000 A 
ATOM     20  C   UNL     1      10.912  11.773  18.344  0.00  0.00    +0.000 A 
ENDBRANCH  14  15
ENDBRANCH   6  13
TORSDOF 3
ENDMDL
MODEL 3
REMARK VINA RESULT:      -7.6      6.688      8.073
REMARK  Name = 
REMARK  3 active torsions:
REMARK  status: ('A' for Active; 'I' for Inactive)
REMARK    1  A    between atoms: C_2  and  C_5
REMARK    2  A    between atoms: N_10  and  N_11
REMARK    3  A    between atoms: C_12  and  C_13
REMARK                            x       y       z     vdW  Elec       q    Type
REMARK                         _______ _______ _______ _____ _____    ______ ____
ROOT
ATOM      1  C   UNL     1       6.434   5.226  16.691  0.00  0.00    +0.000 A 
ATOM      2  C   UNL     1       6.916   4.521  17.779  0.00  0.00    +0.000 A 
ATOM      3  C   UNL     1       7.648   5.241  18.687  0.00  0.00    +0.000 A 
ATOM      4  N   UNL     1       7.891   6.552  18.557  0.00  0.00    +0.000 NA
ATOM      5  C   UNL     1       7.402   7.182  17.475  0.00  0.00    +0.000 A 
ATOM      6  N   UNL     1       7.623   8.551  17.296  0.00  0.00    +0.000 N 
ATOM      7  N   UNL     1       6.685   6.555  16.527  0.00  0.00    +0.000 NA
ATOM      8  H   UNL     1       7.305   8.906  16.405  0.00  0.00    +0.000 HD
ENDROOT
BRANCH   1  10
ATOM      9  F   UNL     1       6.210   3.420  15.111  0.00  0.00    +0.000 F 
ATOM     10  C   UNL     1       5.585   4.508  15.655  0.00  0.00    +0.000 C 
ATOM     11  F   UNL     1       5.249   5.299  14.596  0.00  0.00    +0.000 F 
ATOM     12  F   UNL     1       4.413   4.034  16.162  0.00  0.00    +0.000 F 
ENDBRANCH   1  10
BRANCH   6  13
ATOM     13  N   UNL     1       8.311   9.253  18.222  0.00  0.00    +0.000 NA
ATOM     14  C   UNL     1       8.998  10.261  17.797  0.00  0.00    +0.000 C 
BRANCH  14  15
ATOM     15  C   UNL     1       9.764  11.095  18.747  0.00  0.00    +0.000 A 
ATOM     16  C   UNL     1      10.813  11.899  18.287  0.00  0.00    +0.000 A 
ATOM     17  C   UNL     1      11.541  12.679  19.186  0.00  0.00    +0.000 A 
ATOM     18  C   UNL     1      11.218  12.655  20.543  0.00  0.00    +0.000 A 
ATOM     19  C   UNL     1      10.171  11.853  21.002  0.00  0.00    +0.000 A 
ATOM     20  C   UNL     1       9.441  11.068  20.105  0.00  0.00    +0.000 A 
ENDBRANCH  14  15
ENDBRANCH   6  13
TORSDOF 3
ENDMDL
MODEL 4
REMARK VINA RESULT:      -7.5      0.752      1.141
REMARK  Name = 
REMARK  3 active torsions:
REMARK  status: ('A' for Active; 'I' for Inactive)
REMARK    1  A    between atoms: C_2  and  C_5
REMARK    2  A    between atoms: N_10  and  N_11
REMARK    3  A    between atoms: C_12  and  C_13
REMARK                            x       y       z     vdW  Elec       q    Type
REMARK                         _______ _______ _______ _____ _____    ______ ____
ROOT
ATOM      1  C   UNL     1       2.502   3.170  19.826  0.00  0.00    +0.000 A 
ATOM      2  C   UNL     1       1.953   2.190  19.019  0.00  0.00    +0.000 A 
ATOM      3  C   UNL     1       2.296   2.239  17.693  0.00  0.00    +0.000 A 
ATOM      4  N   UNL     1       3.118   3.166  17.183  0.00  0.00    +0.000 NA
ATOM      5  C   UNL     1       3.615   4.098  18.015  0.00  0.00    +0.000 A 
ATOM      6  N   UNL     1       4.481   5.083  17.533  0.00  0.00    +0.000 N 
ATOM      7  N   UNL     1       3.325   4.135  19.326  0.00  0.00    +0.000 NA
ATOM      8  H   UNL     1       4.715   5.793  18.212  0.00  0.00    +0.000 HD
ENDROOT
BRANCH   1  10
ATOM      9  F   UNL     1       2.383   4.388  21.902  0.00  0.00    +0.000 F 
ATOM     10  C   UNL     1       2.199   3.166  21.314  0.00  0.00    +0.000 C 
ATOM     11  F   UNL     1       2.984   2.304  22.020  0.00  0.00    +0.000 F 
ATOM     12  F   UNL     1       0.910   2.823  21.595  0.00  0.00    +0.000 F 
ENDBRANCH   1  10
BRANCH   6  13
ATOM     13  N   UNL     1       4.840   5.092  16.231  0.00  0.00    +0.000 NA
ATOM     14  C   UNL     1       5.941   4.488  15.926  0.00  0.00    +0.000 C 
BRANCH  14  15
ATOM     15  C   UNL     1       6.397   4.432  14.521  0.00  0.00    +0.000 A 
ATOM     16  C   UNL     1       7.456   5.242  14.094  0.00  0.00    +0.000 A 
ATOM     17  C   UNL     1       7.879   5.195  12.766  0.00  0.00    +0.000 A 
ATOM     18  C   UNL     1       7.245   4.337  11.867  0.00  0.00    +0.000 A 
ATOM     19  C   UNL     1       6.188   3.529  12.293  0.00  0.00    +0.000 A 
ATOM     20  C   UNL     1       5.759   3.575  13.622  0.00  0.00    +0.000 A 
ENDBRANCH  14  15
ENDBRANCH   6  13
TORSDOF 3
ENDMDL
MODEL 5
REMARK VINA RESULT:      -7.5      7.012      8.495
REMARK  Name = 
REMARK  3 active torsions:
REMARK  status: ('A' for Active; 'I' for Inactive)
REMARK    1  A    between atoms: C_2  and  C_5
REMARK    2  A    between atoms: N_10  and  N_11
REMARK    3  A    between atoms: C_12  and  C_13
REMARK                            x       y       z     vdW  Elec       q    Type
REMARK                         _______ _______ _______ _____ _____    ______ ____
ROOT
ATOM      1  C   UNL     1       6.983   5.273  16.566  0.00  0.00    +0.000 A 
ATOM      2  C   UNL     1       7.231   4.624  17.762  0.00  0.00    +0.000 A 
ATOM      3  C   UNL     1       7.728   5.400  18.776  0.00  0.00    +0.000 A 
ATOM      4  N   UNL     1       7.963   6.712  18.648  0.00  0.00    +0.000 NA
ATOM      5  C   UNL     1       7.710   7.287  17.459  0.00  0.00    +0.000 A 
ATOM      6  N   UNL     1       7.932   8.654  17.275  0.00  0.00    +0.000 N 
ATOM      7  N   UNL     1       7.233   6.603  16.405  0.00  0.00    +0.000 NA
ATOM      8  H   UNL     1       7.810   8.967  16.322  0.00  0.00    +0.000 HD
ENDROOT
BRANCH   1  10
ATOM      9  F   UNL     1       6.240   3.161  15.674  0.00  0.00    +0.000 F 
ATOM     10  C   UNL     1       6.400   4.492  15.401  0.00  0.00    +0.000 C 
ATOM     11  F   UNL     1       7.176   4.540  14.281  0.00  0.00    +0.000 F 
ATOM     12  F   UNL     1       5.166   4.934  15.028  0.00  0.00    +0.000 F 
ENDBRANCH   1  10
BRANCH   6  13
ATOM     13  N   UNL     1       8.384   9.411  18.299  0.00  0.00    +0.000 NA
ATOM     14  C   UNL     1       8.950  10.531  17.990  0.00  0.00    +0.000 C 
BRANCH  14  15
ATOM     15  C   UNL     1       9.454  11.429  19.050  0.00  0.00    +0.000 A 
ATOM     16  C   UNL     1       9.365  11.047  20.394  0.00  0.00    +0.000 A 
ATOM     17  C   UNL     1       9.833  11.899  21.395  0.00  0.00    +0.000 A 
ATOM     18  C   UNL     1      10.390  13.130  21.050  0.00  0.00    +0.000 A 
ATOM     19  C   UNL     1      10.479  13.511  19.710  0.00  0.00    +0.000 A 
ATOM     20  C   UNL     1      10.009  12.662  18.705  0.00  0.00    +0.000 A 
ENDBRANCH  14  15
ENDBRANCH   6  13
TORSDOF 3
ENDMDL
MODEL 6
REMARK VINA RESULT:      -7.5      0.751      1.596
REMARK  Name = 
REMARK  3 active torsions:
REMARK  status: ('A' for Active; 'I' for Inactive)
REMARK    1  A    between atoms: C_2  and  C_5
REMARK    2  A    between atoms: N_10  and  N_11
REMARK    3  A    between atoms: C_12  and  C_13
REMARK                            x       y       z     vdW  Elec       q    Type
REMARK                         _______ _______ _______ _____ _____    ______ ____
ROOT
ATOM      1  C   UNL     1       2.486   3.324  19.758  0.00  0.00    +0.000 A 
ATOM      2  C   UNL     1       1.891   2.394  18.925  0.00  0.00    +0.000 A 
ATOM      3  C   UNL     1       2.244   2.458  17.602  0.00  0.00    +0.000 A 
ATOM      4  N   UNL     1       3.115   3.354  17.119  0.00  0.00    +0.000 NA
ATOM      5  C   UNL     1       3.655   4.238  17.976  0.00  0.00    +0.000 A 
ATOM      6  N   UNL     1       4.573   5.189  17.522  0.00  0.00    +0.000 N 
ATOM      7  N   UNL     1       3.360   4.257  19.286  0.00  0.00    +0.000 NA
ATOM      8  H   UNL     1       4.840   5.869  18.220  0.00  0.00    +0.000 HD
ENDROOT
BRANCH   1  10
ATOM      9  F   UNL     1       2.959   2.423  21.943  0.00  0.00    +0.000 F 
ATOM     10  C   UNL     1       2.174   3.299  21.245  0.00  0.00    +0.000 C 
ATOM     11  F   UNL     1       0.890   2.931  21.518  0.00  0.00    +0.000 F 
ATOM     12  F   UNL     1       2.360   4.507  21.848  0.00  0.00    +0.000 F 
ENDBRANCH   1  10
BRANCH   6  13
ATOM     13  N   UNL     1       4.940   5.211  16.222  0.00  0.00    +0.000 NA
ATOM     14  C   UNL     1       5.947   4.474  15.889  0.00  0.00    +0.000 C 
BRANCH  14  15
ATOM     15  C   UNL     1       6.401   4.424  14.483  0.00  0.00    +0.000 A 
ATOM     16  C   UNL     1       5.801   3.536  13.583  0.00  0.00    +0.000 A 
ATOM     17  C   UNL     1       6.237   3.483  12.258  0.00  0.00    +0.000 A 
ATOM     18  C   UNL     1       7.269   4.321  11.835  0.00  0.00    +0.000 A 
ATOM     19  C   UNL     1       7.867   5.207  12.733  0.00  0.00    +0.000 A 
ATOM     20  C   UNL     1       7.436   5.261  14.062  0.00  0.00    +0.000 A 
ENDBRANCH  14  15
ENDBRANCH   6  13
TORSDOF 3
ENDMDL
MODEL 7
REMARK VINA RESULT:      -7.5      0.472      1.207
REMARK  Name = 
REMARK  3 active torsions:
REMARK  status: ('A' for Active; 'I' for Inactive)
REMARK    1  A    between atoms: C_2  and  C_5
REMARK    2  A    between atoms: N_10  and  N_11
REMARK    3  A    between atoms: C_12  and  C_13
REMARK                            x       y       z     vdW  Elec       q    Type
REMARK                         _______ _______ _______ _____ _____    ______ ____
ROOT
ATOM      1  C   UNL     1       2.473   3.010  19.933  0.00  0.00    +0.000 A 
ATOM      2  C   UNL     1       1.513   2.485  19.087  0.00  0.00    +0.000 A 
ATOM      3  C   UNL     1       1.862   2.391  17.766  0.00  0.00    +0.000 A 
ATOM      4  N   UNL     1       3.056   2.772  17.294  0.00  0.00    +0.000 NA
ATOM      5  C   UNL     1       3.946   3.283  18.163  0.00  0.00    +0.000 A 
ATOM      6  N   UNL     1       5.208   3.690  17.723  0.00  0.00    +0.000 N 
ATOM      7  N   UNL     1       3.688   3.423  19.474  0.00  0.00    +0.000 NA
ATOM      8  H   UNL     1       5.761   4.153  18.430  0.00  0.00    +0.000 HD
ENDROOT
BRANCH   1  10
ATOM      9  F   UNL     1       0.889   2.787  21.736  0.00  0.00    +0.000 F 
ATOM     10  C   UNL     1       2.178   3.117  21.420  0.00  0.00    +0.000 C 
ATOM     11  F   UNL     1       2.360   4.374  21.914  0.00  0.00    +0.000 F 
ATOM     12  F   UNL     1       2.956   2.294  22.178  0.00  0.00    +0.000 F 
ENDBRANCH   1  10
BRANCH   6  13
ATOM     13  N   UNL     1       5.549   3.553  16.423  0.00  0.00    +0.000 NA
ATOM     14  C   UNL     1       6.052   4.590  15.839  0.00  0.00    +0.000 C 
BRANCH  14  15
ATOM     15  C   UNL     1       6.471   4.519  14.424  0.00  0.00    +0.000 A 
ATOM     16  C   UNL     1       5.838   3.629  13.548  0.00  0.00    +0.000 A 
ATOM     17  C   UNL     1       6.241   3.557  12.214  0.00  0.00    +0.000 A 
ATOM     18  C   UNL     1       7.274   4.376  11.757  0.00  0.00    +0.000 A 
ATOM     19  C   UNL     1       7.905   5.264  12.631  0.00  0.00    +0.000 A 
ATOM     20  C   UNL     1       7.507   5.337  13.968  0.00  0.00    +0.000 A 
ENDBRANCH  14  15
ENDBRANCH   6  13
TORSDOF 3
ENDMDL
MODEL 8
REMARK VINA RESULT:      -7.3      6.961      8.374
REMARK  Name = 
REMARK  3 active torsions:
REMARK  status: ('A' for Active; 'I' for Inactive)
REMARK    1  A    between atoms: C_2  and  C_5
REMARK    2  A    between atoms: N_10  and  N_11
REMARK    3  A    between atoms: C_12  and  C_13
REMARK                            x       y       z     vdW  Elec       q    Type
REMARK                         _______ _______ _______ _____ _____    ______ ____
ROOT
ATOM      1  C   UNL     1       6.824   5.361  16.801  0.00  0.00    +0.000 A 
ATOM      2  C   UNL     1       7.238   4.731  17.960  0.00  0.00    +0.000 A 
ATOM      3  C   UNL     1       7.863   5.523  18.886  0.00  0.00    +0.000 A 
ATOM      4  N   UNL     1       8.068   6.835  18.710  0.00  0.00    +0.000 NA
ATOM      5  C   UNL     1       7.650   7.392  17.559  0.00  0.00    +0.000 A 
ATOM      6  N   UNL     1       7.834   8.758  17.328  0.00  0.00    +0.000 N 
ATOM      7  N   UNL     1       7.038   6.691  16.590  0.00  0.00    +0.000 NA
ATOM      8  H   UNL     1       7.581   9.056  16.397  0.00  0.00    +0.000 HD
ENDROOT
BRANCH   1  10
ATOM      9  F   UNL     1       5.150   5.292  15.068  0.00  0.00    +0.000 F 
ATOM     10  C   UNL     1       6.093   4.560  15.737  0.00  0.00    +0.000 C 
ATOM     11  F   UNL     1       5.425   3.484  16.240  0.00  0.00    +0.000 F 
ATOM     12  F   UNL     1       6.923   4.075  14.771  0.00  0.00    +0.000 F 
ENDBRANCH   1  10
BRANCH   6  13
ATOM     13  N   UNL     1       8.416   9.532  18.271  0.00  0.00    +0.000 NA
ATOM     14  C   UNL     1       8.933  10.646  17.871  0.00  0.00    +0.000 C 
BRANCH  14  15
ATOM     15  C   UNL     1       9.570  11.562  18.841  0.00  0.00    +0.000 A 
ATOM     16  C   UNL     1      10.835  11.263  19.361  0.00  0.00    +0.000 A 
ATOM     17  C   UNL     1      11.432  12.123  20.283  0.00  0.00    +0.000 A 
ATOM     18  C   UNL     1      10.765  13.282  20.681  0.00  0.00    +0.000 A 
ATOM     19  C   UNL     1       9.503  13.580  20.162  0.00  0.00    +0.000 A 
ATOM     20  C   UNL     1       8.901  12.720  19.241  0.00  0.00    +0.000 A 
ENDBRANCH  14  15
ENDBRANCH   6  13
TORSDOF 3
ENDMDL
MODEL 9
REMARK VINA RESULT:      -7.1      6.304      7.497
REMARK  Name = 
REMARK  3 active torsions:
REMARK  status: ('A' for Active; 'I' for Inactive)
REMARK    1  A    between atoms: C_2  and  C_5
REMARK    2  A    between atoms: N_10  and  N_11
REMARK    3  A    between atoms: C_12  and  C_13
REMARK                            x       y       z     vdW  Elec       q    Type
REMARK                         _______ _______ _______ _____ _____    ______ ____
ROOT
ATOM      1  C   UNL     1       5.608   5.449  17.775  0.00  0.00    +0.000 A 
ATOM      2  C   UNL     1       6.390   4.716  18.649  0.00  0.00    +0.000 A 
ATOM      3  C   UNL     1       7.553   5.313  19.062  0.00  0.00    +0.000 A 
ATOM      4  N   UNL     1       7.931   6.535  18.663  0.00  0.00    +0.000 NA
ATOM      5  C   UNL     1       7.132   7.196  17.807  0.00  0.00    +0.000 A 
ATOM      6  N   UNL     1       7.479   8.476  17.365  0.00  0.00    +0.000 N 
ATOM      7  N   UNL     1       5.981   6.685  17.340  0.00  0.00    +0.000 NA
ATOM      8  H   UNL     1       6.870   8.843  16.648  0.00  0.00    +0.000 HD
ENDROOT
BRANCH   1  10
ATOM      9  F   UNL     1       4.367   4.308  16.053  0.00  0.00    +0.000 F 
ATOM     10  C   UNL     1       4.286   4.873  17.296  0.00  0.00    +0.000 C 
ATOM     11  F   UNL     1       3.296   5.805  17.206  0.00  0.00    +0.000 F 
ATOM     12  F   UNL     1       3.809   3.888  18.108  0.00  0.00    +0.000 F 
ENDBRANCH   1  10
BRANCH   6  13
ATOM     13  N   UNL     1       8.608   9.065  17.815  0.00  0.00    +0.000 NA
ATOM     14  C   UNL     1       8.518  10.304  18.171  0.00  0.00    +0.000 C 
BRANCH  14  15
ATOM     15  C   UNL     1       9.701  11.018  18.694  0.00  0.00    +0.000 A 
ATOM     16  C   UNL     1       9.847  11.222  20.071  0.00  0.00    +0.000 A 
ATOM     17  C   UNL     1      10.960  11.904  20.562  0.00  0.00    +0.000 A 
ATOM     18  C   UNL     1      11.928  12.379  19.676  0.00  0.00    +0.000 A 
ATOM     19  C   UNL     1      11.783  12.175  18.302  0.00  0.00    +0.000 A 
ATOM     20  C   UNL     1      10.668  11.495  17.805  0.00  0.00    +0.000 A 
ENDBRANCH  14  15
ENDBRANCH   6  13
TORSDOF 3
ENDMDL
