MODEL 1
REMARK VINA RESULT:      -8.6      0.000      0.000
REMARK  Name = 
REMARK  10 active torsions:
REMARK  status: ('A' for Active; 'I' for Inactive)
REMARK    1  A    between atoms: C_2  and  C_3
REMARK    2  A    between atoms: C_3  and  N_4
REMARK    3  A    between atoms: C_5  and  C_7
REMARK    4  A    between atoms: C_8  and  C_9
REMARK    5  A    between atoms: C_11  and  C_12
REMARK    6  A    between atoms: C_20  and  C_21
REMARK    7  A    between atoms: N_23  and  C_24
REMARK    8  A    between atoms: C_24  and  C_25
REMARK    9  A    between atoms: C_24  and  C_26
REMARK   10  A    between atoms: C_34  and  C_35
REMARK                            x       y       z     vdW  Elec       q    Type
REMARK                         _______ _______ _______ _____ _____    ______ ____
ROOT
ATOM      1  C   UNL     1       2.202   8.458  17.764  0.00  0.00    +0.000 C 
ATOM      2  C   UNL     1       2.642   7.490  18.596  0.00  0.00    +0.000 C 
ATOM      3  C   UNL     1       2.070   7.074  19.940  0.00  0.00    +0.000 C 
ATOM      4  O   UNL     1       1.294   7.669  20.663  0.00  0.00    +0.000 OA
ATOM      5  N   UNL     1       2.677   5.875  20.245  0.00  0.00    +0.000 N 
ATOM      6  C   UNL     1       3.642   5.543  19.309  0.00  0.00    +0.000 A 
ATOM      7  C   UNL     1       4.454   4.432  19.354  0.00  0.00    +0.000 A 
ATOM      8  C   UNL     1       5.387   4.289  18.328  0.00  0.00    +0.000 A 
ATOM      9  C   UNL     1       5.516   5.260  17.302  0.00  0.00    +0.000 A 
ATOM     10  C   UNL     1       4.679   6.398  17.303  0.00  0.00    +0.000 A 
ATOM     11  C   UNL     1       3.715   6.511  18.299  0.00  0.00    +0.000 A 
ATOM     12  H   UNL     1       2.469   5.365  21.091  0.00  0.00    +0.000 HD
ENDROOT
BRANCH   1  17
ATOM     13  C   UNL     1      -0.455  10.947  18.526  0.00  0.00    +0.000 A 
ATOM     14  C   UNL     1      -0.999  10.101  17.567  0.00  0.00    +0.000 A 
ATOM     15  C   UNL     1      -2.227  10.120  16.728  0.00  0.00    +0.000 C 
ATOM     16  N   UNL     1      -0.095   9.093  17.349  0.00  0.00    +0.000 N 
ATOM     17  C   UNL     1       1.090   9.326  17.994  0.00  0.00    +0.000 A 
ATOM     18  C   UNL     1       0.876  10.436  18.805  0.00  0.00    +0.000 A 
ATOM     19  C   UNL     1       1.840  11.079  19.750  0.00  0.00    +0.000 C 
ATOM     20  H   UNL     1      -0.220   8.391  16.629  0.00  0.00    +0.000 HD
BRANCH  13  22
ATOM     21  N   UNL     1      -1.831  12.006  20.188  0.00  0.00    +0.000 N 
ATOM     22  C   UNL     1      -1.043  12.177  19.073  0.00  0.00    +0.000 C 
ATOM     23  O   UNL     1      -0.832  13.283  18.582  0.00  0.00    +0.000 OA
ATOM     24  H   UNL     1      -1.802  11.113  20.660  0.00  0.00    +0.000 HD
BRANCH  21  25
ATOM     25  C   UNL     1      -2.532  13.092  20.813  0.00  0.00    +0.000 C 
BRANCH  25  27
ATOM     26  C   UNL     1      -1.654  12.043  22.921  0.00  0.00    +0.000 C 
ATOM     27  C   UNL     1      -2.462  12.908  22.294  0.00  0.00    +0.000 C 
ENDBRANCH  25  27
ENDBRANCH  21  25
ENDBRANCH  13  22
ENDBRANCH   1  17
BRANCH   9  28
ATOM     28  C   UNL     1       6.529   4.962  16.233  0.00  0.00    +0.000 C 
ATOM     29  O   UNL     1       7.706   4.802  16.541  0.00  0.00    +0.000 OA
ATOM     30  N   UNL     1       6.086   4.836  14.935  0.00  0.00    +0.000 N 
ATOM     31  H   UNL     1       5.114   4.946  14.704  0.00  0.00    +0.000 HD
BRANCH  30  32
ATOM     32  C   UNL     1       6.967   4.362  13.872  0.00  0.00    +0.000 C 
ATOM     33  C   UNL     1       7.784   5.496  13.246  0.00  0.00    +0.000 C 
BRANCH  32  34
ATOM     34  C   UNL     1       6.150   3.630  12.820  0.00  0.00    +0.000 A 
ATOM     35  C   UNL     1       6.702   2.548  12.116  0.00  0.00    +0.000 A 
ATOM     36  C   UNL     1       5.949   1.867  11.157  0.00  0.00    +0.000 A 
ATOM     37  C   UNL     1       4.639   2.255  10.890  0.00  0.00    +0.000 A 
ATOM     38  C   UNL     1       4.075   3.325  11.581  0.00  0.00    +0.000 A 
ATOM     39  C   UNL     1       4.826   4.009  12.537  0.00  0.00    +0.000 A 
ENDBRANCH  32  34
ENDBRANCH  30  32
ENDBRANCH   9  28
TORSDOF 7
ENDMDL
MODEL 2
REMARK VINA RESULT:      -8.2      1.246      1.737
REMARK  Name = 
REMARK  10 active torsions:
REMARK  status: ('A' for Active; 'I' for Inactive)
REMARK    1  A    between atoms: C_2  and  C_3
REMARK    2  A    between atoms: C_3  and  N_4
REMARK    3  A    between atoms: C_5  and  C_7
REMARK    4  A    between atoms: C_8  and  C_9
REMARK    5  A    between atoms: C_11  and  C_12
REMARK    6  A    between atoms: C_20  and  C_21
REMARK    7  A    between atoms: N_23  and  C_24
REMARK    8  A    between atoms: C_24  and  C_25
REMARK    9  A    between atoms: C_24  and  C_26
REMARK   10  A    between atoms: C_34  and  C_35
REMARK                            x       y       z     vdW  Elec       q    Type
REMARK                         _______ _______ _______ _____ _____    ______ ____
ROOT
ATOM      1  C   UNL     1       2.370   8.529  17.675  0.00  0.00    +0.000 C 
ATOM      2  C   UNL     1       2.791   7.550  18.504  0.00  0.00    +0.000 C 
ATOM      3  C   UNL     1       2.214   7.144  19.849  0.00  0.00    +0.000 C 
ATOM      4  O   UNL     1       1.453   7.754  20.575  0.00  0.00    +0.000 OA
ATOM      5  N   UNL     1       2.796   5.932  20.150  0.00  0.00    +0.000 N 
ATOM      6  C   UNL     1       3.751   5.581  19.211  0.00  0.00    +0.000 A 
ATOM      7  C   UNL     1       4.539   4.453  19.252  0.00  0.00    +0.000 A 
ATOM      8  C   UNL     1       5.466   4.292  18.223  0.00  0.00    +0.000 A 
ATOM      9  C   UNL     1       5.614   5.262  17.199  0.00  0.00    +0.000 A 
ATOM     10  C   UNL     1       4.801   6.417  17.203  0.00  0.00    +0.000 A 
ATOM     11  C   UNL     1       3.842   6.549  18.202  0.00  0.00    +0.000 A 
ATOM     12  H   UNL     1       2.580   5.425  20.996  0.00  0.00    +0.000 HD
ENDROOT
BRANCH   1  17
ATOM     13  C   UNL     1      -0.223  11.099  18.385  0.00  0.00    +0.000 A 
ATOM     14  C   UNL     1      -0.861  10.123  17.627  0.00  0.00    +0.000 A 
ATOM     15  C   UNL     1      -2.180  10.021  16.945  0.00  0.00    +0.000 C 
ATOM     16  N   UNL     1       0.029   9.096  17.449  0.00  0.00    +0.000 N 
ATOM     17  C   UNL     1       1.277   9.420  17.909  0.00  0.00    +0.000 A 
ATOM     18  C   UNL     1       1.140  10.634  18.573  0.00  0.00    +0.000 A 
ATOM     19  C   UNL     1       2.196  11.407  19.297  0.00  0.00    +0.000 C 
ATOM     20  H   UNL     1      -0.167   8.298  16.857  0.00  0.00    +0.000 HD
BRANCH  13  22
ATOM     21  N   UNL     1      -0.069  13.497  18.381  0.00  0.00    +0.000 N 
ATOM     22  C   UNL     1      -0.765  12.394  18.817  0.00  0.00    +0.000 C 
ATOM     23  O   UNL     1      -1.780  12.488  19.504  0.00  0.00    +0.000 OA
ATOM     24  H   UNL     1       0.628  13.368  17.660  0.00  0.00    +0.000 HD
BRANCH  21  25
ATOM     25  C   UNL     1      -0.424  14.836  18.761  0.00  0.00    +0.000 C 
BRANCH  25  27
ATOM     26  C   UNL     1       1.723  15.866  19.565  0.00  0.00    +0.000 C 
ATOM     27  C   UNL     1       0.534  15.298  19.809  0.00  0.00    +0.000 C 
ENDBRANCH  25  27
ENDBRANCH  21  25
ENDBRANCH  13  22
ENDBRANCH   1  17
BRANCH   9  28
ATOM     28  C   UNL     1       6.617   4.944  16.127  0.00  0.00    +0.000 C 
ATOM     29  O   UNL     1       7.782   4.711  16.436  0.00  0.00    +0.000 OA
ATOM     30  N   UNL     1       6.178   4.884  14.823  0.00  0.00    +0.000 N 
ATOM     31  H   UNL     1       5.215   5.053  14.589  0.00  0.00    +0.000 HD
BRANCH  30  32
ATOM     32  C   UNL     1       7.041   4.397  13.749  0.00  0.00    +0.000 C 
ATOM     33  C   UNL     1       7.806   5.530  13.061  0.00  0.00    +0.000 C 
BRANCH  32  34
ATOM     34  C   UNL     1       6.214   3.607  12.748  0.00  0.00    +0.000 A 
ATOM     35  C   UNL     1       4.886   3.972  12.477  0.00  0.00    +0.000 A 
ATOM     36  C   UNL     1       4.128   3.255  11.549  0.00  0.00    +0.000 A 
ATOM     37  C   UNL     1       4.685   2.169  10.879  0.00  0.00    +0.000 A 
ATOM     38  C   UNL     1       6.003   1.795  11.133  0.00  0.00    +0.000 A 
ATOM     39  C   UNL     1       6.760   2.508  12.063  0.00  0.00    +0.000 A 
ENDBRANCH  32  34
ENDBRANCH  30  32
ENDBRANCH   9  28
TORSDOF 7
ENDMDL
MODEL 3
REMARK VINA RESULT:      -8.1      2.373     11.983
REMARK  Name = 
REMARK  10 active torsions:
REMARK  status: ('A' for Active; 'I' for Inactive)
REMARK    1  A    between atoms: C_2  and  C_3
REMARK    2  A    between atoms: C_3  and  N_4
REMARK    3  A    between atoms: C_5  and  C_7
REMARK    4  A    between atoms: C_8  and  C_9
REMARK    5  A    between atoms: C_11  and  C_12
REMARK    6  A    between atoms: C_20  and  C_21
REMARK    7  A    between atoms: N_23  and  C_24
REMARK    8  A    between atoms: C_24  and  C_25
REMARK    9  A    between atoms: C_24  and  C_26
REMARK   10  A    between atoms: C_34  and  C_35
REMARK                            x       y       z     vdW  Elec       q    Type
REMARK                         _______ _______ _______ _____ _____    ______ ____
ROOT
ATOM      1  C   UNL     1       2.183   7.412  19.937  0.00  0.00    +0.000 C 
ATOM      2  C   UNL     1       1.766   8.523  19.294  0.00  0.00    +0.000 C 
ATOM      3  C   UNL     1       2.048   8.943  17.862  0.00  0.00    +0.000 C 
ATOM      4  O   UNL     1       2.895   8.532  17.093  0.00  0.00    +0.000 OA
ATOM      5  N   UNL     1       1.176   9.978  17.601  0.00  0.00    +0.000 N 
ATOM      6  C   UNL     1       0.459  10.333  18.731  0.00  0.00    +0.000 A 
ATOM      7  C   UNL     1      -0.458  11.357  18.810  0.00  0.00    +0.000 A 
ATOM      8  C   UNL     1      -1.057  11.575  20.050  0.00  0.00    +0.000 A 
ATOM      9  C   UNL     1      -0.714  10.799  21.186  0.00  0.00    +0.000 A 
ATOM     10  C   UNL     1       0.247   9.770  21.070  0.00  0.00    +0.000 A 
ATOM     11  C   UNL     1       0.804   9.522  19.820  0.00  0.00    +0.000 A 
ATOM     12  H   UNL     1       1.142  10.443  16.706  0.00  0.00    +0.000 HD
ENDROOT
BRANCH   1  17
ATOM     13  C   UNL     1       4.091   4.699  18.254  0.00  0.00    +0.000 A 
ATOM     14  C   UNL     1       4.994   5.313  19.115  0.00  0.00    +0.000 A 
ATOM     15  C   UNL     1       6.466   5.238  19.317  0.00  0.00    +0.000 C 
ATOM     16  N   UNL     1       4.298   6.241  19.846  0.00  0.00    +0.000 N 
ATOM     17  C   UNL     1       3.014   6.384  19.392  0.00  0.00    +0.000 A 
ATOM     18  C   UNL     1       2.823   5.380  18.449  0.00  0.00    +0.000 A 
ATOM     19  C   UNL     1       1.577   5.068  17.682  0.00  0.00    +0.000 C 
ATOM     20  H   UNL     1       4.748   6.883  20.487  0.00  0.00    +0.000 HD
BRANCH  13  22
ATOM     21  N   UNL     1       5.202   4.025  16.233  0.00  0.00    +0.000 N 
ATOM     22  C   UNL     1       4.369   3.652  17.262  0.00  0.00    +0.000 C 
ATOM     23  O   UNL     1       3.908   2.518  17.354  0.00  0.00    +0.000 OA
ATOM     24  H   UNL     1       5.707   4.897  16.319  0.00  0.00    +0.000 HD
BRANCH  21  25
ATOM     25  C   UNL     1       5.529   3.146  15.145  0.00  0.00    +0.000 C 
BRANCH  25  27
ATOM     26  C   UNL     1       6.090   3.563  12.731  0.00  0.00    +0.000 C 
ATOM     27  C   UNL     1       6.027   3.973  14.005  0.00  0.00    +0.000 C 
ENDBRANCH  25  27
ENDBRANCH  21  25
ENDBRANCH  13  22
ENDBRANCH   1  17
BRANCH   9  28
ATOM     28  C   UNL     1      -1.466  11.108  22.449  0.00  0.00    +0.000 C 
ATOM     29  O   UNL     1      -1.266  10.433  23.455  0.00  0.00    +0.000 OA
ATOM     30  N   UNL     1      -2.335  12.177  22.444  0.00  0.00    +0.000 N 
ATOM     31  H   UNL     1      -2.469  12.734  21.619  0.00  0.00    +0.000 HD
BRANCH  30  32
ATOM     32  C   UNL     1      -2.957  12.660  23.674  0.00  0.00    +0.000 C 
ATOM     33  C   UNL     1      -4.480  12.760  23.553  0.00  0.00    +0.000 C 
BRANCH  32  34
ATOM     34  C   UNL     1      -2.349  13.998  24.063  0.00  0.00    +0.000 A 
ATOM     35  C   UNL     1      -1.195  14.469  23.418  0.00  0.00    +0.000 A 
ATOM     36  C   UNL     1      -0.642  15.703  23.766  0.00  0.00    +0.000 A 
ATOM     37  C   UNL     1      -1.233  16.482  24.758  0.00  0.00    +0.000 A 
ATOM     38  C   UNL     1      -2.380  16.030  25.406  0.00  0.00    +0.000 A 
ATOM     39  C   UNL     1      -2.932  14.795  25.063  0.00  0.00    +0.000 A 
ENDBRANCH  32  34
ENDBRANCH  30  32
ENDBRANCH   9  28
TORSDOF 7
ENDMDL
MODEL 4
REMARK VINA RESULT:      -8.0      1.928     11.314
REMARK  Name = 
REMARK  10 active torsions:
REMARK  status: ('A' for Active; 'I' for Inactive)
REMARK    1  A    between atoms: C_2  and  C_3
REMARK    2  A    between atoms: C_3  and  N_4
REMARK    3  A    between atoms: C_5  and  C_7
REMARK    4  A    between atoms: C_8  and  C_9
REMARK    5  A    between atoms: C_11  and  C_12
REMARK    6  A    between atoms: C_20  and  C_21
REMARK    7  A    between atoms: N_23  and  C_24
REMARK    8  A    between atoms: C_24  and  C_25
REMARK    9  A    between atoms: C_24  and  C_26
REMARK   10  A    between atoms: C_34  and  C_35
REMARK                            x       y       z     vdW  Elec       q    Type
REMARK                         _______ _______ _______ _____ _____    ______ ____
ROOT
ATOM      1  C   UNL     1       3.713   7.527  17.770  0.00  0.00    +0.000 C 
ATOM      2  C   UNL     1       2.874   7.182  18.770  0.00  0.00    +0.000 C 
ATOM      3  C   UNL     1       2.748   5.840  19.471  0.00  0.00    +0.000 C 
ATOM      4  O   UNL     1       3.160   4.750  19.125  0.00  0.00    +0.000 OA
ATOM      5  N   UNL     1       1.980   6.078  20.590  0.00  0.00    +0.000 N 
ATOM      6  C   UNL     1       1.515   7.382  20.618  0.00  0.00    +0.000 A 
ATOM      7  C   UNL     1       0.687   7.918  21.578  0.00  0.00    +0.000 A 
ATOM      8  C   UNL     1       0.306   9.249  21.413  0.00  0.00    +0.000 A 
ATOM      9  C   UNL     1       0.725  10.006  20.290  0.00  0.00    +0.000 A 
ATOM     10  C   UNL     1       1.557   9.414  19.314  0.00  0.00    +0.000 A 
ATOM     11  C   UNL     1       1.977   8.103  19.509  0.00  0.00    +0.000 A 
ATOM     12  H   UNL     1       1.746   5.350  21.249  0.00  0.00    +0.000 HD
ENDROOT
BRANCH   1  17
ATOM     13  C   UNL     1       6.129   5.488  15.810  0.00  0.00    +0.000 A 
ATOM     14  C   UNL     1       6.422   5.236  17.145  0.00  0.00    +0.000 A 
ATOM     15  C   UNL     1       7.528   4.546  17.863  0.00  0.00    +0.000 C 
ATOM     16  N   UNL     1       5.473   5.873  17.902  0.00  0.00    +0.000 N 
ATOM     17  C   UNL     1       4.666   6.671  17.136  0.00  0.00    +0.000 A 
ATOM     18  C   UNL     1       4.994   6.396  15.813  0.00  0.00    +0.000 A 
ATOM     19  C   UNL     1       4.376   6.969  14.578  0.00  0.00    +0.000 C 
ATOM     20  H   UNL     1       5.514   5.912  18.913  0.00  0.00    +0.000 HD
BRANCH  13  22
ATOM     21  N   UNL     1       6.178   4.198  13.783  0.00  0.00    +0.000 N 
ATOM     22  C   UNL     1       6.872   5.033  14.627  0.00  0.00    +0.000 C 
ATOM     23  O   UNL     1       8.025   5.389  14.398  0.00  0.00    +0.000 OA
ATOM     24  H   UNL     1       5.180   4.107  13.916  0.00  0.00    +0.000 HD
BRANCH  21  25
ATOM     25  C   UNL     1       6.773   3.612  12.615  0.00  0.00    +0.000 C 
BRANCH  25  27
ATOM     26  C   UNL     1       4.544   3.233  11.518  0.00  0.00    +0.000 C 
ATOM     27  C   UNL     1       5.739   2.784  11.924  0.00  0.00    +0.000 C 
ENDBRANCH  25  27
ENDBRANCH  21  25
ENDBRANCH  13  22
ENDBRANCH   1  17
BRANCH   9  28
ATOM     28  C   UNL     1       0.280  11.441  20.257  0.00  0.00    +0.000 C 
ATOM     29  O   UNL     1      -0.040  11.952  19.188  0.00  0.00    +0.000 OA
ATOM     30  N   UNL     1       0.208  12.127  21.449  0.00  0.00    +0.000 N 
ATOM     31  H   UNL     1       0.451  11.686  22.319  0.00  0.00    +0.000 HD
BRANCH  30  32
ATOM     32  C   UNL     1      -0.393  13.456  21.529  0.00  0.00    +0.000 C 
ATOM     33  C   UNL     1       0.620  14.526  21.943  0.00  0.00    +0.000 C 
BRANCH  32  34
ATOM     34  C   UNL     1      -1.576  13.425  22.482  0.00  0.00    +0.000 A 
ATOM     35  C   UNL     1      -2.184  12.206  22.822  0.00  0.00    +0.000 A 
ATOM     36  C   UNL     1      -3.265  12.174  23.707  0.00  0.00    +0.000 A 
ATOM     37  C   UNL     1      -3.749  13.355  24.264  0.00  0.00    +0.000 A 
ATOM     38  C   UNL     1      -3.156  14.572  23.939  0.00  0.00    +0.000 A 
ATOM     39  C   UNL     1      -2.079  14.607  23.053  0.00  0.00    +0.000 A 
ENDBRANCH  32  34
ENDBRANCH  30  32
ENDBRANCH   9  28
TORSDOF 7
ENDMDL
MODEL 5
REMARK VINA RESULT:      -8.0      1.923     11.085
REMARK  Name = 
REMARK  10 active torsions:
REMARK  status: ('A' for Active; 'I' for Inactive)
REMARK    1  A    between atoms: C_2  and  C_3
REMARK    2  A    between atoms: C_3  and  N_4
REMARK    3  A    between atoms: C_5  and  C_7
REMARK    4  A    between atoms: C_8  and  C_9
REMARK    5  A    between atoms: C_11  and  C_12
REMARK    6  A    between atoms: C_20  and  C_21
REMARK    7  A    between atoms: N_23  and  C_24
REMARK    8  A    between atoms: C_24  and  C_25
REMARK    9  A    between atoms: C_24  and  C_26
REMARK   10  A    between atoms: C_34  and  C_35
REMARK                            x       y       z     vdW  Elec       q    Type
REMARK                         _______ _______ _______ _____ _____    ______ ____
ROOT
ATOM      1  C   UNL     1       3.761   7.477  17.757  0.00  0.00    +0.000 C 
ATOM      2  C   UNL     1       2.923   7.111  18.751  0.00  0.00    +0.000 C 
ATOM      3  C   UNL     1       2.806   5.759  19.432  0.00  0.00    +0.000 C 
ATOM      4  O   UNL     1       3.227   4.676  19.071  0.00  0.00    +0.000 OA
ATOM      5  N   UNL     1       2.035   5.975  20.554  0.00  0.00    +0.000 N 
ATOM      6  C   UNL     1       1.560   7.275  20.599  0.00  0.00    +0.000 A 
ATOM      7  C   UNL     1       0.727   7.791  21.566  0.00  0.00    +0.000 A 
ATOM      8  C   UNL     1       0.336   9.121  21.419  0.00  0.00    +0.000 A 
ATOM      9  C   UNL     1       0.751   9.898  20.307  0.00  0.00    +0.000 A 
ATOM     10  C   UNL     1       1.589   9.326  19.324  0.00  0.00    +0.000 A 
ATOM     11  C   UNL     1       2.019   8.015  19.501  0.00  0.00    +0.000 A 
ATOM     12  H   UNL     1       1.806   5.236  21.202  0.00  0.00    +0.000 HD
ENDROOT
BRANCH   1  17
ATOM     13  C   UNL     1       6.189   5.479  15.770  0.00  0.00    +0.000 A 
ATOM     14  C   UNL     1       6.501   5.231  17.102  0.00  0.00    +0.000 A 
ATOM     15  C   UNL     1       7.626   4.559  17.807  0.00  0.00    +0.000 C 
ATOM     16  N   UNL     1       5.550   5.852  17.869  0.00  0.00    +0.000 N 
ATOM     17  C   UNL     1       4.721   6.637  17.112  0.00  0.00    +0.000 A 
ATOM     18  C   UNL     1       5.040   6.368  15.785  0.00  0.00    +0.000 A 
ATOM     19  C   UNL     1       4.399   6.931  14.557  0.00  0.00    +0.000 C 
ATOM     20  H   UNL     1       5.601   5.891  18.880  0.00  0.00    +0.000 HD
BRANCH  13  22
ATOM     21  N   UNL     1       6.242   4.183  13.747  0.00  0.00    +0.000 N 
ATOM     22  C   UNL     1       6.927   5.037  14.579  0.00  0.00    +0.000 C 
ATOM     23  O   UNL     1       8.068   5.419  14.333  0.00  0.00    +0.000 OA
ATOM     24  H   UNL     1       5.248   4.068  13.894  0.00  0.00    +0.000 HD
BRANCH  21  25
ATOM     25  C   UNL     1       6.835   3.606  12.573  0.00  0.00    +0.000 C 
BRANCH  25  27
ATOM     26  C   UNL     1       4.563   3.224  11.568  0.00  0.00    +0.000 C 
ATOM     27  C   UNL     1       5.795   2.795  11.870  0.00  0.00    +0.000 C 
ENDBRANCH  25  27
ENDBRANCH  21  25
ENDBRANCH  13  22
ENDBRANCH   1  17
BRANCH   9  28
ATOM     28  C   UNL     1       0.296  11.329  20.294  0.00  0.00    +0.000 C 
ATOM     29  O   UNL     1       0.475  12.013  19.290  0.00  0.00    +0.000 OA
ATOM     30  N   UNL     1      -0.351  11.816  21.408  0.00  0.00    +0.000 N 
ATOM     31  H   UNL     1      -0.512  11.235  22.212  0.00  0.00    +0.000 HD
BRANCH  30  32
ATOM     32  C   UNL     1      -0.992  13.129  21.405  0.00  0.00    +0.000 C 
ATOM     33  C   UNL     1      -0.562  13.986  22.598  0.00  0.00    +0.000 C 
BRANCH  32  34
ATOM     34  C   UNL     1      -2.502  12.961  21.368  0.00  0.00    +0.000 A 
ATOM     35  C   UNL     1      -3.160  12.709  20.155  0.00  0.00    +0.000 A 
ATOM     36  C   UNL     1      -4.547  12.543  20.120  0.00  0.00    +0.000 A 
ATOM     37  C   UNL     1      -5.291  12.623  21.294  0.00  0.00    +0.000 A 
ATOM     38  C   UNL     1      -4.653  12.870  22.508  0.00  0.00    +0.000 A 
ATOM     39  C   UNL     1      -3.269  13.040  22.544  0.00  0.00    +0.000 A 
ENDBRANCH  32  34
ENDBRANCH  30  32
ENDBRANCH   9  28
TORSDOF 7
ENDMDL
MODEL 6
REMARK VINA RESULT:      -8.0      3.579      6.311
REMARK  Name = 
REMARK  10 active torsions:
REMARK  status: ('A' for Active; 'I' for Inactive)
REMARK    1  A    between atoms: C_2  and  C_3
REMARK    2  A    between atoms: C_3  and  N_4
REMARK    3  A    between atoms: C_5  and  C_7
REMARK    4  A    between atoms: C_8  and  C_9
REMARK    5  A    between atoms: C_11  and  C_12
REMARK    6  A    between atoms: C_20  and  C_21
REMARK    7  A    between atoms: N_23  and  C_24
REMARK    8  A    between atoms: C_24  and  C_25
REMARK    9  A    between atoms: C_24  and  C_26
REMARK   10  A    between atoms: C_34  and  C_35
REMARK                            x       y       z     vdW  Elec       q    Type
REMARK                         _______ _______ _______ _____ _____    ______ ____
ROOT
ATOM      1  C   UNL     1      -1.437  11.829  19.865  0.00  0.00    +0.000 C 
ATOM      2  C   UNL     1      -0.777  11.112  20.798  0.00  0.00    +0.000 C 
ATOM      3  C   UNL     1      -0.966  11.129  22.305  0.00  0.00    +0.000 C 
ATOM      4  O   UNL     1      -1.535  11.949  23.000  0.00  0.00    +0.000 OA
ATOM      5  N   UNL     1      -0.281  10.030  22.777  0.00  0.00    +0.000 N 
ATOM      6  C   UNL     1       0.410   9.390  21.762  0.00  0.00    +0.000 A 
ATOM      7  C   UNL     1       1.224   8.290  21.915  0.00  0.00    +0.000 A 
ATOM      8  C   UNL     1       1.856   7.807  20.771  0.00  0.00    +0.000 A 
ATOM      9  C   UNL     1       1.694   8.438  19.511  0.00  0.00    +0.000 A 
ATOM     10  C   UNL     1       0.866   9.578  19.398  0.00  0.00    +0.000 A 
ATOM     11  C   UNL     1       0.197  10.026  20.532  0.00  0.00    +0.000 A 
ATOM     12  H   UNL     1      -0.249   9.794  23.758  0.00  0.00    +0.000 HD
ENDROOT
BRANCH   1  17
ATOM     13  C   UNL     1      -4.351  14.076  20.405  0.00  0.00    +0.000 A 
ATOM     14  C   UNL     1      -3.287  14.678  21.066  0.00  0.00    +0.000 A 
ATOM     15  C   UNL     1      -3.152  15.814  22.018  0.00  0.00    +0.000 C 
ATOM     16  N   UNL     1      -2.163  13.944  20.788  0.00  0.00    +0.000 N 
ATOM     17  C   UNL     1      -2.464  12.792  20.112  0.00  0.00    +0.000 A 
ATOM     18  C   UNL     1      -3.813  12.878  19.784  0.00  0.00    +0.000 A 
ATOM     19  C   UNL     1      -4.631  11.898  19.006  0.00  0.00    +0.000 C 
ATOM     20  H   UNL     1      -1.266  14.129  21.221  0.00  0.00    +0.000 HD
BRANCH  13  22
ATOM     21  N   UNL     1      -6.147  15.286  19.364  0.00  0.00    +0.000 N 
ATOM     22  C   UNL     1      -5.761  14.488  20.416  0.00  0.00    +0.000 C 
ATOM     23  O   UNL     1      -6.545  14.130  21.290  0.00  0.00    +0.000 OA
ATOM     24  H   UNL     1      -5.518  15.378  18.578  0.00  0.00    +0.000 HD
BRANCH  21  25
ATOM     25  C   UNL     1      -7.472  15.830  19.252  0.00  0.00    +0.000 C 
BRANCH  25  27
ATOM     26  C   UNL     1      -7.055  16.770  16.958  0.00  0.00    +0.000 C 
ATOM     27  C   UNL     1      -7.449  16.920  18.230  0.00  0.00    +0.000 C 
ENDBRANCH  25  27
ENDBRANCH  21  25
ENDBRANCH  13  22
ENDBRANCH   1  17
BRANCH   9  28
ATOM     28  C   UNL     1       2.394   7.789  18.352  0.00  0.00    +0.000 C 
ATOM     29  O   UNL     1       2.601   8.436  17.329  0.00  0.00    +0.000 OA
ATOM     30  N   UNL     1       2.820   6.487  18.495  0.00  0.00    +0.000 N 
ATOM     31  H   UNL     1       2.664   5.980  19.348  0.00  0.00    +0.000 HD
BRANCH  30  32
ATOM     32  C   UNL     1       3.671   5.849  17.494  0.00  0.00    +0.000 C 
ATOM     33  C   UNL     1       3.336   4.366  17.309  0.00  0.00    +0.000 C 
BRANCH  32  34
ATOM     34  C   UNL     1       5.132   6.037  17.871  0.00  0.00    +0.000 A 
ATOM     35  C   UNL     1       5.949   6.908  17.136  0.00  0.00    +0.000 A 
ATOM     36  C   UNL     1       7.289   7.092  17.488  0.00  0.00    +0.000 A 
ATOM     37  C   UNL     1       7.827   6.410  18.577  0.00  0.00    +0.000 A 
ATOM     38  C   UNL     1       7.028   5.543  19.319  0.00  0.00    +0.000 A 
ATOM     39  C   UNL     1       5.691   5.356  18.967  0.00  0.00    +0.000 A 
ENDBRANCH  32  34
ENDBRANCH  30  32
ENDBRANCH   9  28
TORSDOF 7
ENDMDL
MODEL 7
REMARK VINA RESULT:      -7.9      3.532      6.097
REMARK  Name = 
REMARK  10 active torsions:
REMARK  status: ('A' for Active; 'I' for Inactive)
REMARK    1  A    between atoms: C_2  and  C_3
REMARK    2  A    between atoms: C_3  and  N_4
REMARK    3  A    between atoms: C_5  and  C_7
REMARK    4  A    between atoms: C_8  and  C_9
REMARK    5  A    between atoms: C_11  and  C_12
REMARK    6  A    between atoms: C_20  and  C_21
REMARK    7  A    between atoms: N_23  and  C_24
REMARK    8  A    between atoms: C_24  and  C_25
REMARK    9  A    between atoms: C_24  and  C_26
REMARK   10  A    between atoms: C_34  and  C_35
REMARK                            x       y       z     vdW  Elec       q    Type
REMARK                         _______ _______ _______ _____ _____    ______ ____
ROOT
ATOM      1  C   UNL     1      -0.703  10.861  22.086  0.00  0.00    +0.000 C 
ATOM      2  C   UNL     1      -0.470  10.739  20.763  0.00  0.00    +0.000 C 
ATOM      3  C   UNL     1      -0.893  11.674  19.643  0.00  0.00    +0.000 C 
ATOM      4  O   UNL     1      -1.729  12.557  19.652  0.00  0.00    +0.000 OA
ATOM      5  N   UNL     1      -0.175  11.275  18.536  0.00  0.00    +0.000 N 
ATOM      6  C   UNL     1       0.563  10.132  18.796  0.00  0.00    +0.000 A 
ATOM      7  C   UNL     1       1.347   9.459  17.887  0.00  0.00    +0.000 A 
ATOM      8  C   UNL     1       1.991   8.308  18.337  0.00  0.00    +0.000 A 
ATOM      9  C   UNL     1       1.821   7.832  19.662  0.00  0.00    +0.000 A 
ATOM     10  C   UNL     1       0.990   8.539  20.561  0.00  0.00    +0.000 A 
ATOM     11  C   UNL     1       0.391   9.715  20.123  0.00  0.00    +0.000 A 
ATOM     12  H   UNL     1      -0.256  11.738  17.643  0.00  0.00    +0.000 HD
ENDROOT
BRANCH   1  17
ATOM     13  C   UNL     1      -2.385  13.839  23.549  0.00  0.00    +0.000 A 
ATOM     14  C   UNL     1      -3.234  12.767  23.802  0.00  0.00    +0.000 A 
ATOM     15  C   UNL     1      -4.628  12.630  24.306  0.00  0.00    +0.000 C 
ATOM     16  N   UNL     1      -2.593  11.629  23.388  0.00  0.00    +0.000 N 
ATOM     17  C   UNL     1      -1.432  11.915  22.720  0.00  0.00    +0.000 A 
ATOM     18  C   UNL     1      -1.228  13.283  22.870  0.00  0.00    +0.000 A 
ATOM     19  C   UNL     1      -0.079  14.098  22.367  0.00  0.00    +0.000 C 
ATOM     20  H   UNL     1      -3.037  10.719  23.387  0.00  0.00    +0.000 HD
BRANCH  13  22
ATOM     21  N   UNL     1      -3.064  15.988  22.715  0.00  0.00    +0.000 N 
ATOM     22  C   UNL     1      -2.640  15.263  23.804  0.00  0.00    +0.000 C 
ATOM     23  O   UNL     1      -2.503  15.768  24.915  0.00  0.00    +0.000 OA
ATOM     24  H   UNL     1      -3.351  15.483  21.887  0.00  0.00    +0.000 HD
BRANCH  21  25
ATOM     25  C   UNL     1      -3.299  17.403  22.772  0.00  0.00    +0.000 C 
BRANCH  25  27
ATOM     26  C   UNL     1      -1.351  17.904  21.264  0.00  0.00    +0.000 C 
ATOM     27  C   UNL     1      -2.034  18.106  22.399  0.00  0.00    +0.000 C 
ENDBRANCH  25  27
ENDBRANCH  21  25
ENDBRANCH  13  22
ENDBRANCH   1  17
BRANCH   9  28
ATOM     28  C   UNL     1       2.607   6.606  20.031  0.00  0.00    +0.000 C 
ATOM     29  O   UNL     1       2.116   5.777  20.791  0.00  0.00    +0.000 OA
ATOM     30  N   UNL     1       3.850   6.436  19.463  0.00  0.00    +0.000 N 
ATOM     31  H   UNL     1       4.227   7.113  18.823  0.00  0.00    +0.000 HD
BRANCH  30  32
ATOM     32  C   UNL     1       4.594   5.188  19.617  0.00  0.00    +0.000 C 
ATOM     33  C   UNL     1       6.035   5.307  19.114  0.00  0.00    +0.000 C 
BRANCH  32  34
ATOM     34  C   UNL     1       3.858   4.063  18.908  0.00  0.00    +0.000 A 
ATOM     35  C   UNL     1       3.337   4.256  17.620  0.00  0.00    +0.000 A 
ATOM     36  C   UNL     1       2.670   3.220  16.961  0.00  0.00    +0.000 A 
ATOM     37  C   UNL     1       2.518   1.981  17.579  0.00  0.00    +0.000 A 
ATOM     38  C   UNL     1       3.031   1.772  18.857  0.00  0.00    +0.000 A 
ATOM     39  C   UNL     1       3.694   2.807  19.518  0.00  0.00    +0.000 A 
ENDBRANCH  32  34
ENDBRANCH  30  32
ENDBRANCH   9  28
TORSDOF 7
ENDMDL
MODEL 8
REMARK VINA RESULT:      -7.9      3.536      6.118
REMARK  Name = 
REMARK  10 active torsions:
REMARK  status: ('A' for Active; 'I' for Inactive)
REMARK    1  A    between atoms: C_2  and  C_3
REMARK    2  A    between atoms: C_3  and  N_4
REMARK    3  A    between atoms: C_5  and  C_7
REMARK    4  A    between atoms: C_8  and  C_9
REMARK    5  A    between atoms: C_11  and  C_12
REMARK    6  A    between atoms: C_20  and  C_21
REMARK    7  A    between atoms: N_23  and  C_24
REMARK    8  A    between atoms: C_24  and  C_25
REMARK    9  A    between atoms: C_24  and  C_26
REMARK   10  A    between atoms: C_34  and  C_35
REMARK                            x       y       z     vdW  Elec       q    Type
REMARK                         _______ _______ _______ _____ _____    ______ ____
ROOT
ATOM      1  C   UNL     1      -0.611  10.922  22.076  0.00  0.00    +0.000 C 
ATOM      2  C   UNL     1      -0.421  10.777  20.748  0.00  0.00    +0.000 C 
ATOM      3  C   UNL     1      -0.890  11.686  19.625  0.00  0.00    +0.000 C 
ATOM      4  O   UNL     1      -1.734  12.561  19.646  0.00  0.00    +0.000 OA
ATOM      5  N   UNL     1      -0.205  11.272  18.503  0.00  0.00    +0.000 N 
ATOM      6  C   UNL     1       0.552  10.141  18.760  0.00  0.00    +0.000 A 
ATOM      7  C   UNL     1       1.313   9.458  17.838  0.00  0.00    +0.000 A 
ATOM      8  C   UNL     1       1.983   8.322  18.288  0.00  0.00    +0.000 A 
ATOM      9  C   UNL     1       1.861   7.871  19.627  0.00  0.00    +0.000 A 
ATOM     10  C   UNL     1       1.054   8.587  20.539  0.00  0.00    +0.000 A 
ATOM     11  C   UNL     1       0.429   9.749  20.100  0.00  0.00    +0.000 A 
ATOM     12  H   UNL     1      -0.321  11.717  17.605  0.00  0.00    +0.000 HD
ENDROOT
BRANCH   1  17
ATOM     13  C   UNL     1      -2.269  13.912  23.543  0.00  0.00    +0.000 A 
ATOM     14  C   UNL     1      -3.111  12.842  23.822  0.00  0.00    +0.000 A 
ATOM     15  C   UNL     1      -4.495  12.708  24.353  0.00  0.00    +0.000 C 
ATOM     16  N   UNL     1      -2.476  11.700  23.406  0.00  0.00    +0.000 N 
ATOM     17  C   UNL     1      -1.329  11.982  22.714  0.00  0.00    +0.000 A 
ATOM     18  C   UNL     1      -1.123  13.351  22.847  0.00  0.00    +0.000 A 
ATOM     19  C   UNL     1       0.014  14.162  22.315  0.00  0.00    +0.000 C 
ATOM     20  H   UNL     1      -2.919  10.789  23.423  0.00  0.00    +0.000 HD
BRANCH  13  22
ATOM     21  N   UNL     1      -1.634  15.951  24.644  0.00  0.00    +0.000 N 
ATOM     22  C   UNL     1      -2.520  15.338  23.789  0.00  0.00    +0.000 C 
ATOM     23  O   UNL     1      -3.443  15.946  23.254  0.00  0.00    +0.000 OA
ATOM     24  H   UNL     1      -0.787  15.457  24.889  0.00  0.00    +0.000 HD
BRANCH  21  25
ATOM     25  C   UNL     1      -1.769  17.324  25.043  0.00  0.00    +0.000 C 
BRANCH  25  27
ATOM     26  C   UNL     1      -0.441  16.585  27.045  0.00  0.00    +0.000 C 
ATOM     27  C   UNL     1      -0.914  17.552  26.247  0.00  0.00    +0.000 C 
ENDBRANCH  25  27
ENDBRANCH  21  25
ENDBRANCH  13  22
ENDBRANCH   1  17
BRANCH   9  28
ATOM     28  C   UNL     1       2.672   6.660  19.993  0.00  0.00    +0.000 C 
ATOM     29  O   UNL     1       2.219   5.847  20.793  0.00  0.00    +0.000 OA
ATOM     30  N   UNL     1       3.891   6.483  19.378  0.00  0.00    +0.000 N 
ATOM     31  H   UNL     1       4.236   7.147  18.706  0.00  0.00    +0.000 HD
BRANCH  30  32
ATOM     32  C   UNL     1       4.651   5.245  19.531  0.00  0.00    +0.000 C 
ATOM     33  C   UNL     1       6.082   5.374  19.003  0.00  0.00    +0.000 C 
BRANCH  32  34
ATOM     34  C   UNL     1       3.915   4.106  18.845  0.00  0.00    +0.000 A 
ATOM     35  C   UNL     1       3.859   2.836  19.439  0.00  0.00    +0.000 A 
ATOM     36  C   UNL     1       3.174   1.790  18.817  0.00  0.00    +0.000 A 
ATOM     37  C   UNL     1       2.535   2.000  17.597  0.00  0.00    +0.000 A 
ATOM     38  C   UNL     1       2.578   3.255  16.995  0.00  0.00    +0.000 A 
ATOM     39  C   UNL     1       3.266   4.300  17.613  0.00  0.00    +0.000 A 
ENDBRANCH  32  34
ENDBRANCH  30  32
ENDBRANCH   9  28
TORSDOF 7
ENDMDL
MODEL 9
REMARK VINA RESULT:      -7.9      1.118      1.290
REMARK  Name = 
REMARK  10 active torsions:
REMARK  status: ('A' for Active; 'I' for Inactive)
REMARK    1  A    between atoms: C_2  and  C_3
REMARK    2  A    between atoms: C_3  and  N_4
REMARK    3  A    between atoms: C_5  and  C_7
REMARK    4  A    between atoms: C_8  and  C_9
REMARK    5  A    between atoms: C_11  and  C_12
REMARK    6  A    between atoms: C_20  and  C_21
REMARK    7  A    between atoms: N_23  and  C_24
REMARK    8  A    between atoms: C_24  and  C_25
REMARK    9  A    between atoms: C_24  and  C_26
REMARK   10  A    between atoms: C_34  and  C_35
REMARK                            x       y       z     vdW  Elec       q    Type
REMARK                         _______ _______ _______ _____ _____    ______ ____
ROOT
ATOM      1  C   UNL     1       2.397   8.698  17.737  0.00  0.00    +0.000 C 
ATOM      2  C   UNL     1       2.759   7.657  18.516  0.00  0.00    +0.000 C 
ATOM      3  C   UNL     1       2.149   7.212  19.834  0.00  0.00    +0.000 C 
ATOM      4  O   UNL     1       1.413   7.822  20.586  0.00  0.00    +0.000 OA
ATOM      5  N   UNL     1       2.663   5.957  20.075  0.00  0.00    +0.000 N 
ATOM      6  C   UNL     1       3.608   5.606  19.126  0.00  0.00    +0.000 A 
ATOM      7  C   UNL     1       4.337   4.438  19.112  0.00  0.00    +0.000 A 
ATOM      8  C   UNL     1       5.264   4.282  18.083  0.00  0.00    +0.000 A 
ATOM      9  C   UNL     1       5.471   5.295  17.112  0.00  0.00    +0.000 A 
ATOM     10  C   UNL     1       4.719   6.490  17.172  0.00  0.00    +0.000 A 
ATOM     11  C   UNL     1       3.759   6.619  18.170  0.00  0.00    +0.000 A 
ATOM     12  H   UNL     1       2.413   5.418  20.891  0.00  0.00    +0.000 HD
ENDROOT
BRANCH   1  17
ATOM     13  C   UNL     1      -0.077  11.394  18.404  0.00  0.00    +0.000 A 
ATOM     14  C   UNL     1      -0.828  10.254  18.143  0.00  0.00    +0.000 A 
ATOM     15  C   UNL     1      -2.270   9.981  17.900  0.00  0.00    +0.000 C 
ATOM     16  N   UNL     1       0.048   9.207  18.013  0.00  0.00    +0.000 N 
ATOM     17  C   UNL     1       1.349   9.632  18.010  0.00  0.00    +0.000 A 
ATOM     18  C   UNL     1       1.315  10.985  18.332  0.00  0.00    +0.000 A 
ATOM     19  C   UNL     1       2.472  11.915  18.503  0.00  0.00    +0.000 C 
ATOM     20  H   UNL     1      -0.246   8.278  17.736  0.00  0.00    +0.000 HD
BRANCH  13  22
ATOM     21  N   UNL     1      -0.811  13.119  19.907  0.00  0.00    +0.000 N 
ATOM     22  C   UNL     1      -0.569  12.765  18.601  0.00  0.00    +0.000 C 
ATOM     23  O   UNL     1      -0.733  13.546  17.667  0.00  0.00    +0.000 OA
ATOM     24  H   UNL     1      -0.468  12.512  20.639  0.00  0.00    +0.000 HD
BRANCH  21  25
ATOM     25  C   UNL     1      -1.353  14.398  20.273  0.00  0.00    +0.000 C 
BRANCH  25  27
ATOM     26  C   UNL     1       0.166  16.354  20.705  0.00  0.00    +0.000 C 
ATOM     27  C   UNL     1      -0.376  15.456  19.872  0.00  0.00    +0.000 C 
ENDBRANCH  25  27
ENDBRANCH  21  25
ENDBRANCH  13  22
ENDBRANCH   1  17
BRANCH   9  28
ATOM     28  C   UNL     1       6.467   4.981  16.032  0.00  0.00    +0.000 C 
ATOM     29  O   UNL     1       7.651   4.835  16.323  0.00  0.00    +0.000 OA
ATOM     30  N   UNL     1       6.003   4.828  14.744  0.00  0.00    +0.000 N 
ATOM     31  H   UNL     1       5.027   4.927  14.528  0.00  0.00    +0.000 HD
BRANCH  30  32
ATOM     32  C   UNL     1       6.868   4.337  13.675  0.00  0.00    +0.000 C 
ATOM     33  C   UNL     1       7.653   5.466  13.000  0.00  0.00    +0.000 C 
BRANCH  32  34
ATOM     34  C   UNL     1       6.041   3.564  12.662  0.00  0.00    +0.000 A 
ATOM     35  C   UNL     1       6.564   2.420  12.040  0.00  0.00    +0.000 A 
ATOM     36  C   UNL     1       5.801   1.701  11.117  0.00  0.00    +0.000 A 
ATOM     37  C   UNL     1       4.508   2.114  10.805  0.00  0.00    +0.000 A 
ATOM     38  C   UNL     1       3.972   3.245  11.415  0.00  0.00    +0.000 A 
ATOM     39  C   UNL     1       4.734   3.967  12.335  0.00  0.00    +0.000 A 
ENDBRANCH  32  34
ENDBRANCH  30  32
ENDBRANCH   9  28
TORSDOF 7
ENDMDL
