MODEL 1
REMARK VINA RESULT:      -8.3      0.000      0.000
REMARK  Name = 
REMARK  5 active torsions:
REMARK  status: ('A' for Active; 'I' for Inactive)
REMARK    1  A    between atoms: C_2  and  C_10
REMARK    2  A    between atoms: N_3  and  N_4
REMARK    3  A    between atoms: C_11  and  O_12
REMARK    4  A    between atoms: N_22  and  C_23
REMARK    5  A    between atoms: C_23  and  C_24
REMARK                            x       y       z     vdW  Elec       q    Type
REMARK                         _______ _______ _______ _____ _____    ______ ____
ROOT
ATOM      1  C   UNL     1       4.582   5.074  18.011  0.00  0.00    +0.000 C 
ATOM      2  C   UNL     1       4.700   4.065  18.917  0.00  0.00    +0.000 C 
ATOM      3  C   UNL     1       3.580   3.542  19.725  0.00  0.00    +0.000 A 
ATOM      4  C   UNL     1       3.793   2.818  20.905  0.00  0.00    +0.000 A 
ATOM      5  C   UNL     1       2.715   2.298  21.631  0.00  0.00    +0.000 A 
ATOM      6  C   UNL     1       1.407   2.505  21.192  0.00  0.00    +0.000 A 
ATOM      7  C   UNL     1       1.175   3.201  20.011  0.00  0.00    +0.000 A 
ATOM      8  C   UNL     1       2.266   3.679  19.283  0.00  0.00    +0.000 A 
ATOM      9  S   UNL     1       2.018   4.548  17.786  0.00  0.00    +0.000 S 
ATOM     10  O   UNL     1       2.309   3.662  16.679  0.00  0.00    +0.000 OA
ATOM     11  O   UNL     1       0.739   5.229  17.896  0.00  0.00    +0.000 OA
ATOM     12  N   UNL     1       3.270   5.700  17.902  0.00  0.00    +0.000 N 
ENDROOT
BRANCH   1  14
ATOM     13  O   UNL     1       6.332   6.507  17.306  0.00  0.00    +0.000 OA
ATOM     14  C   UNL     1       5.836   5.382  17.221  0.00  0.00    +0.000 C 
ATOM     15  N   UNL     1       6.304   4.419  16.356  0.00  0.00    +0.000 N 
ATOM     16  H   UNL     1       5.779   3.566  16.204  0.00  0.00    +0.000 HD
BRANCH  15  17
ATOM     17  N   UNL     1       7.215   4.796  15.403  0.00  0.00    +0.000 NA
ATOM     18  C   UNL     1       6.955   4.549  14.159  0.00  0.00    +0.000 C 
ATOM     19  C   UNL     1       7.879   5.046  13.077  0.00  0.00    +0.000 C 
ATOM     20  C   UNL     1       7.493   4.138  11.921  0.00  0.00    +0.000 C 
ATOM     21  C   UNL     1       5.992   3.939  12.092  0.00  0.00    +0.000 C 
ATOM     22  C   UNL     1       5.780   3.792  13.596  0.00  0.00    +0.000 C 
ENDBRANCH  15  17
ENDBRANCH   1  14
BRANCH   2  23
ATOM     23  O   UNL     1       5.884   3.388  19.180  0.00  0.00    +0.000 OA
ATOM     24  H   UNL     1       6.624   4.037  19.216  0.00  0.00    +0.000 HD
ENDBRANCH   2  23
BRANCH  12  25
ATOM     25  C   UNL     1       2.919   7.018  17.320  0.00  0.00    +0.000 C 
BRANCH  25  26
ATOM     26  C   UNL     1       2.247   7.988  18.279  0.00  0.00    +0.000 A 
ATOM     27  C   UNL     1       1.699   9.212  17.868  0.00  0.00    +0.000 A 
ATOM     28  C   UNL     1       0.974  10.006  18.762  0.00  0.00    +0.000 A 
ATOM     29  C   UNL     1       0.816   9.605  20.086  0.00  0.00    +0.000 A 
ATOM     30  C   UNL     1       1.443   8.447  20.537  0.00  0.00    +0.000 A 
ATOM     31  C   UNL     1       2.163   7.651  19.643  0.00  0.00    +0.000 A 
ENDBRANCH  25  26
ENDBRANCH  12  25
TORSDOF 5
ENDMDL
MODEL 2
REMARK VINA RESULT:      -7.7      4.646      8.495
REMARK  Name = 
REMARK  5 active torsions:
REMARK  status: ('A' for Active; 'I' for Inactive)
REMARK    1  A    between atoms: C_2  and  C_10
REMARK    2  A    between atoms: N_3  and  N_4
REMARK    3  A    between atoms: C_11  and  O_12
REMARK    4  A    between atoms: N_22  and  C_23
REMARK    5  A    between atoms: C_23  and  C_24
REMARK                            x       y       z     vdW  Elec       q    Type
REMARK                         _______ _______ _______ _____ _____    ______ ____
ROOT
ATOM      1  C   UNL     1       1.131  11.035  18.713  0.00  0.00    +0.000 C 
ATOM      2  C   UNL     1       1.809  12.211  18.615  0.00  0.00    +0.000 C 
ATOM      3  C   UNL     1       1.299  13.505  19.111  0.00  0.00    +0.000 A 
ATOM      4  C   UNL     1       1.805  14.727  18.647  0.00  0.00    +0.000 A 
ATOM      5  C   UNL     1       1.333  15.939  19.163  0.00  0.00    +0.000 A 
ATOM      6  C   UNL     1       0.339  15.947  20.142  0.00  0.00    +0.000 A 
ATOM      7  C   UNL     1      -0.159  14.745  20.632  0.00  0.00    +0.000 A 
ATOM      8  C   UNL     1       0.352  13.546  20.130  0.00  0.00    +0.000 A 
ATOM      9  S   UNL     1      -0.238  12.013  20.730  0.00  0.00    +0.000 S 
ATOM     10  O   UNL     1       0.738  11.463  21.645  0.00  0.00    +0.000 OA
ATOM     11  O   UNL     1      -1.621  12.216  21.129  0.00  0.00    +0.000 OA
ATOM     12  N   UNL     1      -0.206  11.102  19.289  0.00  0.00    +0.000 N 
ENDROOT
BRANCH   1  14
ATOM     13  O   UNL     1       2.414   9.842  17.119  0.00  0.00    +0.000 OA
ATOM     14  C   UNL     1       1.884   9.813  18.230  0.00  0.00    +0.000 C 
ATOM     15  N   UNL     1       1.848   8.684  19.016  0.00  0.00    +0.000 N 
ATOM     16  H   UNL     1       1.274   8.656  19.851  0.00  0.00    +0.000 HD
BRANCH  15  17
ATOM     17  N   UNL     1       2.226   7.493  18.451  0.00  0.00    +0.000 NA
ATOM     18  C   UNL     1       2.178   6.418  19.171  0.00  0.00    +0.000 C 
ATOM     19  C   UNL     1       2.478   5.077  18.553  0.00  0.00    +0.000 C 
ATOM     20  C   UNL     1       2.796   4.249  19.788  0.00  0.00    +0.000 C 
ATOM     21  C   UNL     1       1.850   4.793  20.852  0.00  0.00    +0.000 C 
ATOM     22  C   UNL     1       1.834   6.303  20.634  0.00  0.00    +0.000 C 
ENDBRANCH  15  17
ENDBRANCH   1  14
BRANCH   2  23
ATOM     23  O   UNL     1       3.074  12.337  18.054  0.00  0.00    +0.000 OA
ATOM     24  H   UNL     1       3.149  11.723  17.287  0.00  0.00    +0.000 HD
ENDBRANCH   2  23
BRANCH  12  25
ATOM     25  C   UNL     1      -1.307  10.114  19.187  0.00  0.00    +0.000 C 
BRANCH  25  26
ATOM     26  C   UNL     1      -2.275  10.343  18.037  0.00  0.00    +0.000 A 
ATOM     27  C   UNL     1      -3.452  11.095  18.166  0.00  0.00    +0.000 A 
ATOM     28  C   UNL     1      -4.238  11.388  17.048  0.00  0.00    +0.000 A 
ATOM     29  C   UNL     1      -3.880  10.906  15.793  0.00  0.00    +0.000 A 
ATOM     30  C   UNL     1      -2.774  10.069  15.664  0.00  0.00    +0.000 A 
ATOM     31  C   UNL     1      -1.985   9.780  16.780  0.00  0.00    +0.000 A 
ENDBRANCH  25  26
ENDBRANCH  12  25
TORSDOF 5
ENDMDL
MODEL 3
REMARK VINA RESULT:      -7.3      8.311     11.174
REMARK  Name = 
REMARK  5 active torsions:
REMARK  status: ('A' for Active; 'I' for Inactive)
REMARK    1  A    between atoms: C_2  and  C_10
REMARK    2  A    between atoms: N_3  and  N_4
REMARK    3  A    between atoms: C_11  and  O_12
REMARK    4  A    between atoms: N_22  and  C_23
REMARK    5  A    between atoms: C_23  and  C_24
REMARK                            x       y       z     vdW  Elec       q    Type
REMARK                         _______ _______ _______ _____ _____    ______ ____
ROOT
ATOM      1  C   UNL     1      -2.830  12.818  20.541  0.00  0.00    +0.000 C 
ATOM      2  C   UNL     1      -4.140  12.666  20.206  0.00  0.00    +0.000 C 
ATOM      3  C   UNL     1      -5.243  12.591  21.185  0.00  0.00    +0.000 A 
ATOM      4  C   UNL     1      -6.488  12.037  20.858  0.00  0.00    +0.000 A 
ATOM      5  C   UNL     1      -7.530  12.015  21.792  0.00  0.00    +0.000 A 
ATOM      6  C   UNL     1      -7.337  12.536  23.072  0.00  0.00    +0.000 A 
ATOM      7  C   UNL     1      -6.117  13.111  23.409  0.00  0.00    +0.000 A 
ATOM      8  C   UNL     1      -5.103  13.156  22.450  0.00  0.00    +0.000 A 
ATOM      9  S   UNL     1      -3.559  13.883  22.829  0.00  0.00    +0.000 S 
ATOM     10  O   UNL     1      -3.500  15.196  22.224  0.00  0.00    +0.000 OA
ATOM     11  O   UNL     1      -3.338  13.694  24.253  0.00  0.00    +0.000 OA
ATOM     12  N   UNL     1      -2.522  12.840  21.965  0.00  0.00    +0.000 N 
ENDROOT
BRANCH   1  14
ATOM     13  O   UNL     1      -1.817  12.074  18.533  0.00  0.00    +0.000 OA
ATOM     14  C   UNL     1      -1.879  12.972  19.374  0.00  0.00    +0.000 C 
ATOM     15  N   UNL     1      -1.044  14.067  19.365  0.00  0.00    +0.000 N 
ATOM     16  H   UNL     1      -1.021  14.702  20.154  0.00  0.00    +0.000 HD
BRANCH  15  17
ATOM     17  N   UNL     1       0.035  14.048  18.518  0.00  0.00    +0.000 NA
ATOM     18  C   UNL     1       1.225  14.117  19.023  0.00  0.00    +0.000 C 
ATOM     19  C   UNL     1       2.435  13.988  18.134  0.00  0.00    +0.000 C 
ATOM     20  C   UNL     1       3.509  14.614  19.008  0.00  0.00    +0.000 C 
ATOM     21  C   UNL     1       3.124  14.199  20.423  0.00  0.00    +0.000 C 
ATOM     22  C   UNL     1       1.603  14.312  20.469  0.00  0.00    +0.000 C 
ENDBRANCH  15  17
ENDBRANCH   1  14
BRANCH   2  23
ATOM     23  O   UNL     1      -4.606  12.582  18.899  0.00  0.00    +0.000 OA
ATOM     24  H   UNL     1      -4.061  11.927  18.405  0.00  0.00    +0.000 HD
ENDBRANCH   2  23
BRANCH  12  25
ATOM     25  C   UNL     1      -1.218  12.613  22.633  0.00  0.00    +0.000 C 
BRANCH  25  26
ATOM     26  C   UNL     1      -0.578  11.261  22.357  0.00  0.00    +0.000 A 
ATOM     27  C   UNL     1      -0.865  10.112  23.108  0.00  0.00    +0.000 A 
ATOM     28  C   UNL     1      -0.354   8.867  22.730  0.00  0.00    +0.000 A 
ATOM     29  C   UNL     1       0.478   8.758  21.620  0.00  0.00    +0.000 A 
ATOM     30  C   UNL     1       0.859   9.903  20.927  0.00  0.00    +0.000 A 
ATOM     31  C   UNL     1       0.344  11.148  21.300  0.00  0.00    +0.000 A 
ENDBRANCH  25  26
ENDBRANCH  12  25
TORSDOF 5
ENDMDL
MODEL 4
REMARK VINA RESULT:      -7.2      8.597     11.254
REMARK  Name = 
REMARK  5 active torsions:
REMARK  status: ('A' for Active; 'I' for Inactive)
REMARK    1  A    between atoms: C_2  and  C_10
REMARK    2  A    between atoms: N_3  and  N_4
REMARK    3  A    between atoms: C_11  and  O_12
REMARK    4  A    between atoms: N_22  and  C_23
REMARK    5  A    between atoms: C_23  and  C_24
REMARK                            x       y       z     vdW  Elec       q    Type
REMARK                         _______ _______ _______ _____ _____    ______ ____
ROOT
ATOM      1  C   UNL     1      -2.550  12.646  19.608  0.00  0.00    +0.000 C 
ATOM      2  C   UNL     1      -3.502  12.174  18.758  0.00  0.00    +0.000 C 
ATOM      3  C   UNL     1      -4.825  11.679  19.187  0.00  0.00    +0.000 A 
ATOM      4  C   UNL     1      -5.602  10.842  18.376  0.00  0.00    +0.000 A 
ATOM      5  C   UNL     1      -6.870  10.419  18.790  0.00  0.00    +0.000 A 
ATOM      6  C   UNL     1      -7.375  10.817  20.028  0.00  0.00    +0.000 A 
ATOM      7  C   UNL     1      -6.630  11.666  20.838  0.00  0.00    +0.000 A 
ATOM      8  C   UNL     1      -5.383  12.106  20.390  0.00  0.00    +0.000 A 
ATOM      9  S   UNL     1      -4.420  13.186  21.373  0.00  0.00    +0.000 S 
ATOM     10  O   UNL     1      -4.525  14.524  20.835  0.00  0.00    +0.000 OA
ATOM     11  O   UNL     1      -4.742  12.898  22.760  0.00  0.00    +0.000 OA
ATOM     12  N   UNL     1      -2.861  12.584  21.031  0.00  0.00    +0.000 N 
ENDROOT
BRANCH   1  14
ATOM     13  O   UNL     1      -0.630  12.451  18.236  0.00  0.00    +0.000 OA
ATOM     14  C   UNL     1      -1.307  13.197  18.944  0.00  0.00    +0.000 C 
ATOM     15  N   UNL     1      -0.931  14.485  19.251  0.00  0.00    +0.000 N 
ATOM     16  H   UNL     1      -1.432  15.013  19.956  0.00  0.00    +0.000 HD
BRANCH  15  17
ATOM     17  N   UNL     1       0.345  14.877  18.936  0.00  0.00    +0.000 NA
ATOM     18  C   UNL     1       0.533  16.068  18.465  0.00  0.00    +0.000 C 
ATOM     19  C   UNL     1       1.930  16.573  18.212  0.00  0.00    +0.000 C 
ATOM     20  C   UNL     1       1.661  17.711  17.242  0.00  0.00    +0.000 C 
ATOM     21  C   UNL     1       0.339  18.301  17.722  0.00  0.00    +0.000 C 
ATOM     22  C   UNL     1      -0.512  17.097  18.116  0.00  0.00    +0.000 C 
ENDBRANCH  15  17
ENDBRANCH   1  14
BRANCH   2  23
ATOM     23  O   UNL     1      -3.356  12.119  17.377  0.00  0.00    +0.000 OA
ATOM     24  H   UNL     1      -2.512  11.660  17.161  0.00  0.00    +0.000 HD
ENDBRANCH   2  23
BRANCH  12  25
ATOM     25  C   UNL     1      -1.933  12.653  22.184  0.00  0.00    +0.000 C 
BRANCH  25  26
ATOM     26  C   UNL     1      -0.959  11.490  22.299  0.00  0.00    +0.000 A 
ATOM     27  C   UNL     1      -1.094  10.472  23.255  0.00  0.00    +0.000 A 
ATOM     28  C   UNL     1      -0.251   9.357  23.233  0.00  0.00    +0.000 A 
ATOM     29  C   UNL     1       0.759   9.260  22.280  0.00  0.00    +0.000 A 
ATOM     30  C   UNL     1       0.975  10.310  21.393  0.00  0.00    +0.000 A 
ATOM     31  C   UNL     1       0.130  11.423  21.410  0.00  0.00    +0.000 A 
ENDBRANCH  25  26
ENDBRANCH  12  25
TORSDOF 5
ENDMDL
MODEL 5
REMARK VINA RESULT:      -7.2      9.267     12.919
REMARK  Name = 
REMARK  5 active torsions:
REMARK  status: ('A' for Active; 'I' for Inactive)
REMARK    1  A    between atoms: C_2  and  C_10
REMARK    2  A    between atoms: N_3  and  N_4
REMARK    3  A    between atoms: C_11  and  O_12
REMARK    4  A    between atoms: N_22  and  C_23
REMARK    5  A    between atoms: C_23  and  C_24
REMARK                            x       y       z     vdW  Elec       q    Type
REMARK                         _______ _______ _______ _____ _____    ______ ____
ROOT
ATOM      1  C   UNL     1      -2.958  13.726  23.276  0.00  0.00    +0.000 C 
ATOM      2  C   UNL     1      -2.843  14.398  24.453  0.00  0.00    +0.000 C 
ATOM      3  C   UNL     1      -1.719  15.294  24.790  0.00  0.00    +0.000 A 
ATOM      4  C   UNL     1      -1.415  15.637  26.114  0.00  0.00    +0.000 A 
ATOM      5  C   UNL     1      -0.369  16.521  26.403  0.00  0.00    +0.000 A 
ATOM      6  C   UNL     1       0.396  17.065  25.372  0.00  0.00    +0.000 A 
ATOM      7  C   UNL     1       0.097  16.756  24.050  0.00  0.00    +0.000 A 
ATOM      8  C   UNL     1      -0.974  15.902  23.781  0.00  0.00    +0.000 A 
ATOM      9  S   UNL     1      -1.393  15.499  22.132  0.00  0.00    +0.000 S 
ATOM     10  O   UNL     1      -2.559  16.263  21.747  0.00  0.00    +0.000 OA
ATOM     11  O   UNL     1      -0.164  15.548  21.357  0.00  0.00    +0.000 OA
ATOM     12  N   UNL     1      -1.854  13.870  22.335  0.00  0.00    +0.000 N 
ENDROOT
BRANCH   1  14
ATOM     13  O   UNL     1      -4.455  11.979  23.838  0.00  0.00    +0.000 OA
ATOM     14  C   UNL     1      -4.242  12.943  23.102  0.00  0.00    +0.000 C 
ATOM     15  N   UNL     1      -5.065  13.282  22.052  0.00  0.00    +0.000 N 
ATOM     16  H   UNL     1      -4.778  13.983  21.379  0.00  0.00    +0.000 HD
BRANCH  15  17
ATOM     17  N   UNL     1      -6.037  12.388  21.680  0.00  0.00    +0.000 NA
ATOM     18  C   UNL     1      -5.988  11.872  20.494  0.00  0.00    +0.000 C 
ATOM     19  C   UNL     1      -6.973  10.805  20.090  0.00  0.00    +0.000 C 
ATOM     20  C   UNL     1      -6.881  10.880  18.575  0.00  0.00    +0.000 C 
ATOM     21  C   UNL     1      -5.414  11.193  18.307  0.00  0.00    +0.000 C 
ATOM     22  C   UNL     1      -5.020  12.198  19.386  0.00  0.00    +0.000 C 
ENDBRANCH  15  17
ENDBRANCH   1  14
BRANCH   2  23
ATOM     23  O   UNL     1      -3.780  14.341  25.478  0.00  0.00    +0.000 OA
ATOM     24  H   UNL     1      -4.512  14.968  25.280  0.00  0.00    +0.000 HD
ENDBRANCH   2  23
BRANCH  12  25
ATOM     25  C   UNL     1      -1.503  13.006  21.182  0.00  0.00    +0.000 C 
BRANCH  25  26
ATOM     26  C   UNL     1      -0.971  11.629  21.546  0.00  0.00    +0.000 A 
ATOM     27  C   UNL     1      -0.902  11.161  22.866  0.00  0.00    +0.000 A 
ATOM     28  C   UNL     1      -0.531   9.840  23.137  0.00  0.00    +0.000 A 
ATOM     29  C   UNL     1      -0.191   8.980  22.097  0.00  0.00    +0.000 A 
ATOM     30  C   UNL     1      -0.151   9.459  20.790  0.00  0.00    +0.000 A 
ATOM     31  C   UNL     1      -0.526  10.776  20.518  0.00  0.00    +0.000 A 
ENDBRANCH  25  26
ENDBRANCH  12  25
TORSDOF 5
ENDMDL
MODEL 6
REMARK VINA RESULT:      -7.2      4.346      7.592
REMARK  Name = 
REMARK  5 active torsions:
REMARK  status: ('A' for Active; 'I' for Inactive)
REMARK    1  A    between atoms: C_2  and  C_10
REMARK    2  A    between atoms: N_3  and  N_4
REMARK    3  A    between atoms: C_11  and  O_12
REMARK    4  A    between atoms: N_22  and  C_23
REMARK    5  A    between atoms: C_23  and  C_24
REMARK                            x       y       z     vdW  Elec       q    Type
REMARK                         _______ _______ _______ _____ _____    ______ ____
ROOT
ATOM      1  C   UNL     1       1.136  10.028  19.371  0.00  0.00    +0.000 C 
ATOM      2  C   UNL     1       0.442   9.648  20.479  0.00  0.00    +0.000 C 
ATOM      3  C   UNL     1      -0.397  10.558  21.284  0.00  0.00    +0.000 A 
ATOM      4  C   UNL     1      -0.755  10.261  22.606  0.00  0.00    +0.000 A 
ATOM      5  C   UNL     1      -1.585  11.120  23.333  0.00  0.00    +0.000 A 
ATOM      6  C   UNL     1      -2.060  12.297  22.753  0.00  0.00    +0.000 A 
ATOM      7  C   UNL     1      -1.736  12.599  21.435  0.00  0.00    +0.000 A 
ATOM      8  C   UNL     1      -0.937  11.709  20.715  0.00  0.00    +0.000 A 
ATOM      9  S   UNL     1      -0.517  12.045  19.051  0.00  0.00    +0.000 S 
ATOM     10  O   UNL     1      -1.336  11.221  18.188  0.00  0.00    +0.000 OA
ATOM     11  O   UNL     1      -0.478  13.490  18.906  0.00  0.00    +0.000 OA
ATOM     12  N   UNL     1       1.078  11.442  19.022  0.00  0.00    +0.000 N 
ENDROOT
BRANCH   1  14
ATOM     13  O   UNL     1       1.961   8.976  17.417  0.00  0.00    +0.000 OA
ATOM     14  C   UNL     1       1.850   8.911  18.641  0.00  0.00    +0.000 C 
ATOM     15  N   UNL     1       2.247   7.815  19.374  0.00  0.00    +0.000 N 
ATOM     16  H   UNL     1       2.000   7.734  20.354  0.00  0.00    +0.000 HD
BRANCH  15  17
ATOM     17  N   UNL     1       2.580   6.671  18.695  0.00  0.00    +0.000 NA
ATOM     18  C   UNL     1       2.262   5.526  19.209  0.00  0.00    +0.000 C 
ATOM     19  C   UNL     1       2.511   4.254  18.440  0.00  0.00    +0.000 C 
ATOM     20  C   UNL     1       2.480   3.225  19.558  0.00  0.00    +0.000 C 
ATOM     21  C   UNL     1       1.418   3.751  20.517  0.00  0.00    +0.000 C 
ATOM     22  C   UNL     1       1.629   5.262  20.551  0.00  0.00    +0.000 C 
ENDBRANCH  15  17
ENDBRANCH   1  14
BRANCH   2  23
ATOM     23  O   UNL     1       0.422   8.351  20.978  0.00  0.00    +0.000 OA
ATOM     24  H   UNL     1      -0.460   7.951  20.798  0.00  0.00    +0.000 HD
ENDBRANCH   2  23
BRANCH  12  25
ATOM     25  C   UNL     1       1.988  12.216  18.144  0.00  0.00    +0.000 C 
BRANCH  25  26
ATOM     26  C   UNL     1       2.726  13.358  18.826  0.00  0.00    +0.000 A 
ATOM     27  C   UNL     1       2.778  13.510  20.219  0.00  0.00    +0.000 A 
ATOM     28  C   UNL     1       3.579  14.498  20.800  0.00  0.00    +0.000 A 
ATOM     29  C   UNL     1       4.311  15.368  19.997  0.00  0.00    +0.000 A 
ATOM     30  C   UNL     1       4.188  15.300  18.613  0.00  0.00    +0.000 A 
ATOM     31  C   UNL     1       3.391  14.310  18.031  0.00  0.00    +0.000 A 
ENDBRANCH  25  26
ENDBRANCH  12  25
TORSDOF 5
ENDMDL
MODEL 7
REMARK VINA RESULT:      -7.2      4.960      8.442
REMARK  Name = 
REMARK  5 active torsions:
REMARK  status: ('A' for Active; 'I' for Inactive)
REMARK    1  A    between atoms: C_2  and  C_10
REMARK    2  A    between atoms: N_3  and  N_4
REMARK    3  A    between atoms: C_11  and  O_12
REMARK    4  A    between atoms: N_22  and  C_23
REMARK    5  A    between atoms: C_23  and  C_24
REMARK                            x       y       z     vdW  Elec       q    Type
REMARK                         _______ _______ _______ _____ _____    ______ ____
ROOT
ATOM      1  C   UNL     1       0.182  10.566  21.337  0.00  0.00    +0.000 C 
ATOM      2  C   UNL     1      -0.761  10.858  22.274  0.00  0.00    +0.000 C 
ATOM      3  C   UNL     1      -1.675  12.014  22.196  0.00  0.00    +0.000 A 
ATOM      4  C   UNL     1      -2.330  12.519  23.328  0.00  0.00    +0.000 A 
ATOM      5  C   UNL     1      -3.223  13.590  23.220  0.00  0.00    +0.000 A 
ATOM      6  C   UNL     1      -3.466  14.182  21.980  0.00  0.00    +0.000 A 
ATOM      7  C   UNL     1      -2.844  13.682  20.842  0.00  0.00    +0.000 A 
ATOM      8  C   UNL     1      -1.985  12.588  20.965  0.00  0.00    +0.000 A 
ATOM      9  S   UNL     1      -1.194  11.921  19.556  0.00  0.00    +0.000 S 
ATOM     10  O   UNL     1      -1.874  10.703  19.172  0.00  0.00    +0.000 OA
ATOM     11  O   UNL     1      -1.006  13.013  18.616  0.00  0.00    +0.000 OA
ATOM     12  N   UNL     1       0.316  11.508  20.233  0.00  0.00    +0.000 N 
ENDROOT
BRANCH   1  14
ATOM     13  O   UNL     1       1.817   9.247  22.431  0.00  0.00    +0.000 OA
ATOM     14  C   UNL     1       0.941   9.276  21.565  0.00  0.00    +0.000 C 
ATOM     15  N   UNL     1       0.690   8.223  20.716  0.00  0.00    +0.000 N 
ATOM     16  H   UNL     1       0.072   8.339  19.921  0.00  0.00    +0.000 HD
BRANCH  15  17
ATOM     17  N   UNL     1       1.589   7.187  20.689  0.00  0.00    +0.000 NA
ATOM     18  C   UNL     1       2.353   7.050  19.653  0.00  0.00    +0.000 C 
ATOM     19  C   UNL     1       3.427   5.993  19.636  0.00  0.00    +0.000 C 
ATOM     20  C   UNL     1       3.688   5.864  18.145  0.00  0.00    +0.000 C 
ATOM     21  C   UNL     1       3.521   7.284  17.615  0.00  0.00    +0.000 C 
ATOM     22  C   UNL     1       2.329   7.854  18.379  0.00  0.00    +0.000 C 
ENDBRANCH  15  17
ENDBRANCH   1  14
BRANCH   2  23
ATOM     23  O   UNL     1      -0.994  10.093  23.410  0.00  0.00    +0.000 OA
ATOM     24  H   UNL     1      -0.142   9.953  23.883  0.00  0.00    +0.000 HD
ENDBRANCH   2  23
BRANCH  12  25
ATOM     25  C   UNL     1       1.453  11.681  19.297  0.00  0.00    +0.000 C 
BRANCH  25  26
ATOM     26  C   UNL     1       2.224  12.983  19.453  0.00  0.00    +0.000 A 
ATOM     27  C   UNL     1       2.391  13.630  20.686  0.00  0.00    +0.000 A 
ATOM     28  C   UNL     1       3.219  14.751  20.797  0.00  0.00    +0.000 A 
ATOM     29  C   UNL     1       3.864  15.261  19.675  0.00  0.00    +0.000 A 
ATOM     30  C   UNL     1       3.624  14.696  18.425  0.00  0.00    +0.000 A 
ATOM     31  C   UNL     1       2.801  13.573  18.313  0.00  0.00    +0.000 A 
ENDBRANCH  25  26
ENDBRANCH  12  25
TORSDOF 5
ENDMDL
MODEL 8
REMARK VINA RESULT:      -7.2      6.486     11.016
REMARK  Name = 
REMARK  5 active torsions:
REMARK  status: ('A' for Active; 'I' for Inactive)
REMARK    1  A    between atoms: C_2  and  C_10
REMARK    2  A    between atoms: N_3  and  N_4
REMARK    3  A    between atoms: C_11  and  O_12
REMARK    4  A    between atoms: N_22  and  C_23
REMARK    5  A    between atoms: C_23  and  C_24
REMARK                            x       y       z     vdW  Elec       q    Type
REMARK                         _______ _______ _______ _____ _____    ______ ____
ROOT
ATOM      1  C   UNL     1      -1.139  11.225  21.609  0.00  0.00    +0.000 C 
ATOM      2  C   UNL     1      -0.618  10.053  22.064  0.00  0.00    +0.000 C 
ATOM      3  C   UNL     1       0.286   9.188  21.279  0.00  0.00    +0.000 A 
ATOM      4  C   UNL     1       0.472   7.835  21.590  0.00  0.00    +0.000 A 
ATOM      5  C   UNL     1       1.366   7.047  20.856  0.00  0.00    +0.000 A 
ATOM      6  C   UNL     1       2.078   7.600  19.791  0.00  0.00    +0.000 A 
ATOM      7  C   UNL     1       1.926   8.946  19.481  0.00  0.00    +0.000 A 
ATOM      8  C   UNL     1       1.057   9.723  20.250  0.00  0.00    +0.000 A 
ATOM      9  S   UNL     1       0.846  11.424  19.900  0.00  0.00    +0.000 S 
ATOM     10  O   UNL     1       1.590  12.195  20.872  0.00  0.00    +0.000 OA
ATOM     11  O   UNL     1       1.059  11.594  18.473  0.00  0.00    +0.000 OA
ATOM     12  N   UNL     1      -0.818  11.589  20.235  0.00  0.00    +0.000 N 
ENDROOT
BRANCH   1  14
ATOM     13  O   UNL     1      -1.418  12.398  23.647  0.00  0.00    +0.000 OA
ATOM     14  C   UNL     1      -1.961  12.000  22.616  0.00  0.00    +0.000 C 
ATOM     15  N   UNL     1      -3.312  12.129  22.381  0.00  0.00    +0.000 N 
ATOM     16  H   UNL     1      -3.745  11.656  21.597  0.00  0.00    +0.000 HD
BRANCH  15  17
ATOM     17  N   UNL     1      -4.113  12.521  23.424  0.00  0.00    +0.000 NA
ATOM     18  C   UNL     1      -5.358  12.786  23.187  0.00  0.00    +0.000 C 
ATOM     19  C   UNL     1      -6.293  13.111  24.323  0.00  0.00    +0.000 C 
ATOM     20  C   UNL     1      -7.419  13.816  23.584  0.00  0.00    +0.000 C 
ATOM     21  C   UNL     1      -7.505  13.081  22.252  0.00  0.00    +0.000 C 
ATOM     22  C   UNL     1      -6.057  12.812  21.853  0.00  0.00    +0.000 C 
ENDBRANCH  15  17
ENDBRANCH   1  14
BRANCH   2  23
ATOM     23  O   UNL     1      -0.857   9.533  23.330  0.00  0.00    +0.000 OA
ATOM     24  H   UNL     1      -0.991  10.276  23.962  0.00  0.00    +0.000 HD
ENDBRANCH   2  23
BRANCH  12  25
ATOM     25  C   UNL     1      -1.507  12.559  19.350  0.00  0.00    +0.000 C 
BRANCH  25  26
ATOM     26  C   UNL     1      -2.580  11.963  18.452  0.00  0.00    +0.000 A 
ATOM     27  C   UNL     1      -3.940  11.947  18.795  0.00  0.00    +0.000 A 
ATOM     28  C   UNL     1      -4.902  11.510  17.879  0.00  0.00    +0.000 A 
ATOM     29  C   UNL     1      -4.516  11.052  16.622  0.00  0.00    +0.000 A 
ATOM     30  C   UNL     1      -3.164  10.961  16.306  0.00  0.00    +0.000 A 
ATOM     31  C   UNL     1      -2.202  11.402  17.218  0.00  0.00    +0.000 A 
ENDBRANCH  25  26
ENDBRANCH  12  25
TORSDOF 5
ENDMDL
MODEL 9
REMARK VINA RESULT:      -7.1      5.149      8.733
REMARK  Name = 
REMARK  5 active torsions:
REMARK  status: ('A' for Active; 'I' for Inactive)
REMARK    1  A    between atoms: C_2  and  C_10
REMARK    2  A    between atoms: N_3  and  N_4
REMARK    3  A    between atoms: C_11  and  O_12
REMARK    4  A    between atoms: N_22  and  C_23
REMARK    5  A    between atoms: C_23  and  C_24
REMARK                            x       y       z     vdW  Elec       q    Type
REMARK                         _______ _______ _______ _____ _____    ______ ____
ROOT
ATOM      1  C   UNL     1       0.244  11.024  21.314  0.00  0.00    +0.000 C 
ATOM      2  C   UNL     1      -0.618  11.437  22.282  0.00  0.00    +0.000 C 
ATOM      3  C   UNL     1      -1.409  12.682  22.211  0.00  0.00    +0.000 A 
ATOM      4  C   UNL     1      -1.955  13.280  23.355  0.00  0.00    +0.000 A 
ATOM      5  C   UNL     1      -2.735  14.437  23.255  0.00  0.00    +0.000 A 
ATOM      6  C   UNL     1      -2.972  15.020  22.010  0.00  0.00    +0.000 A 
ATOM      7  C   UNL     1      -2.459  14.430  20.860  0.00  0.00    +0.000 A 
ATOM      8  C   UNL     1      -1.714  13.255  20.978  0.00  0.00    +0.000 A 
ATOM      9  S   UNL     1      -1.064  12.473  19.556  0.00  0.00    +0.000 S 
ATOM     10  O   UNL     1      -1.885  11.325  19.238  0.00  0.00    +0.000 OA
ATOM     11  O   UNL     1      -0.807  13.516  18.577  0.00  0.00    +0.000 OA
ATOM     12  N   UNL     1       0.425  11.920  20.179  0.00  0.00    +0.000 N 
ENDROOT
BRANCH   1  14
ATOM     13  O   UNL     1       1.627   9.519  22.510  0.00  0.00    +0.000 OA
ATOM     14  C   UNL     1       0.875   9.668  21.547  0.00  0.00    +0.000 C 
ATOM     15  N   UNL     1       0.660   8.689  20.603  0.00  0.00    +0.000 N 
ATOM     16  H   UNL     1       0.159   8.899  19.748  0.00  0.00    +0.000 HD
BRANCH  15  17
ATOM     17  N   UNL     1       1.479   7.588  20.618  0.00  0.00    +0.000 NA
ATOM     18  C   UNL     1       2.208   7.340  19.577  0.00  0.00    +0.000 C 
ATOM     19  C   UNL     1       3.200   6.205  19.599  0.00  0.00    +0.000 C 
ATOM     20  C   UNL     1       3.419   5.977  18.113  0.00  0.00    +0.000 C 
ATOM     21  C   UNL     1       3.346   7.375  17.509  0.00  0.00    +0.000 C 
ATOM     22  C   UNL     1       2.216   8.073  18.261  0.00  0.00    +0.000 C 
ENDBRANCH  15  17
ENDBRANCH   1  14
BRANCH   2  23
ATOM     23  O   UNL     1      -0.876  10.729  23.450  0.00  0.00    +0.000 OA
ATOM     24  H   UNL     1      -0.596   9.793  23.327  0.00  0.00    +0.000 HD
ENDBRANCH   2  23
BRANCH  12  25
ATOM     25  C   UNL     1       1.529  11.949  19.189  0.00  0.00    +0.000 C 
BRANCH  25  26
ATOM     26  C   UNL     1       2.428  13.174  19.262  0.00  0.00    +0.000 A 
ATOM     27  C   UNL     1       3.017  13.757  18.131  0.00  0.00    +0.000 A 
ATOM     28  C   UNL     1       3.725  14.958  18.234  0.00  0.00    +0.000 A 
ATOM     29  C   UNL     1       3.884  15.574  19.472  0.00  0.00    +0.000 A 
ATOM     30  C   UNL     1       3.398  14.954  20.620  0.00  0.00    +0.000 A 
ATOM     31  C   UNL     1       2.686  13.756  20.517  0.00  0.00    +0.000 A 
ENDBRANCH  25  26
ENDBRANCH  12  25
TORSDOF 5
ENDMDL
