MODEL 1
REMARK VINA RESULT:      -6.8      0.000      0.000
REMARK  Name = 
REMARK  8 active torsions:
REMARK  status: ('A' for Active; 'I' for Inactive)
REMARK    1  A    between atoms: C_3  and  O_4
REMARK    2  A    between atoms: C_6  and  C_7
REMARK    3  A    between atoms: C_7  and  C_8
REMARK    4  A    between atoms: C_7  and  C_9
REMARK    5  A    between atoms: N_10  and  C_11
REMARK    6  A    between atoms: C_11  and  C_12
REMARK    7  A    between atoms: C_12  and  C_13
REMARK    8  A    between atoms: C_12  and  C_14
REMARK                            x       y       z     vdW  Elec       q    Type
REMARK                         _______ _______ _______ _____ _____    ______ ____
ROOT
ATOM      1  C   UNL     1       5.671   3.838  15.842  0.00  0.00    +0.000 C 
ATOM      2  C   UNL     1       5.331   4.642  16.863  0.00  0.00    +0.000 C 
ATOM      3  C   UNL     1       5.494   6.118  16.954  0.00  0.00    +0.000 C 
ATOM      4  C   UNL     1       4.149   6.775  17.227  0.00  0.00    +0.000 C 
ATOM      5  C   UNL     1       3.570   6.471  18.625  0.00  0.00    +0.000 C 
ATOM      6  N   UNL     1       3.452   4.990  18.863  0.00  0.00    +0.000 NA
ATOM      7  S   UNL     1       4.724   3.957  18.338  0.00  0.00    +0.000 S 
ATOM      8  O   UNL     1       4.114   2.668  18.079  0.00  0.00    +0.000 OA
ATOM      9  O   UNL     1       5.783   4.070  19.312  0.00  0.00    +0.000 OA
ENDROOT
BRANCH   5  10
ATOM     10  C   UNL     1       2.194   7.206  18.812  0.00  0.00    +0.000 C 
ATOM     11  C   UNL     1       1.972   8.378  17.847  0.00  0.00    +0.000 C 
ATOM     12  C   UNL     1       1.978   7.677  20.261  0.00  0.00    +0.000 C 
ENDBRANCH   5  10
BRANCH   3  13
ATOM     13  O   UNL     1       6.018   6.659  15.736  0.00  0.00    +0.000 OA
ATOM     14  H   UNL     1       6.467   7.495  15.949  0.00  0.00    +0.000 HD
ENDBRANCH   3  13
BRANCH   6  15
ATOM     15  C   UNL     1       2.824   4.525  20.156  0.00  0.00    +0.000 C 
BRANCH  15  16
ATOM     16  C   UNL     1       1.387   3.947  20.088  0.00  0.00    +0.000 C 
ATOM     17  C   UNL     1       0.971   3.379  18.730  0.00  0.00    +0.000 C 
ATOM     18  C   UNL     1       1.235   2.837  21.140  0.00  0.00    +0.000 C 
ENDBRANCH  15  16
ENDBRANCH   6  15
TORSDOF 4
ENDMDL
MODEL 2
REMARK VINA RESULT:      -6.3      1.917      4.515
REMARK  Name = 
REMARK  8 active torsions:
REMARK  status: ('A' for Active; 'I' for Inactive)
REMARK    1  A    between atoms: C_3  and  O_4
REMARK    2  A    between atoms: C_6  and  C_7
REMARK    3  A    between atoms: C_7  and  C_8
REMARK    4  A    between atoms: C_7  and  C_9
REMARK    5  A    between atoms: N_10  and  C_11
REMARK    6  A    between atoms: C_11  and  C_12
REMARK    7  A    between atoms: C_12  and  C_13
REMARK    8  A    between atoms: C_12  and  C_14
REMARK                            x       y       z     vdW  Elec       q    Type
REMARK                         _______ _______ _______ _____ _____    ______ ____
ROOT
ATOM      1  C   UNL     1       2.516   2.508  21.380  0.00  0.00    +0.000 C 
ATOM      2  C   UNL     1       2.621   3.092  20.174  0.00  0.00    +0.000 C 
ATOM      3  C   UNL     1       1.597   3.906  19.464  0.00  0.00    +0.000 C 
ATOM      4  C   UNL     1       2.165   5.278  19.128  0.00  0.00    +0.000 C 
ATOM      5  C   UNL     1       3.289   5.254  18.069  0.00  0.00    +0.000 C 
ATOM      6  N   UNL     1       4.414   4.343  18.479  0.00  0.00    +0.000 NA
ATOM      7  S   UNL     1       4.037   2.829  19.206  0.00  0.00    +0.000 S 
ATOM      8  O   UNL     1       5.167   2.498  20.051  0.00  0.00    +0.000 OA
ATOM      9  O   UNL     1       3.650   1.938  18.140  0.00  0.00    +0.000 OA
ENDROOT
BRANCH   5  10
ATOM     10  C   UNL     1       3.793   6.714  17.783  0.00  0.00    +0.000 C 
ATOM     11  C   UNL     1       2.751   7.805  18.068  0.00  0.00    +0.000 C 
ATOM     12  C   UNL     1       4.334   6.873  16.352  0.00  0.00    +0.000 C 
ENDBRANCH   5  10
BRANCH   3  13
ATOM     13  O   UNL     1       0.429   4.090  20.271  0.00  0.00    +0.000 OA
ATOM     14  H   UNL     1       0.322   3.300  20.828  0.00  0.00    +0.000 HD
ENDBRANCH   3  13
BRANCH   6  15
ATOM     15  C   UNL     1       5.631   4.271  17.588  0.00  0.00    +0.000 C 
BRANCH  15  16
ATOM     16  C   UNL     1       6.932   4.941  18.097  0.00  0.00    +0.000 C 
ATOM     17  C   UNL     1       7.450   6.104  17.249  0.00  0.00    +0.000 C 
ATOM     18  C   UNL     1       6.713   5.453  19.530  0.00  0.00    +0.000 C 
ENDBRANCH  15  16
ENDBRANCH   6  15
TORSDOF 4
ENDMDL
MODEL 3
REMARK VINA RESULT:      -6.2      2.292      4.147
REMARK  Name = 
REMARK  8 active torsions:
REMARK  status: ('A' for Active; 'I' for Inactive)
REMARK    1  A    between atoms: C_3  and  O_4
REMARK    2  A    between atoms: C_6  and  C_7
REMARK    3  A    between atoms: C_7  and  C_8
REMARK    4  A    between atoms: C_7  and  C_9
REMARK    5  A    between atoms: N_10  and  C_11
REMARK    6  A    between atoms: C_11  and  C_12
REMARK    7  A    between atoms: C_12  and  C_13
REMARK    8  A    between atoms: C_12  and  C_14
REMARK                            x       y       z     vdW  Elec       q    Type
REMARK                         _______ _______ _______ _____ _____    ______ ____
ROOT
ATOM      1  C   UNL     1       2.684   1.598  18.750  0.00  0.00    +0.000 C 
ATOM      2  C   UNL     1       3.119   2.852  18.959  0.00  0.00    +0.000 C 
ATOM      3  C   UNL     1       4.435   3.280  19.506  0.00  0.00    +0.000 C 
ATOM      4  C   UNL     1       5.130   4.211  18.523  0.00  0.00    +0.000 C 
ATOM      5  C   UNL     1       4.438   5.580  18.352  0.00  0.00    +0.000 C 
ATOM      6  N   UNL     1       2.997   5.424  17.947  0.00  0.00    +0.000 NA
ATOM      7  S   UNL     1       2.052   4.193  18.691  0.00  0.00    +0.000 S 
ATOM      8  O   UNL     1       1.028   3.836  17.728  0.00  0.00    +0.000 OA
ATOM      9  O   UNL     1       1.674   4.687  19.993  0.00  0.00    +0.000 OA
ENDROOT
BRANCH   5  10
ATOM     10  C   UNL     1       5.239   6.468  17.333  0.00  0.00    +0.000 C 
ATOM     11  C   UNL     1       5.212   5.946  15.890  0.00  0.00    +0.000 C 
ATOM     12  C   UNL     1       6.694   6.695  17.777  0.00  0.00    +0.000 C 
ENDBRANCH   5  10
BRANCH   3  13
ATOM     13  O   UNL     1       5.291   2.157  19.741  0.00  0.00    +0.000 OA
ATOM     14  H   UNL     1       5.595   1.827  18.878  0.00  0.00    +0.000 HD
ENDBRANCH   3  13
BRANCH   6  15
ATOM     15  C   UNL     1       2.200   6.673  17.659  0.00  0.00    +0.000 C 
BRANCH  15  16
ATOM     16  C   UNL     1       2.545   7.947  18.472  0.00  0.00    +0.000 C 
ATOM     17  C   UNL     1       2.107   9.270  17.842  0.00  0.00    +0.000 C 
ATOM     18  C   UNL     1       1.909   7.847  19.868  0.00  0.00    +0.000 C 
ENDBRANCH  15  16
ENDBRANCH   6  15
TORSDOF 4
ENDMDL
MODEL 4
REMARK VINA RESULT:      -6.1      1.505      4.364
REMARK  Name = 
REMARK  8 active torsions:
REMARK  status: ('A' for Active; 'I' for Inactive)
REMARK    1  A    between atoms: C_3  and  O_4
REMARK    2  A    between atoms: C_6  and  C_7
REMARK    3  A    between atoms: C_7  and  C_8
REMARK    4  A    between atoms: C_7  and  C_9
REMARK    5  A    between atoms: N_10  and  C_11
REMARK    6  A    between atoms: C_11  and  C_12
REMARK    7  A    between atoms: C_12  and  C_13
REMARK    8  A    between atoms: C_12  and  C_14
REMARK                            x       y       z     vdW  Elec       q    Type
REMARK                         _______ _______ _______ _____ _____    ______ ____
ROOT
ATOM      1  C   UNL     1       2.914   2.187  20.993  0.00  0.00    +0.000 C 
ATOM      2  C   UNL     1       2.760   3.119  20.036  0.00  0.00    +0.000 C 
ATOM      3  C   UNL     1       1.499   3.780  19.604  0.00  0.00    +0.000 C 
ATOM      4  C   UNL     1       1.633   5.290  19.731  0.00  0.00    +0.000 C 
ATOM      5  C   UNL     1       2.635   5.922  18.740  0.00  0.00    +0.000 C 
ATOM      6  N   UNL     1       3.997   5.294  18.859  0.00  0.00    +0.000 NA
ATOM      7  S   UNL     1       4.115   3.590  19.061  0.00  0.00    +0.000 S 
ATOM      8  O   UNL     1       5.354   3.355  19.777  0.00  0.00    +0.000 OA
ATOM      9  O   UNL     1       3.913   2.999  17.760  0.00  0.00    +0.000 OA
ENDROOT
BRANCH   5  10
ATOM     10  C   UNL     1       2.687   7.478  18.941  0.00  0.00    +0.000 C 
ATOM     11  C   UNL     1       1.814   7.992  20.095  0.00  0.00    +0.000 C 
ATOM     12  C   UNL     1       2.347   8.244  17.651  0.00  0.00    +0.000 C 
ENDBRANCH   5  10
BRANCH   3  13
ATOM     13  O   UNL     1       0.390   3.359  20.406  0.00  0.00    +0.000 OA
ATOM     14  H   UNL     1      -0.362   3.189  19.811  0.00  0.00    +0.000 HD
ENDBRANCH   3  13
BRANCH   6  15
ATOM     15  C   UNL     1       5.115   5.857  18.013  0.00  0.00    +0.000 C 
BRANCH  15  16
ATOM     16  C   UNL     1       5.156   5.449  16.518  0.00  0.00    +0.000 C 
ATOM     17  C   UNL     1       5.085   6.605  15.518  0.00  0.00    +0.000 C 
ATOM     18  C   UNL     1       6.443   4.655  16.242  0.00  0.00    +0.000 C 
ENDBRANCH  15  16
ENDBRANCH   6  15
TORSDOF 4
ENDMDL
MODEL 5
REMARK VINA RESULT:      -6.1      2.212      5.016
REMARK  Name = 
REMARK  8 active torsions:
REMARK  status: ('A' for Active; 'I' for Inactive)
REMARK    1  A    between atoms: C_3  and  O_4
REMARK    2  A    between atoms: C_6  and  C_7
REMARK    3  A    between atoms: C_7  and  C_8
REMARK    4  A    between atoms: C_7  and  C_9
REMARK    5  A    between atoms: N_10  and  C_11
REMARK    6  A    between atoms: C_11  and  C_12
REMARK    7  A    between atoms: C_12  and  C_13
REMARK    8  A    between atoms: C_12  and  C_14
REMARK                            x       y       z     vdW  Elec       q    Type
REMARK                         _______ _______ _______ _____ _____    ______ ____
ROOT
ATOM      1  C   UNL     1       2.476   3.115  20.052  0.00  0.00    +0.000 C 
ATOM      2  C   UNL     1       3.131   3.931  19.209  0.00  0.00    +0.000 C 
ATOM      3  C   UNL     1       3.357   5.395  19.351  0.00  0.00    +0.000 C 
ATOM      4  C   UNL     1       4.848   5.699  19.303  0.00  0.00    +0.000 C 
ATOM      5  C   UNL     1       5.500   5.446  17.927  0.00  0.00    +0.000 C 
ATOM      6  N   UNL     1       5.270   4.035  17.458  0.00  0.00    +0.000 NA
ATOM      7  S   UNL     1       3.724   3.319  17.698  0.00  0.00    +0.000 S 
ATOM      8  O   UNL     1       3.953   1.891  17.790  0.00  0.00    +0.000 OA
ATOM      9  O   UNL     1       2.856   3.844  16.671  0.00  0.00    +0.000 OA
ENDROOT
BRANCH   5  10
ATOM     10  C   UNL     1       7.029   5.804  17.979  0.00  0.00    +0.000 C 
ATOM     11  C   UNL     1       7.667   5.632  19.365  0.00  0.00    +0.000 C 
ATOM     12  C   UNL     1       7.314   7.219  17.447  0.00  0.00    +0.000 C 
ENDBRANCH   5  10
BRANCH   3  13
ATOM     13  O   UNL     1       2.840   5.883  20.594  0.00  0.00    +0.000 OA
ATOM     14  H   UNL     1       2.191   6.580  20.394  0.00  0.00    +0.000 HD
ENDBRANCH   3  13
BRANCH   6  15
ATOM     15  C   UNL     1       5.915   3.602  16.163  0.00  0.00    +0.000 C 
BRANCH  15  16
ATOM     16  C   UNL     1       5.840   4.580  14.963  0.00  0.00    +0.000 C 
ATOM     17  C   UNL     1       7.185   5.094  14.447  0.00  0.00    +0.000 C 
ATOM     18  C   UNL     1       5.106   3.899  13.797  0.00  0.00    +0.000 C 
ENDBRANCH  15  16
ENDBRANCH   6  15
TORSDOF 4
ENDMDL
MODEL 6
REMARK VINA RESULT:      -6.1      0.946      1.294
REMARK  Name = 
REMARK  8 active torsions:
REMARK  status: ('A' for Active; 'I' for Inactive)
REMARK    1  A    between atoms: C_3  and  O_4
REMARK    2  A    between atoms: C_6  and  C_7
REMARK    3  A    between atoms: C_7  and  C_8
REMARK    4  A    between atoms: C_7  and  C_9
REMARK    5  A    between atoms: N_10  and  C_11
REMARK    6  A    between atoms: C_11  and  C_12
REMARK    7  A    between atoms: C_12  and  C_13
REMARK    8  A    between atoms: C_12  and  C_14
REMARK                            x       y       z     vdW  Elec       q    Type
REMARK                         _______ _______ _______ _____ _____    ______ ____
ROOT
ATOM      1  C   UNL     1       6.664   4.886  15.822  0.00  0.00    +0.000 C 
ATOM      2  C   UNL     1       6.045   5.324  16.932  0.00  0.00    +0.000 C 
ATOM      3  C   UNL     1       6.058   6.700  17.498  0.00  0.00    +0.000 C 
ATOM      4  C   UNL     1       4.635   7.219  17.640  0.00  0.00    +0.000 C 
ATOM      5  C   UNL     1       3.797   6.483  18.709  0.00  0.00    +0.000 C 
ATOM      6  N   UNL     1       3.759   5.000  18.454  0.00  0.00    +0.000 NA
ATOM      7  S   UNL     1       5.198   4.203  17.950  0.00  0.00    +0.000 S 
ATOM      8  O   UNL     1       4.771   3.051  17.181  0.00  0.00    +0.000 OA
ATOM      9  O   UNL     1       6.010   4.021  19.129  0.00  0.00    +0.000 OA
ENDROOT
BRANCH   5  10
ATOM     10  C   UNL     1       2.356   7.101  18.786  0.00  0.00    +0.000 C 
ATOM     11  C   UNL     1       2.108   8.244  17.792  0.00  0.00    +0.000 C 
ATOM     12  C   UNL     1       1.996   7.563  20.209  0.00  0.00    +0.000 C 
ENDBRANCH   5  10
BRANCH   3  13
ATOM     13  O   UNL     1       6.782   7.603  16.655  0.00  0.00    +0.000 OA
ATOM     14  H   UNL     1       7.732   7.466  16.816  0.00  0.00    +0.000 HD
ENDBRANCH   3  13
BRANCH   6  15
ATOM     15  C   UNL     1       2.911   4.145  19.366  0.00  0.00    +0.000 C 
BRANCH  15  16
ATOM     16  C   UNL     1       1.786   3.301  18.715  0.00  0.00    +0.000 C 
ATOM     17  C   UNL     1       0.601   2.970  19.624  0.00  0.00    +0.000 C 
ATOM     18  C   UNL     1       1.250   4.037  17.476  0.00  0.00    +0.000 C 
ENDBRANCH  15  16
ENDBRANCH   6  15
TORSDOF 4
ENDMDL
MODEL 7
REMARK VINA RESULT:      -6.0      1.659      4.531
REMARK  Name = 
REMARK  8 active torsions:
REMARK  status: ('A' for Active; 'I' for Inactive)
REMARK    1  A    between atoms: C_3  and  O_4
REMARK    2  A    between atoms: C_6  and  C_7
REMARK    3  A    between atoms: C_7  and  C_8
REMARK    4  A    between atoms: C_7  and  C_9
REMARK    5  A    between atoms: N_10  and  C_11
REMARK    6  A    between atoms: C_11  and  C_12
REMARK    7  A    between atoms: C_12  and  C_13
REMARK    8  A    between atoms: C_12  and  C_14
REMARK                            x       y       z     vdW  Elec       q    Type
REMARK                         _______ _______ _______ _____ _____    ______ ____
ROOT
ATOM      1  C   UNL     1       3.104   2.149  21.012  0.00  0.00    +0.000 C 
ATOM      2  C   UNL     1       2.852   3.055  20.052  0.00  0.00    +0.000 C 
ATOM      3  C   UNL     1       1.566   3.747  19.768  0.00  0.00    +0.000 C 
ATOM      4  C   UNL     1       1.762   5.255  19.822  0.00  0.00    +0.000 C 
ATOM      5  C   UNL     1       2.641   5.819  18.685  0.00  0.00    +0.000 C 
ATOM      6  N   UNL     1       3.988   5.148  18.644  0.00  0.00    +0.000 NA
ATOM      7  S   UNL     1       4.078   3.447  18.889  0.00  0.00    +0.000 S 
ATOM      8  O   UNL     1       5.394   3.191  19.442  0.00  0.00    +0.000 OA
ATOM      9  O   UNL     1       3.685   2.824  17.648  0.00  0.00    +0.000 OA
ENDROOT
BRANCH   5  10
ATOM     10  C   UNL     1       2.769   7.378  18.822  0.00  0.00    +0.000 C 
ATOM     11  C   UNL     1       1.960   7.974  19.983  0.00  0.00    +0.000 C 
ATOM     12  C   UNL     1       2.418   8.108  17.514  0.00  0.00    +0.000 C 
ENDBRANCH   5  10
BRANCH   3  13
ATOM     13  O   UNL     1       0.562   3.391  20.725  0.00  0.00    +0.000 OA
ATOM     14  H   UNL     1       0.290   4.203  21.189  0.00  0.00    +0.000 HD
ENDBRANCH   3  13
BRANCH   6  15
ATOM     15  C   UNL     1       4.998   5.643  17.637  0.00  0.00    +0.000 C 
BRANCH  15  16
ATOM     16  C   UNL     1       6.388   6.075  18.171  0.00  0.00    +0.000 C 
ATOM     17  C   UNL     1       7.501   5.035  18.025  0.00  0.00    +0.000 C 
ATOM     18  C   UNL     1       6.833   7.358  17.452  0.00  0.00    +0.000 C 
ENDBRANCH  15  16
ENDBRANCH   6  15
TORSDOF 4
ENDMDL
MODEL 8
REMARK VINA RESULT:      -6.0      0.938      1.187
REMARK  Name = 
REMARK  8 active torsions:
REMARK  status: ('A' for Active; 'I' for Inactive)
REMARK    1  A    between atoms: C_3  and  O_4
REMARK    2  A    between atoms: C_6  and  C_7
REMARK    3  A    between atoms: C_7  and  C_8
REMARK    4  A    between atoms: C_7  and  C_9
REMARK    5  A    between atoms: N_10  and  C_11
REMARK    6  A    between atoms: C_11  and  C_12
REMARK    7  A    between atoms: C_12  and  C_13
REMARK    8  A    between atoms: C_12  and  C_14
REMARK                            x       y       z     vdW  Elec       q    Type
REMARK                         _______ _______ _______ _____ _____    ______ ____
ROOT
ATOM      1  C   UNL     1       5.388   4.323  15.441  0.00  0.00    +0.000 C 
ATOM      2  C   UNL     1       4.972   4.876  16.592  0.00  0.00    +0.000 C 
ATOM      3  C   UNL     1       5.417   6.160  17.199  0.00  0.00    +0.000 C 
ATOM      4  C   UNL     1       4.220   7.071  17.427  0.00  0.00    +0.000 C 
ATOM      5  C   UNL     1       3.242   6.571  18.513  0.00  0.00    +0.000 C 
ATOM      6  N   UNL     1       2.753   5.179  18.216  0.00  0.00    +0.000 NA
ATOM      7  S   UNL     1       3.868   4.014  17.616  0.00  0.00    +0.000 S 
ATOM      8  O   UNL     1       3.087   3.076  16.835  0.00  0.00    +0.000 OA
ATOM      9  O   UNL     1       4.633   3.547  18.748  0.00  0.00    +0.000 OA
ENDROOT
BRANCH   5  10
ATOM     10  C   UNL     1       2.055   7.586  18.682  0.00  0.00    +0.000 C 
ATOM     11  C   UNL     1       2.187   8.854  17.827  0.00  0.00    +0.000 C 
ATOM     12  C   UNL     1       1.824   7.972  20.153  0.00  0.00    +0.000 C 
ENDBRANCH   5  10
BRANCH   3  13
ATOM     13  O   UNL     1       6.344   6.843  16.349  0.00  0.00    +0.000 OA
ATOM     14  H   UNL     1       6.667   7.627  16.827  0.00  0.00    +0.000 HD
ENDBRANCH   3  13
BRANCH   6  15
ATOM     15  C   UNL     1       1.724   4.575  19.142  0.00  0.00    +0.000 C 
BRANCH  15  16
ATOM     16  C   UNL     1       2.188   3.428  20.076  0.00  0.00    +0.000 C 
ATOM     17  C   UNL     1       2.111   3.727  21.574  0.00  0.00    +0.000 C 
ATOM     18  C   UNL     1       1.348   2.172  19.794  0.00  0.00    +0.000 C 
ENDBRANCH  15  16
ENDBRANCH   6  15
TORSDOF 4
ENDMDL
MODEL 9
REMARK VINA RESULT:      -5.9      2.384      5.244
REMARK  Name = 
REMARK  8 active torsions:
REMARK  status: ('A' for Active; 'I' for Inactive)
REMARK    1  A    between atoms: C_3  and  O_4
REMARK    2  A    between atoms: C_6  and  C_7
REMARK    3  A    between atoms: C_7  and  C_8
REMARK    4  A    between atoms: C_7  and  C_9
REMARK    5  A    between atoms: N_10  and  C_11
REMARK    6  A    between atoms: C_11  and  C_12
REMARK    7  A    between atoms: C_12  and  C_13
REMARK    8  A    between atoms: C_12  and  C_14
REMARK                            x       y       z     vdW  Elec       q    Type
REMARK                         _______ _______ _______ _____ _____    ______ ____
ROOT
ATOM      1  C   UNL     1       1.497   3.978  18.819  0.00  0.00    +0.000 C 
ATOM      2  C   UNL     1       2.792   4.059  18.470  0.00  0.00    +0.000 C 
ATOM      3  C   UNL     1       3.656   2.979  17.921  0.00  0.00    +0.000 C 
ATOM      4  C   UNL     1       4.246   3.412  16.587  0.00  0.00    +0.000 C 
ATOM      5  C   UNL     1       5.269   4.564  16.692  0.00  0.00    +0.000 C 
ATOM      6  N   UNL     1       4.679   5.764  17.382  0.00  0.00    +0.000 NA
ATOM      7  S   UNL     1       3.676   5.523  18.760  0.00  0.00    +0.000 S 
ATOM      8  O   UNL     1       2.772   6.656  18.800  0.00  0.00    +0.000 OA
ATOM      9  O   UNL     1       4.553   5.263  19.875  0.00  0.00    +0.000 OA
ENDROOT
BRANCH   5  10
ATOM     10  C   UNL     1       5.828   4.923  15.269  0.00  0.00    +0.000 C 
ATOM     11  C   UNL     1       5.126   4.191  14.116  0.00  0.00    +0.000 C 
ATOM     12  C   UNL     1       7.348   4.712  15.170  0.00  0.00    +0.000 C 
ENDBRANCH   5  10
BRANCH   3  13
ATOM     13  O   UNL     1       2.912   1.774  17.712  0.00  0.00    +0.000 OA
ATOM     14  H   UNL     1       3.397   1.232  17.064  0.00  0.00    +0.000 HD
ENDBRANCH   3  13
BRANCH   6  15
ATOM     15  C   UNL     1       5.527   7.008  17.493  0.00  0.00    +0.000 C 
BRANCH  15  16
ATOM     16  C   UNL     1       7.065   6.823  17.564  0.00  0.00    +0.000 C 
ATOM     17  C   UNL     1       7.885   8.114  17.558  0.00  0.00    +0.000 C 
ATOM     18  C   UNL     1       7.424   6.033  18.833  0.00  0.00    +0.000 C 
ENDBRANCH  15  16
ENDBRANCH   6  15
TORSDOF 4
ENDMDL
