MODEL 1
REMARK VINA RESULT:      -7.3      0.000      0.000
REMARK  Name = 
REMARK  9 active torsions:
REMARK  status: ('A' for Active; 'I' for Inactive)
REMARK    1  A    between atoms: C_1  and  C_2
REMARK    2  A    between atoms: C_4  and  C_5
REMARK    3  A    between atoms: C_13  and  C_14
REMARK    4  A    between atoms: C_14  and  O_15
REMARK    5  A    between atoms: O_15  and  C_16
REMARK    6  A    between atoms: C_16  and  C_17
REMARK    7  A    between atoms: C_16  and  C_18
REMARK    8  A    between atoms: C_16  and  C_19
REMARK    9  A    between atoms: C_19  and  O_21
REMARK                            x       y       z     vdW  Elec       q    Type
REMARK                         _______ _______ _______ _____ _____    ______ ____
ROOT
ATOM      1  C   UNL     1       2.226   3.423  21.335  0.00  0.00    +0.000 C 
ATOM      2  C   UNL     1       2.501   4.646  20.565  0.00  0.00    +0.000 A 
ATOM      3  N   UNL     1       1.699   5.760  20.700  0.00  0.00    +0.000 NA
ATOM      4  C   UNL     1       2.223   6.639  19.859  0.00  0.00    +0.000 A 
ATOM      5  O   UNL     1       3.335   6.187  19.208  0.00  0.00    +0.000 OA
ATOM      6  C   UNL     1       3.519   4.914  19.668  0.00  0.00    +0.000 A 
ENDROOT
BRANCH   4   7
ATOM      7  C   UNL     1       1.816   8.011  19.596  0.00  0.00    +0.000 A 
ATOM      8  C   UNL     1       2.027   8.594  18.338  0.00  0.00    +0.000 A 
ATOM      9  C   UNL     1       1.565   9.886  18.067  0.00  0.00    +0.000 A 
ATOM     10  C   UNL     1       0.916  10.612  19.063  0.00  0.00    +0.000 A 
ATOM     11 CL   UNL     1       0.319  12.190  18.728  0.00  0.00    +0.000 Cl
ATOM     12  C   UNL     1       0.728  10.060  20.329  0.00  0.00    +0.000 A 
ATOM     13  C   UNL     1       1.178   8.765  20.593  0.00  0.00    +0.000 A 
ENDBRANCH   4   7
BRANCH   6  14
ATOM     14  C   UNL     1       4.695   4.165  19.188  0.00  0.00    +0.000 C 
BRANCH  14  15
ATOM     15  O   UNL     1       5.558   5.107  18.536  0.00  0.00    +0.000 OA
BRANCH  15  16
ATOM     16  C   UNL     1       5.710   4.934  17.112  0.00  0.00    +0.000 C 
ATOM     17  C   UNL     1       4.860   3.717  16.699  0.00  0.00    +0.000 C 
ATOM     18  C   UNL     1       5.252   6.181  16.338  0.00  0.00    +0.000 C 
BRANCH  16  19
ATOM     19  C   UNL     1       7.176   4.613  16.755  0.00  0.00    +0.000 C 
ATOM     20  O   UNL     1       7.695   4.847  15.668  0.00  0.00    +0.000 OA
BRANCH  19  21
ATOM     21  O   UNL     1       7.883   4.053  17.774  0.00  0.00    +0.000 OA
ATOM     22  H   UNL     1       7.523   3.177  18.028  0.00  0.00    +0.000 HD
ENDBRANCH  19  21
ENDBRANCH  16  19
ENDBRANCH  15  16
ENDBRANCH  14  15
ENDBRANCH   6  14
TORSDOF 6
ENDMDL
MODEL 2
REMARK VINA RESULT:      -7.2      1.077      1.458
REMARK  Name = 
REMARK  9 active torsions:
REMARK  status: ('A' for Active; 'I' for Inactive)
REMARK    1  A    between atoms: C_1  and  C_2
REMARK    2  A    between atoms: C_4  and  C_5
REMARK    3  A    between atoms: C_13  and  C_14
REMARK    4  A    between atoms: C_14  and  O_15
REMARK    5  A    between atoms: O_15  and  C_16
REMARK    6  A    between atoms: C_16  and  C_17
REMARK    7  A    between atoms: C_16  and  C_18
REMARK    8  A    between atoms: C_16  and  C_19
REMARK    9  A    between atoms: C_19  and  O_21
REMARK                            x       y       z     vdW  Elec       q    Type
REMARK                         _______ _______ _______ _____ _____    ______ ____
ROOT
ATOM      1  C   UNL     1       2.718   2.806  20.452  0.00  0.00    +0.000 C 
ATOM      2  C   UNL     1       2.940   4.165  19.937  0.00  0.00    +0.000 A 
ATOM      3  N   UNL     1       2.031   5.172  20.186  0.00  0.00    +0.000 NA
ATOM      4  C   UNL     1       2.537   6.227  19.565  0.00  0.00    +0.000 A 
ATOM      5  O   UNL     1       3.735   5.987  18.954  0.00  0.00    +0.000 OA
ATOM      6  C   UNL     1       3.997   4.669  19.201  0.00  0.00    +0.000 A 
ENDROOT
BRANCH   4   7
ATOM      7  C   UNL     1       2.028   7.589  19.506  0.00  0.00    +0.000 A 
ATOM      8  C   UNL     1       2.112   8.337  18.322  0.00  0.00    +0.000 A 
ATOM      9  C   UNL     1       1.552   9.616  18.250  0.00  0.00    +0.000 A 
ATOM     10  C   UNL     1       0.933  10.166  19.370  0.00  0.00    +0.000 A 
ATOM     11 CL   UNL     1       0.217  11.727  19.278  0.00  0.00    +0.000 Cl
ATOM     12  C   UNL     1       0.871   9.449  20.564  0.00  0.00    +0.000 A 
ATOM     13  C   UNL     1       1.418   8.166  20.631  0.00  0.00    +0.000 A 
ENDBRANCH   4   7
BRANCH   6  14
ATOM     14  C   UNL     1       5.273   4.111  18.713  0.00  0.00    +0.000 C 
BRANCH  14  15
ATOM     15  O   UNL     1       5.362   4.421  17.315  0.00  0.00    +0.000 OA
BRANCH  15  16
ATOM     16  C   UNL     1       6.603   5.017  16.885  0.00  0.00    +0.000 C 
ATOM     17  C   UNL     1       6.434   6.547  16.956  0.00  0.00    +0.000 C 
ATOM     18  C   UNL     1       7.779   4.578  17.774  0.00  0.00    +0.000 C 
BRANCH  16  19
ATOM     19  C   UNL     1       6.902   4.655  15.416  0.00  0.00    +0.000 C 
ATOM     20  O   UNL     1       7.599   5.326  14.662  0.00  0.00    +0.000 OA
BRANCH  19  21
ATOM     21  O   UNL     1       6.335   3.487  15.009  0.00  0.00    +0.000 OA
ATOM     22  H   UNL     1       6.696   2.717  15.498  0.00  0.00    +0.000 HD
ENDBRANCH  19  21
ENDBRANCH  16  19
ENDBRANCH  15  16
ENDBRANCH  14  15
ENDBRANCH   6  14
TORSDOF 6
ENDMDL
MODEL 3
REMARK VINA RESULT:      -7.1      1.229      1.877
REMARK  Name = 
REMARK  9 active torsions:
REMARK  status: ('A' for Active; 'I' for Inactive)
REMARK    1  A    between atoms: C_1  and  C_2
REMARK    2  A    between atoms: C_4  and  C_5
REMARK    3  A    between atoms: C_13  and  C_14
REMARK    4  A    between atoms: C_14  and  O_15
REMARK    5  A    between atoms: O_15  and  C_16
REMARK    6  A    between atoms: C_16  and  C_17
REMARK    7  A    between atoms: C_16  and  C_18
REMARK    8  A    between atoms: C_16  and  C_19
REMARK    9  A    between atoms: C_19  and  O_21
REMARK                            x       y       z     vdW  Elec       q    Type
REMARK                         _______ _______ _______ _____ _____    ______ ____
ROOT
ATOM      1  C   UNL     1       2.964   2.932  20.646  0.00  0.00    +0.000 C 
ATOM      2  C   UNL     1       3.100   4.258  20.024  0.00  0.00    +0.000 A 
ATOM      3  N   UNL     1       2.171   5.249  20.265  0.00  0.00    +0.000 NA
ATOM      4  C   UNL     1       2.595   6.273  19.539  0.00  0.00    +0.000 A 
ATOM      5  O   UNL     1       3.758   6.029  18.865  0.00  0.00    +0.000 OA
ATOM      6  C   UNL     1       4.086   4.742  19.184  0.00  0.00    +0.000 A 
ENDROOT
BRANCH   4   7
ATOM      7  C   UNL     1       2.032   7.609  19.422  0.00  0.00    +0.000 A 
ATOM      8  C   UNL     1       1.392   8.217  20.512  0.00  0.00    +0.000 A 
ATOM      9  C   UNL     1       0.922   9.530  20.416  0.00  0.00    +0.000 A 
ATOM     10  C   UNL     1       1.062  10.232  19.221  0.00  0.00    +0.000 A 
ATOM     11 CL   UNL     1       0.511  11.857  19.107  0.00  0.00    +0.000 Cl
ATOM     12  C   UNL     1       1.665   9.630  18.118  0.00  0.00    +0.000 A 
ATOM     13  C   UNL     1       2.147   8.323  18.219  0.00  0.00    +0.000 A 
ENDBRANCH   4   7
BRANCH   6  14
ATOM     14  C   UNL     1       5.347   4.193  18.650  0.00  0.00    +0.000 C 
BRANCH  14  15
ATOM     15  O   UNL     1       5.205   4.123  17.224  0.00  0.00    +0.000 OA
BRANCH  15  16
ATOM     16  C   UNL     1       6.257   4.747  16.459  0.00  0.00    +0.000 C 
ATOM     17  C   UNL     1       7.562   4.613  17.268  0.00  0.00    +0.000 C 
ATOM     18  C   UNL     1       6.424   4.087  15.081  0.00  0.00    +0.000 C 
BRANCH  16  19
ATOM     19  C   UNL     1       5.980   6.254  16.281  0.00  0.00    +0.000 C 
ATOM     20  O   UNL     1       5.150   6.722  15.508  0.00  0.00    +0.000 OA
BRANCH  19  21
ATOM     21  O   UNL     1       6.734   7.053  17.084  0.00  0.00    +0.000 OA
ATOM     22  H   UNL     1       6.800   6.695  17.994  0.00  0.00    +0.000 HD
ENDBRANCH  19  21
ENDBRANCH  16  19
ENDBRANCH  15  16
ENDBRANCH  14  15
ENDBRANCH   6  14
TORSDOF 6
ENDMDL
MODEL 4
REMARK VINA RESULT:      -7.0      1.131      1.467
REMARK  Name = 
REMARK  9 active torsions:
REMARK  status: ('A' for Active; 'I' for Inactive)
REMARK    1  A    between atoms: C_1  and  C_2
REMARK    2  A    between atoms: C_4  and  C_5
REMARK    3  A    between atoms: C_13  and  C_14
REMARK    4  A    between atoms: C_14  and  O_15
REMARK    5  A    between atoms: O_15  and  C_16
REMARK    6  A    between atoms: C_16  and  C_17
REMARK    7  A    between atoms: C_16  and  C_18
REMARK    8  A    between atoms: C_16  and  C_19
REMARK    9  A    between atoms: C_19  and  O_21
REMARK                            x       y       z     vdW  Elec       q    Type
REMARK                         _______ _______ _______ _____ _____    ______ ____
ROOT
ATOM      1  C   UNL     1       2.691   3.247  20.951  0.00  0.00    +0.000 C 
ATOM      2  C   UNL     1       2.856   4.507  20.211  0.00  0.00    +0.000 A 
ATOM      3  N   UNL     1       2.013   5.575  20.438  0.00  0.00    +0.000 NA
ATOM      4  C   UNL     1       2.438   6.507  19.598  0.00  0.00    +0.000 A 
ATOM      5  O   UNL     1       3.524   6.133  18.860  0.00  0.00    +0.000 OA
ATOM      6  C   UNL     1       3.798   4.856  19.260  0.00  0.00    +0.000 A 
ENDROOT
BRANCH   4   7
ATOM      7  C   UNL     1       1.950   7.865  19.413  0.00  0.00    +0.000 A 
ATOM      8  C   UNL     1       2.049   8.500  18.166  0.00  0.00    +0.000 A 
ATOM      9  C   UNL     1       1.509   9.775  17.974  0.00  0.00    +0.000 A 
ATOM     10  C   UNL     1       0.893  10.435  19.036  0.00  0.00    +0.000 A 
ATOM     11 CL   UNL     1       0.202  11.992  18.798  0.00  0.00    +0.000 Cl
ATOM     12  C   UNL     1       0.817   9.832  20.290  0.00  0.00    +0.000 A 
ATOM     13  C   UNL     1       1.344   8.552  20.477  0.00  0.00    +0.000 A 
ENDBRANCH   4   7
BRANCH   6  14
ATOM     14  C   UNL     1       4.974   4.183  18.678  0.00  0.00    +0.000 C 
BRANCH  14  15
ATOM     15  O   UNL     1       4.877   4.320  17.253  0.00  0.00    +0.000 OA
BRANCH  15  16
ATOM     16  C   UNL     1       6.074   4.768  16.585  0.00  0.00    +0.000 C 
ATOM     17  C   UNL     1       7.238   4.647  17.587  0.00  0.00    +0.000 C 
ATOM     18  C   UNL     1       6.372   3.928  15.332  0.00  0.00    +0.000 C 
BRANCH  16  19
ATOM     19  C   UNL     1       5.957   6.255  16.194  0.00  0.00    +0.000 C 
ATOM     20  O   UNL     1       5.243   6.684  15.293  0.00  0.00    +0.000 OA
BRANCH  19  21
ATOM     21  O   UNL     1       6.710   7.089  16.961  0.00  0.00    +0.000 OA
ATOM     22  H   UNL     1       6.168   7.792  17.376  0.00  0.00    +0.000 HD
ENDBRANCH  19  21
ENDBRANCH  16  19
ENDBRANCH  15  16
ENDBRANCH  14  15
ENDBRANCH   6  14
TORSDOF 6
ENDMDL
MODEL 5
REMARK VINA RESULT:      -6.9      0.742      1.351
REMARK  Name = 
REMARK  9 active torsions:
REMARK  status: ('A' for Active; 'I' for Inactive)
REMARK    1  A    between atoms: C_1  and  C_2
REMARK    2  A    between atoms: C_4  and  C_5
REMARK    3  A    between atoms: C_13  and  C_14
REMARK    4  A    between atoms: C_14  and  O_15
REMARK    5  A    between atoms: O_15  and  C_16
REMARK    6  A    between atoms: C_16  and  C_17
REMARK    7  A    between atoms: C_16  and  C_18
REMARK    8  A    between atoms: C_16  and  C_19
REMARK    9  A    between atoms: C_19  and  O_21
REMARK                            x       y       z     vdW  Elec       q    Type
REMARK                         _______ _______ _______ _____ _____    ______ ____
ROOT
ATOM      1  C   UNL     1       2.510   3.427  21.102  0.00  0.00    +0.000 C 
ATOM      2  C   UNL     1       2.734   4.685  20.373  0.00  0.00    +0.000 A 
ATOM      3  N   UNL     1       1.847   5.735  20.487  0.00  0.00    +0.000 NA
ATOM      4  C   UNL     1       2.348   6.670  19.693  0.00  0.00    +0.000 A 
ATOM      5  O   UNL     1       3.521   6.315  19.093  0.00  0.00    +0.000 OA
ATOM      6  C   UNL     1       3.774   5.047  19.536  0.00  0.00    +0.000 A 
ENDROOT
BRANCH   4   7
ATOM      7  C   UNL     1       1.856   8.015  19.437  0.00  0.00    +0.000 A 
ATOM      8  C   UNL     1       1.227   8.755  20.449  0.00  0.00    +0.000 A 
ATOM      9  C   UNL     1       0.826  10.074  20.219  0.00  0.00    +0.000 A 
ATOM     10  C   UNL     1       1.025  10.651  18.966  0.00  0.00    +0.000 A 
ATOM     11 CL   UNL     1       0.559  12.283  18.686  0.00  0.00    +0.000 Cl
ATOM     12  C   UNL     1       1.618   9.918  17.940  0.00  0.00    +0.000 A 
ATOM     13  C   UNL     1       2.030   8.605  18.175  0.00  0.00    +0.000 A 
ENDBRANCH   4   7
BRANCH   6  14
ATOM     14  C   UNL     1       5.026   4.396  19.104  0.00  0.00    +0.000 C 
BRANCH  14  15
ATOM     15  O   UNL     1       4.912   4.158  17.694  0.00  0.00    +0.000 OA
BRANCH  15  16
ATOM     16  C   UNL     1       5.862   4.857  16.864  0.00  0.00    +0.000 C 
ATOM     17  C   UNL     1       6.218   3.931  15.684  0.00  0.00    +0.000 C 
ATOM     18  C   UNL     1       5.286   6.181  16.335  0.00  0.00    +0.000 C 
BRANCH  16  19
ATOM     19  C   UNL     1       7.166   5.133  17.640  0.00  0.00    +0.000 C 
ATOM     20  O   UNL     1       7.472   6.219  18.122  0.00  0.00    +0.000 OA
BRANCH  19  21
ATOM     21  O   UNL     1       7.969   4.043  17.776  0.00  0.00    +0.000 OA
ATOM     22  H   UNL     1       7.775   3.361  17.099  0.00  0.00    +0.000 HD
ENDBRANCH  19  21
ENDBRANCH  16  19
ENDBRANCH  15  16
ENDBRANCH  14  15
ENDBRANCH   6  14
TORSDOF 6
ENDMDL
MODEL 6
REMARK VINA RESULT:      -6.9      0.808      1.070
REMARK  Name = 
REMARK  9 active torsions:
REMARK  status: ('A' for Active; 'I' for Inactive)
REMARK    1  A    between atoms: C_1  and  C_2
REMARK    2  A    between atoms: C_4  and  C_5
REMARK    3  A    between atoms: C_13  and  C_14
REMARK    4  A    between atoms: C_14  and  O_15
REMARK    5  A    between atoms: O_15  and  C_16
REMARK    6  A    between atoms: C_16  and  C_17
REMARK    7  A    between atoms: C_16  and  C_18
REMARK    8  A    between atoms: C_16  and  C_19
REMARK    9  A    between atoms: C_19  and  O_21
REMARK                            x       y       z     vdW  Elec       q    Type
REMARK                         _______ _______ _______ _____ _____    ______ ____
ROOT
ATOM      1  C   UNL     1       1.917   2.816  20.438  0.00  0.00    +0.000 C 
ATOM      2  C   UNL     1       2.289   4.210  20.154  0.00  0.00    +0.000 A 
ATOM      3  N   UNL     1       1.452   5.249  20.503  0.00  0.00    +0.000 NA
ATOM      4  C   UNL     1       2.088   6.333  20.084  0.00  0.00    +0.000 A 
ATOM      5  O   UNL     1       3.302   6.076  19.514  0.00  0.00    +0.000 OA
ATOM      6  C   UNL     1       3.435   4.717  19.568  0.00  0.00    +0.000 A 
ENDROOT
BRANCH   4   7
ATOM      7  C   UNL     1       1.700   7.730  20.208  0.00  0.00    +0.000 A 
ATOM      8  C   UNL     1       1.618   8.556  19.077  0.00  0.00    +0.000 A 
ATOM      9  C   UNL     1       1.171   9.875  19.193  0.00  0.00    +0.000 A 
ATOM     10  C   UNL     1       0.832  10.385  20.445  0.00  0.00    +0.000 A 
ATOM     11 CL   UNL     1       0.253  11.998  20.589  0.00  0.00    +0.000 Cl
ATOM     12  C   UNL     1       0.939   9.588  21.582  0.00  0.00    +0.000 A 
ATOM     13  C   UNL     1       1.374   8.266  21.463  0.00  0.00    +0.000 A 
ENDBRANCH   4   7
BRANCH   6  14
ATOM     14  C   UNL     1       4.691   4.121  19.075  0.00  0.00    +0.000 C 
BRANCH  14  15
ATOM     15  O   UNL     1       5.481   5.190  18.535  0.00  0.00    +0.000 OA
BRANCH  15  16
ATOM     16  C   UNL     1       5.679   5.162  17.106  0.00  0.00    +0.000 C 
ATOM     17  C   UNL     1       5.083   3.841  16.581  0.00  0.00    +0.000 C 
ATOM     18  C   UNL     1       4.996   6.355  16.417  0.00  0.00    +0.000 C 
BRANCH  16  19
ATOM     19  C   UNL     1       7.182   5.157  16.763  0.00  0.00    +0.000 C 
ATOM     20  O   UNL     1       7.959   4.253  17.053  0.00  0.00    +0.000 OA
BRANCH  19  21
ATOM     21  O   UNL     1       7.595   6.255  16.074  0.00  0.00    +0.000 OA
ATOM     22  H   UNL     1       7.090   7.056  16.329  0.00  0.00    +0.000 HD
ENDBRANCH  19  21
ENDBRANCH  16  19
ENDBRANCH  15  16
ENDBRANCH  14  15
ENDBRANCH   6  14
TORSDOF 6
ENDMDL
MODEL 7
REMARK VINA RESULT:      -6.9      1.412      2.154
REMARK  Name = 
REMARK  9 active torsions:
REMARK  status: ('A' for Active; 'I' for Inactive)
REMARK    1  A    between atoms: C_1  and  C_2
REMARK    2  A    between atoms: C_4  and  C_5
REMARK    3  A    between atoms: C_13  and  C_14
REMARK    4  A    between atoms: C_14  and  O_15
REMARK    5  A    between atoms: O_15  and  C_16
REMARK    6  A    between atoms: C_16  and  C_17
REMARK    7  A    between atoms: C_16  and  C_18
REMARK    8  A    between atoms: C_16  and  C_19
REMARK    9  A    between atoms: C_19  and  O_21
REMARK                            x       y       z     vdW  Elec       q    Type
REMARK                         _______ _______ _______ _____ _____    ______ ____
ROOT
ATOM      1  C   UNL     1       4.060   2.468  20.277  0.00  0.00    +0.000 C 
ATOM      2  C   UNL     1       3.885   3.828  19.745  0.00  0.00    +0.000 A 
ATOM      3  N   UNL     1       2.907   4.662  20.245  0.00  0.00    +0.000 NA
ATOM      4  C   UNL     1       3.029   5.770  19.529  0.00  0.00    +0.000 A 
ATOM      5  O   UNL     1       4.044   5.730  18.617  0.00  0.00    +0.000 OA
ATOM      6  C   UNL     1       4.599   4.490  18.762  0.00  0.00    +0.000 A 
ENDROOT
BRANCH   4   7
ATOM      7  C   UNL     1       2.284   7.015  19.633  0.00  0.00    +0.000 A 
ATOM      8  C   UNL     1       1.607   7.352  20.815  0.00  0.00    +0.000 A 
ATOM      9  C   UNL     1       0.957   8.584  20.934  0.00  0.00    +0.000 A 
ATOM     10  C   UNL     1       0.956   9.474  19.862  0.00  0.00    +0.000 A 
ATOM     11 CL   UNL     1       0.183  11.003  20.014  0.00  0.00    +0.000 Cl
ATOM     12  C   UNL     1       1.595   9.141  18.670  0.00  0.00    +0.000 A 
ATOM     13  C   UNL     1       2.255   7.916  18.556  0.00  0.00    +0.000 A 
ENDBRANCH   4   7
BRANCH   6  14
ATOM     14  C   UNL     1       5.779   4.155  17.942  0.00  0.00    +0.000 C 
BRANCH  14  15
ATOM     15  O   UNL     1       5.420   4.389  16.573  0.00  0.00    +0.000 OA
BRANCH  15  16
ATOM     16  C   UNL     1       6.164   5.426  15.900  0.00  0.00    +0.000 C 
ATOM     17  C   UNL     1       5.151   6.471  15.394  0.00  0.00    +0.000 C 
ATOM     18  C   UNL     1       7.181   6.094  16.840  0.00  0.00    +0.000 C 
BRANCH  16  19
ATOM     19  C   UNL     1       6.895   4.859  14.666  0.00  0.00    +0.000 C 
ATOM     20  O   UNL     1       6.548   3.856  14.051  0.00  0.00    +0.000 OA
BRANCH  19  21
ATOM     21  O   UNL     1       7.977   5.589  14.282  0.00  0.00    +0.000 OA
ATOM     22  H   UNL     1       8.500   5.130  13.591  0.00  0.00    +0.000 HD
ENDBRANCH  19  21
ENDBRANCH  16  19
ENDBRANCH  15  16
ENDBRANCH  14  15
ENDBRANCH   6  14
TORSDOF 6
ENDMDL
MODEL 8
REMARK VINA RESULT:      -6.8      2.400      3.759
REMARK  Name = 
REMARK  9 active torsions:
REMARK  status: ('A' for Active; 'I' for Inactive)
REMARK    1  A    between atoms: C_1  and  C_2
REMARK    2  A    between atoms: C_4  and  C_5
REMARK    3  A    between atoms: C_13  and  C_14
REMARK    4  A    between atoms: C_14  and  O_15
REMARK    5  A    between atoms: O_15  and  C_16
REMARK    6  A    between atoms: C_16  and  C_17
REMARK    7  A    between atoms: C_16  and  C_18
REMARK    8  A    between atoms: C_16  and  C_19
REMARK    9  A    between atoms: C_19  and  O_21
REMARK                            x       y       z     vdW  Elec       q    Type
REMARK                         _______ _______ _______ _____ _____    ______ ____
ROOT
ATOM      1  C   UNL     1       4.986   6.511  16.338  0.00  0.00    +0.000 C 
ATOM      2  C   UNL     1       4.048   6.794  17.434  0.00  0.00    +0.000 A 
ATOM      3  N   UNL     1       3.233   7.906  17.396  0.00  0.00    +0.000 NA
ATOM      4  C   UNL     1       2.554   7.849  18.533  0.00  0.00    +0.000 A 
ATOM      5  O   UNL     1       2.846   6.756  19.297  0.00  0.00    +0.000 OA
ATOM      6  C   UNL     1       3.795   6.075  18.588  0.00  0.00    +0.000 A 
ENDROOT
BRANCH   4   7
ATOM      7  C   UNL     1       1.518   8.743  19.028  0.00  0.00    +0.000 A 
ATOM      8  C   UNL     1       1.180   8.766  20.389  0.00  0.00    +0.000 A 
ATOM      9  C   UNL     1       0.239   9.681  20.871  0.00  0.00    +0.000 A 
ATOM     10  C   UNL     1      -0.391  10.557  19.990  0.00  0.00    +0.000 A 
ATOM     11 CL   UNL     1      -1.528  11.704  20.582  0.00  0.00    +0.000 Cl
ATOM     12  C   UNL     1      -0.090  10.524  18.629  0.00  0.00    +0.000 A 
ATOM     13  C   UNL     1       0.860   9.619  18.151  0.00  0.00    +0.000 A 
ENDBRANCH   4   7
BRANCH   6  14
ATOM     14  C   UNL     1       4.282   4.793  19.131  0.00  0.00    +0.000 C 
BRANCH  14  15
ATOM     15  O   UNL     1       3.360   4.392  20.156  0.00  0.00    +0.000 OA
BRANCH  15  16
ATOM     16  C   UNL     1       2.909   3.023  20.089  0.00  0.00    +0.000 C 
ATOM     17  C   UNL     1       2.316   2.663  21.465  0.00  0.00    +0.000 C 
ATOM     18  C   UNL     1       1.847   2.830  18.994  0.00  0.00    +0.000 C 
BRANCH  16  19
ATOM     19  C   UNL     1       4.094   2.070  19.836  0.00  0.00    +0.000 C 
ATOM     20  O   UNL     1       5.008   1.870  20.629  0.00  0.00    +0.000 OA
BRANCH  19  21
ATOM     21  O   UNL     1       4.039   1.428  18.637  0.00  0.00    +0.000 OA
ATOM     22  H   UNL     1       3.898   0.464  18.746  0.00  0.00    +0.000 HD
ENDBRANCH  19  21
ENDBRANCH  16  19
ENDBRANCH  15  16
ENDBRANCH  14  15
ENDBRANCH   6  14
TORSDOF 6
ENDMDL
MODEL 9
REMARK VINA RESULT:      -6.8      2.822      3.738
REMARK  Name = 
REMARK  9 active torsions:
REMARK  status: ('A' for Active; 'I' for Inactive)
REMARK    1  A    between atoms: C_1  and  C_2
REMARK    2  A    between atoms: C_4  and  C_5
REMARK    3  A    between atoms: C_13  and  C_14
REMARK    4  A    between atoms: C_14  and  O_15
REMARK    5  A    between atoms: O_15  and  C_16
REMARK    6  A    between atoms: C_16  and  C_17
REMARK    7  A    between atoms: C_16  and  C_18
REMARK    8  A    between atoms: C_16  and  C_19
REMARK    9  A    between atoms: C_19  and  O_21
REMARK                            x       y       z     vdW  Elec       q    Type
REMARK                         _______ _______ _______ _____ _____    ______ ____
ROOT
ATOM      1  C   UNL     1       3.339   6.597  17.981  0.00  0.00    +0.000 C 
ATOM      2  C   UNL     1       2.515   6.938  19.150  0.00  0.00    +0.000 A 
ATOM      3  N   UNL     1       2.027   8.217  19.321  0.00  0.00    +0.000 NA
ATOM      4  C   UNL     1       1.363   8.160  20.466  0.00  0.00    +0.000 A 
ATOM      5  O   UNL     1       1.355   6.920  21.039  0.00  0.00    +0.000 OA
ATOM      6  C   UNL     1       2.084   6.135  20.191  0.00  0.00    +0.000 A 
ENDROOT
BRANCH   4   7
ATOM      7  C   UNL     1       0.606   9.204  21.140  0.00  0.00    +0.000 A 
ATOM      8  C   UNL     1       0.177  10.343  20.444  0.00  0.00    +0.000 A 
ATOM      9  C   UNL     1      -0.616  11.305  21.077  0.00  0.00    +0.000 A 
ATOM     10  C   UNL     1      -0.958  11.148  22.419  0.00  0.00    +0.000 A 
ATOM     11 CL   UNL     1      -1.956  12.313  23.195  0.00  0.00    +0.000 Cl
ATOM     12  C   UNL     1      -0.511  10.038  23.134  0.00  0.00    +0.000 A 
ATOM     13  C   UNL     1       0.269   9.071  22.496  0.00  0.00    +0.000 A 
ENDBRANCH   4   7
BRANCH   6  14
ATOM     14  C   UNL     1       2.212   4.701  20.509  0.00  0.00    +0.000 C 
BRANCH  14  15
ATOM     15  O   UNL     1       3.262   4.178  19.683  0.00  0.00    +0.000 OA
BRANCH  15  16
ATOM     16  C   UNL     1       2.995   2.900  19.069  0.00  0.00    +0.000 C 
ATOM     17  C   UNL     1       1.709   2.338  19.705  0.00  0.00    +0.000 C 
ATOM     18  C   UNL     1       2.813   3.030  17.547  0.00  0.00    +0.000 C 
BRANCH  16  19
ATOM     19  C   UNL     1       4.132   1.902  19.370  0.00  0.00    +0.000 C 
ATOM     20  O   UNL     1       4.918   2.005  20.307  0.00  0.00    +0.000 OA
BRANCH  19  21
ATOM     21  O   UNL     1       4.188   0.852  18.507  0.00  0.00    +0.000 OA
ATOM     22  H   UNL     1       3.302   0.466  18.344  0.00  0.00    +0.000 HD
ENDBRANCH  19  21
ENDBRANCH  16  19
ENDBRANCH  15  16
ENDBRANCH  14  15
ENDBRANCH   6  14
TORSDOF 6
ENDMDL
