MODEL 1
REMARK VINA RESULT:      -6.4      0.000      0.000
REMARK  Name = 
REMARK  7 active torsions:
REMARK  status: ('A' for Active; 'I' for Inactive)
REMARK    1  A    between atoms: C_2  and  N_3
REMARK    2  A    between atoms: C_2  and  N_12
REMARK    3  A    between atoms: N_3  and  C_4
REMARK    4  A    between atoms: C_4  and  C_5
REMARK    5  A    between atoms: C_5  and  C_6
REMARK    6  A    between atoms: C_6  and  N_7
REMARK    7  A    between atoms: N_12  and  C_13
REMARK                            x       y       z     vdW  Elec       q    Type
REMARK                         _______ _______ _______ _____ _____    ______ ____
ROOT
ATOM      1  S   UNL     1       7.450   4.672  17.579  0.00  0.00    +0.000 S 
ATOM      2  C   UNL     1       6.741   6.094  17.066  0.00  0.00    +0.000 C 
ENDROOT
BRANCH   2   3
ATOM      3  N   UNL     1       7.328   7.325  17.085  0.00  0.00    +0.000 N 
ATOM      4  H   UNL     1       6.909   7.979  16.433  0.00  0.00    +0.000 HD
BRANCH   3   5
ATOM      5  C   UNL     1       8.149   7.912  18.134  0.00  0.00    +0.000 C 
BRANCH   5   6
ATOM      6  C   UNL     1       8.276   9.432  18.004  0.00  0.00    +0.000 C 
BRANCH   6   7
ATOM      7  C   UNL     1       9.193  10.032  19.067  0.00  0.00    +0.000 C 
BRANCH   7   8
ATOM      8  N   UNL     1       9.838  11.249  18.635  0.00  0.00    +0.000 N 
ATOM      9  C   UNL     1       9.307  12.209  17.823  0.00  0.00    +0.000 A 
ATOM     10  C   UNL     1      10.322  13.124  17.661  0.00  0.00    +0.000 A 
ATOM     11  N   UNL     1      11.449  12.734  18.339  0.00  0.00    +0.000 NA
ATOM     12  C   UNL     1      11.132  11.597  18.910  0.00  0.00    +0.000 A 
ENDBRANCH   7   8
ENDBRANCH   6   7
ENDBRANCH   5   6
ENDBRANCH   3   5
ENDBRANCH   2   3
BRANCH   2  13
ATOM     13  N   UNL     1       5.450   6.041  16.613  0.00  0.00    +0.000 N 
ATOM     14  H   UNL     1       5.306   6.601  15.777  0.00  0.00    +0.000 HD
BRANCH  13  15
ATOM     15  C   UNL     1       4.314   5.378  17.123  0.00  0.00    +0.000 A 
ATOM     16  C   UNL     1       3.386   5.958  17.992  0.00  0.00    +0.000 A 
ATOM     17  C   UNL     1       2.310   5.228  18.500  0.00  0.00    +0.000 A 
ATOM     18  C   UNL     1       2.154   3.900  18.134  0.00  0.00    +0.000 A 
ATOM     19 CL   UNL     1       0.873   2.977  18.811  0.00  0.00    +0.000 Cl
ATOM     20  C   UNL     1       3.037   3.318  17.232  0.00  0.00    +0.000 A 
ATOM     21  C   UNL     1       4.103   4.060  16.711  0.00  0.00    +0.000 A 
ENDBRANCH  13  15
ENDBRANCH   2  13
TORSDOF 7
ENDMDL
MODEL 2
REMARK VINA RESULT:      -6.4      5.482      6.936
REMARK  Name = 
REMARK  7 active torsions:
REMARK  status: ('A' for Active; 'I' for Inactive)
REMARK    1  A    between atoms: C_2  and  N_3
REMARK    2  A    between atoms: C_2  and  N_12
REMARK    3  A    between atoms: N_3  and  C_4
REMARK    4  A    between atoms: C_4  and  C_5
REMARK    5  A    between atoms: C_5  and  C_6
REMARK    6  A    between atoms: C_6  and  N_7
REMARK    7  A    between atoms: N_12  and  C_13
REMARK                            x       y       z     vdW  Elec       q    Type
REMARK                         _______ _______ _______ _____ _____    ______ ____
ROOT
ATOM      1  S   UNL     1       2.269   3.894  21.464  0.00  0.00    +0.000 S 
ATOM      2  C   UNL     1       2.238   4.760  20.036  0.00  0.00    +0.000 C 
ENDROOT
BRANCH   2   3
ATOM      3  N   UNL     1       1.747   4.309  18.846  0.00  0.00    +0.000 N 
ATOM      4  H   UNL     1       0.736   4.229  18.836  0.00  0.00    +0.000 HD
BRANCH   3   5
ATOM      5  C   UNL     1       2.398   4.317  17.545  0.00  0.00    +0.000 C 
BRANCH   5   6
ATOM      6  C   UNL     1       3.562   3.328  17.460  0.00  0.00    +0.000 C 
BRANCH   6   7
ATOM      7  C   UNL     1       4.879   3.937  17.934  0.00  0.00    +0.000 C 
BRANCH   7   8
ATOM      8  N   UNL     1       5.787   4.233  16.852  0.00  0.00    +0.000 N 
ATOM      9  C   UNL     1       5.518   4.153  15.516  0.00  0.00    +0.000 A 
ATOM     10  C   UNL     1       6.708   4.471  14.903  0.00  0.00    +0.000 A 
ATOM     11  N   UNL     1       7.687   4.725  15.832  0.00  0.00    +0.000 NA
ATOM     12  C   UNL     1       7.106   4.565  16.997  0.00  0.00    +0.000 A 
ENDBRANCH   7   8
ENDBRANCH   6   7
ENDBRANCH   5   6
ENDBRANCH   3   5
ENDBRANCH   2   3
BRANCH   2  13
ATOM     13  N   UNL     1       2.776   6.019  20.036  0.00  0.00    +0.000 N 
ATOM     14  H   UNL     1       3.763   6.021  20.279  0.00  0.00    +0.000 HD
BRANCH  13  15
ATOM     15  C   UNL     1       2.191   7.279  19.790  0.00  0.00    +0.000 A 
ATOM     16  C   UNL     1       1.462   8.007  20.734  0.00  0.00    +0.000 A 
ATOM     17  C   UNL     1       0.865   9.226  20.408  0.00  0.00    +0.000 A 
ATOM     18  C   UNL     1       1.000   9.730  19.123  0.00  0.00    +0.000 A 
ATOM     19 CL   UNL     1       0.209  11.194  18.697  0.00  0.00    +0.000 Cl
ATOM     20  C   UNL     1       1.761   9.045  18.183  0.00  0.00    +0.000 A 
ATOM     21  C   UNL     1       2.374   7.833  18.520  0.00  0.00    +0.000 A 
ENDBRANCH  13  15
ENDBRANCH   2  13
TORSDOF 7
ENDMDL
MODEL 3
REMARK VINA RESULT:      -6.3      5.130      6.815
REMARK  Name = 
REMARK  7 active torsions:
REMARK  status: ('A' for Active; 'I' for Inactive)
REMARK    1  A    between atoms: C_2  and  N_3
REMARK    2  A    between atoms: C_2  and  N_12
REMARK    3  A    between atoms: N_3  and  C_4
REMARK    4  A    between atoms: C_4  and  C_5
REMARK    5  A    between atoms: C_5  and  C_6
REMARK    6  A    between atoms: C_6  and  N_7
REMARK    7  A    between atoms: N_12  and  C_13
REMARK                            x       y       z     vdW  Elec       q    Type
REMARK                         _______ _______ _______ _____ _____    ______ ____
ROOT
ATOM      1  S   UNL     1       2.201   3.279  21.440  0.00  0.00    +0.000 S 
ATOM      2  C   UNL     1       2.204   4.324  20.137  0.00  0.00    +0.000 C 
ENDROOT
BRANCH   2   3
ATOM      3  N   UNL     1       1.801   4.014  18.871  0.00  0.00    +0.000 N 
ATOM      4  H   UNL     1       0.819   4.204  18.706  0.00  0.00    +0.000 HD
BRANCH   3   5
ATOM      5  C   UNL     1       2.625   3.845  17.683  0.00  0.00    +0.000 C 
BRANCH   5   6
ATOM      6  C   UNL     1       4.060   3.427  18.013  0.00  0.00    +0.000 C 
BRANCH   6   7
ATOM      7  C   UNL     1       5.023   4.611  18.022  0.00  0.00    +0.000 C 
BRANCH   7   8
ATOM      8  N   UNL     1       5.819   4.701  16.821  0.00  0.00    +0.000 N 
ATOM      9  C   UNL     1       5.683   3.943  15.693  0.00  0.00    +0.000 A 
ATOM     10  C   UNL     1       6.703   4.362  14.870  0.00  0.00    +0.000 A 
ATOM     11  N   UNL     1       7.455   5.337  15.476  0.00  0.00    +0.000 NA
ATOM     12  C   UNL     1       6.906   5.515  16.653  0.00  0.00    +0.000 A 
ENDBRANCH   7   8
ENDBRANCH   6   7
ENDBRANCH   5   6
ENDBRANCH   3   5
ENDBRANCH   2   3
BRANCH   2  13
ATOM     13  N   UNL     1       2.676   5.594  20.333  0.00  0.00    +0.000 N 
ATOM     14  H   UNL     1       3.484   5.619  20.948  0.00  0.00    +0.000 HD
BRANCH  13  15
ATOM     15  C   UNL     1       2.217   6.840  19.856  0.00  0.00    +0.000 A 
ATOM     16  C   UNL     1       2.482   7.340  18.578  0.00  0.00    +0.000 A 
ATOM     17  C   UNL     1       2.039   8.605  18.187  0.00  0.00    +0.000 A 
ATOM     18  C   UNL     1       1.318   9.382  19.081  0.00  0.00    +0.000 A 
ATOM     19 CL   UNL     1       0.832  10.967  18.630  0.00  0.00    +0.000 Cl
ATOM     20  C   UNL     1       1.002   8.883  20.340  0.00  0.00    +0.000 A 
ATOM     21  C   UNL     1       1.432   7.607  20.720  0.00  0.00    +0.000 A 
ENDBRANCH  13  15
ENDBRANCH   2  13
TORSDOF 7
ENDMDL
MODEL 4
REMARK VINA RESULT:      -6.3      4.963      8.153
REMARK  Name = 
REMARK  7 active torsions:
REMARK  status: ('A' for Active; 'I' for Inactive)
REMARK    1  A    between atoms: C_2  and  N_3
REMARK    2  A    between atoms: C_2  and  N_12
REMARK    3  A    between atoms: N_3  and  C_4
REMARK    4  A    between atoms: C_4  and  C_5
REMARK    5  A    between atoms: C_5  and  C_6
REMARK    6  A    between atoms: C_6  and  N_7
REMARK    7  A    between atoms: N_12  and  C_13
REMARK                            x       y       z     vdW  Elec       q    Type
REMARK                         _______ _______ _______ _____ _____    ______ ____
ROOT
ATOM      1  S   UNL     1       4.439   2.368  19.361  0.00  0.00    +0.000 S 
ATOM      2  C   UNL     1       4.192   3.145  17.904  0.00  0.00    +0.000 C 
ENDROOT
BRANCH   2   3
ATOM      3  N   UNL     1       2.984   3.327  17.296  0.00  0.00    +0.000 N 
ATOM      4  H   UNL     1       2.627   2.485  16.858  0.00  0.00    +0.000 HD
BRANCH   3   5
ATOM      5  C   UNL     1       2.012   4.385  17.527  0.00  0.00    +0.000 C 
BRANCH   5   6
ATOM      6  C   UNL     1       2.562   5.511  18.406  0.00  0.00    +0.000 C 
BRANCH   6   7
ATOM      7  C   UNL     1       1.766   5.683  19.697  0.00  0.00    +0.000 C 
BRANCH   7   8
ATOM      8  N   UNL     1       1.728   4.484  20.501  0.00  0.00    +0.000 N 
ATOM      9  C   UNL     1       0.923   3.398  20.309  0.00  0.00    +0.000 A 
ATOM     10  C   UNL     1       1.217   2.560  21.360  0.00  0.00    +0.000 A 
ATOM     11  N   UNL     1       2.164   3.117  22.183  0.00  0.00    +0.000 NA
ATOM     12  C   UNL     1       2.446   4.279  21.647  0.00  0.00    +0.000 A 
ENDBRANCH   7   8
ENDBRANCH   6   7
ENDBRANCH   5   6
ENDBRANCH   3   5
ENDBRANCH   2   3
BRANCH   2  13
ATOM     13  N   UNL     1       5.288   3.619  17.235  0.00  0.00    +0.000 N 
ATOM     14  H   UNL     1       5.595   2.992  16.496  0.00  0.00    +0.000 HD
BRANCH  13  15
ATOM     15  C   UNL     1       6.056   4.788  17.420  0.00  0.00    +0.000 A 
ATOM     16  C   UNL     1       7.093   4.911  18.348  0.00  0.00    +0.000 A 
ATOM     17  C   UNL     1       7.780   6.115  18.515  0.00  0.00    +0.000 A 
ATOM     18  C   UNL     1       7.429   7.213  17.744  0.00  0.00    +0.000 A 
ATOM     19 CL   UNL     1       8.222   8.716  17.996  0.00  0.00    +0.000 Cl
ATOM     20  C   UNL     1       6.433   7.098  16.781  0.00  0.00    +0.000 A 
ATOM     21  C   UNL     1       5.762   5.883  16.604  0.00  0.00    +0.000 A 
ENDBRANCH  13  15
ENDBRANCH   2  13
TORSDOF 7
ENDMDL
MODEL 5
REMARK VINA RESULT:      -6.3      1.146      1.162
REMARK  Name = 
REMARK  7 active torsions:
REMARK  status: ('A' for Active; 'I' for Inactive)
REMARK    1  A    between atoms: C_2  and  N_3
REMARK    2  A    between atoms: C_2  and  N_12
REMARK    3  A    between atoms: N_3  and  C_4
REMARK    4  A    between atoms: C_4  and  C_5
REMARK    5  A    between atoms: C_5  and  C_6
REMARK    6  A    between atoms: C_6  and  N_7
REMARK    7  A    between atoms: N_12  and  C_13
REMARK                            x       y       z     vdW  Elec       q    Type
REMARK                         _______ _______ _______ _____ _____    ______ ____
ROOT
ATOM      1  S   UNL     1       6.757   4.729  15.324  0.00  0.00    +0.000 S 
ATOM      2  C   UNL     1       6.849   5.662  16.706  0.00  0.00    +0.000 C 
ENDROOT
BRANCH   2   3
ATOM      3  N   UNL     1       7.469   6.873  16.806  0.00  0.00    +0.000 N 
ATOM      4  H   UNL     1       7.422   7.417  15.952  0.00  0.00    +0.000 HD
BRANCH   3   5
ATOM      5  C   UNL     1       7.811   7.610  18.013  0.00  0.00    +0.000 C 
BRANCH   5   6
ATOM      6  C   UNL     1       8.076   9.094  17.745  0.00  0.00    +0.000 C 
BRANCH   6   7
ATOM      7  C   UNL     1       8.989   9.720  18.795  0.00  0.00    +0.000 C 
BRANCH   7   8
ATOM      8  N   UNL     1       9.491  11.017  18.406  0.00  0.00    +0.000 N 
ATOM      9  C   UNL     1       8.781  12.023  17.816  0.00  0.00    +0.000 A 
ATOM     10  C   UNL     1       9.707  13.015  17.591  0.00  0.00    +0.000 A 
ATOM     11  N   UNL     1      10.954  12.628  18.016  0.00  0.00    +0.000 NA
ATOM     12  C   UNL     1      10.795  11.418  18.494  0.00  0.00    +0.000 A 
ENDBRANCH   7   8
ENDBRANCH   6   7
ENDBRANCH   5   6
ENDBRANCH   3   5
ENDBRANCH   2   3
BRANCH   2  13
ATOM     13  N   UNL     1       6.285   5.170  17.853  0.00  0.00    +0.000 N 
ATOM     14  H   UNL     1       6.945   5.127  18.625  0.00  0.00    +0.000 HD
BRANCH  13  15
ATOM     15  C   UNL     1       4.982   4.699  18.119  0.00  0.00    +0.000 A 
ATOM     16  C   UNL     1       3.814   5.297  17.636  0.00  0.00    +0.000 A 
ATOM     17  C   UNL     1       2.552   4.808  17.980  0.00  0.00    +0.000 A 
ATOM     18  C   UNL     1       2.452   3.706  18.815  0.00  0.00    +0.000 A 
ATOM     19 CL   UNL     1       0.902   3.146  19.298  0.00  0.00    +0.000 Cl
ATOM     20  C   UNL     1       3.601   3.068  19.267  0.00  0.00    +0.000 A 
ATOM     21  C   UNL     1       4.863   3.549  18.904  0.00  0.00    +0.000 A 
ENDBRANCH  13  15
ENDBRANCH   2  13
TORSDOF 7
ENDMDL
MODEL 6
REMARK VINA RESULT:      -6.2      4.680      7.913
REMARK  Name = 
REMARK  7 active torsions:
REMARK  status: ('A' for Active; 'I' for Inactive)
REMARK    1  A    between atoms: C_2  and  N_3
REMARK    2  A    between atoms: C_2  and  N_12
REMARK    3  A    between atoms: N_3  and  C_4
REMARK    4  A    between atoms: C_4  and  C_5
REMARK    5  A    between atoms: C_5  and  C_6
REMARK    6  A    between atoms: C_6  and  N_7
REMARK    7  A    between atoms: N_12  and  C_13
REMARK                            x       y       z     vdW  Elec       q    Type
REMARK                         _______ _______ _______ _____ _____    ______ ____
ROOT
ATOM      1  S   UNL     1       7.662   4.770  17.913  0.00  0.00    +0.000 S 
ATOM      2  C   UNL     1       6.937   5.818  16.834  0.00  0.00    +0.000 C 
ENDROOT
BRANCH   2   3
ATOM      3  N   UNL     1       5.955   6.714  17.137  0.00  0.00    +0.000 N 
ATOM      4  H   UNL     1       5.894   7.479  16.474  0.00  0.00    +0.000 HD
BRANCH   3   5
ATOM      5  C   UNL     1       4.794   6.520  17.993  0.00  0.00    +0.000 C 
BRANCH   5   6
ATOM      6  C   UNL     1       3.775   5.547  17.396  0.00  0.00    +0.000 C 
BRANCH   6   7
ATOM      7  C   UNL     1       3.865   4.156  18.020  0.00  0.00    +0.000 C 
BRANCH   7   8
ATOM      8  N   UNL     1       2.619   3.715  18.599  0.00  0.00    +0.000 N 
ATOM      9  C   UNL     1       1.995   4.244  19.692  0.00  0.00    +0.000 A 
ATOM     10  C   UNL     1       0.889   3.448  19.879  0.00  0.00    +0.000 A 
ATOM     11  N   UNL     1       0.838   2.449  18.939  0.00  0.00    +0.000 NA
ATOM     12  C   UNL     1       1.897   2.629  18.187  0.00  0.00    +0.000 A 
ENDBRANCH   7   8
ENDBRANCH   6   7
ENDBRANCH   5   6
ENDBRANCH   3   5
ENDBRANCH   2   3
BRANCH   2  13
ATOM     13  N   UNL     1       7.329   5.762  15.523  0.00  0.00    +0.000 N 
ATOM     14  H   UNL     1       8.051   6.442  15.302  0.00  0.00    +0.000 HD
BRANCH  13  15
ATOM     15  C   UNL     1       6.883   4.956  14.454  0.00  0.00    +0.000 A 
ATOM     16  C   UNL     1       7.529   4.859  13.218  0.00  0.00    +0.000 A 
ATOM     17  C   UNL     1       7.005   4.080  12.184  0.00  0.00    +0.000 A 
ATOM     18  C   UNL     1       5.822   3.385  12.385  0.00  0.00    +0.000 A 
ATOM     19 CL   UNL     1       5.136   2.484  11.094  0.00  0.00    +0.000 Cl
ATOM     20  C   UNL     1       5.190   3.430  13.623  0.00  0.00    +0.000 A 
ATOM     21  C   UNL     1       5.729   4.196  14.662  0.00  0.00    +0.000 A 
ENDBRANCH  13  15
ENDBRANCH   2  13
TORSDOF 7
ENDMDL
MODEL 7
REMARK VINA RESULT:      -6.2      1.045      1.209
REMARK  Name = 
REMARK  7 active torsions:
REMARK  status: ('A' for Active; 'I' for Inactive)
REMARK    1  A    between atoms: C_2  and  N_3
REMARK    2  A    between atoms: C_2  and  N_12
REMARK    3  A    between atoms: N_3  and  C_4
REMARK    4  A    between atoms: C_4  and  C_5
REMARK    5  A    between atoms: C_5  and  C_6
REMARK    6  A    between atoms: C_6  and  N_7
REMARK    7  A    between atoms: N_12  and  C_13
REMARK                            x       y       z     vdW  Elec       q    Type
REMARK                         _______ _______ _______ _____ _____    ______ ____
ROOT
ATOM      1  S   UNL     1       7.701   5.995  18.841  0.00  0.00    +0.000 S 
ATOM      2  C   UNL     1       7.313   6.991  17.558  0.00  0.00    +0.000 C 
ENDROOT
BRANCH   2   3
ATOM      3  N   UNL     1       7.941   8.160  17.243  0.00  0.00    +0.000 N 
ATOM      4  H   UNL     1       8.292   8.182  16.292  0.00  0.00    +0.000 HD
BRANCH   3   5
ATOM      5  C   UNL     1       7.826   9.449  17.907  0.00  0.00    +0.000 C 
BRANCH   5   6
ATOM      6  C   UNL     1       9.183  10.025  18.321  0.00  0.00    +0.000 C 
BRANCH   6   7
ATOM      7  C   UNL     1       9.091  11.493  18.730  0.00  0.00    +0.000 C 
BRANCH   7   8
ATOM      8  N   UNL     1      10.126  12.309  18.141  0.00  0.00    +0.000 N 
ATOM      9  C   UNL     1       9.992  13.584  17.673  0.00  0.00    +0.000 A 
ATOM     10  C   UNL     1      11.230  13.897  17.161  0.00  0.00    +0.000 A 
ATOM     11  N   UNL     1      12.099  12.843  17.296  0.00  0.00    +0.000 NA
ATOM     12  C   UNL     1      11.404  11.897  17.882  0.00  0.00    +0.000 A 
ENDBRANCH   7   8
ENDBRANCH   6   7
ENDBRANCH   5   6
ENDBRANCH   3   5
ENDBRANCH   2   3
BRANCH   2  13
ATOM     13  N   UNL     1       6.256   6.634  16.764  0.00  0.00    +0.000 N 
ATOM     14  H   UNL     1       6.385   6.911  15.795  0.00  0.00    +0.000 HD
BRANCH  13  15
ATOM     15  C   UNL     1       5.040   5.988  17.072  0.00  0.00    +0.000 A 
ATOM     16  C   UNL     1       3.961   6.603  17.714  0.00  0.00    +0.000 A 
ATOM     17  C   UNL     1       2.804   5.891  18.034  0.00  0.00    +0.000 A 
ATOM     18  C   UNL     1       2.719   4.546  17.709  0.00  0.00    +0.000 A 
ATOM     19 CL   UNL     1       1.328   3.648  18.165  0.00  0.00    +0.000 Cl
ATOM     20  C   UNL     1       3.761   3.927  17.027  0.00  0.00    +0.000 A 
ATOM     21  C   UNL     1       4.910   4.650  16.690  0.00  0.00    +0.000 A 
ENDBRANCH  13  15
ENDBRANCH   2  13
TORSDOF 7
ENDMDL
MODEL 8
REMARK VINA RESULT:      -6.2      5.320      6.634
REMARK  Name = 
REMARK  7 active torsions:
REMARK  status: ('A' for Active; 'I' for Inactive)
REMARK    1  A    between atoms: C_2  and  N_3
REMARK    2  A    between atoms: C_2  and  N_12
REMARK    3  A    between atoms: N_3  and  C_4
REMARK    4  A    between atoms: C_4  and  C_5
REMARK    5  A    between atoms: C_5  and  C_6
REMARK    6  A    between atoms: C_6  and  N_7
REMARK    7  A    between atoms: N_12  and  C_13
REMARK                            x       y       z     vdW  Elec       q    Type
REMARK                         _______ _______ _______ _____ _____    ______ ____
ROOT
ATOM      1  S   UNL     1       1.167   3.041  20.832  0.00  0.00    +0.000 S 
ATOM      2  C   UNL     1       2.377   3.999  20.194  0.00  0.00    +0.000 C 
ENDROOT
BRANCH   2   3
ATOM      3  N   UNL     1       3.246   3.630  19.210  0.00  0.00    +0.000 N 
ATOM      4  H   UNL     1       2.893   3.808  18.277  0.00  0.00    +0.000 HD
BRANCH   3   5
ATOM      5  C   UNL     1       4.680   3.408  19.315  0.00  0.00    +0.000 C 
BRANCH   5   6
ATOM      6  C   UNL     1       5.487   4.292  18.362  0.00  0.00    +0.000 C 
BRANCH   6   7
ATOM      7  C   UNL     1       4.809   4.453  17.003  0.00  0.00    +0.000 C 
BRANCH   7   8
ATOM      8  N   UNL     1       5.746   4.675  15.928  0.00  0.00    +0.000 N 
ATOM      9  C   UNL     1       5.667   4.174  14.660  0.00  0.00    +0.000 A 
ATOM     10  C   UNL     1       6.813   4.615  14.041  0.00  0.00    +0.000 A 
ATOM     11  N   UNL     1       7.584   5.354  14.903  0.00  0.00    +0.000 NA
ATOM     12  C   UNL     1       6.921   5.366  16.035  0.00  0.00    +0.000 A 
ENDBRANCH   7   8
ENDBRANCH   6   7
ENDBRANCH   5   6
ENDBRANCH   3   5
ENDBRANCH   2   3
BRANCH   2  13
ATOM     13  N   UNL     1       2.544   5.255  20.715  0.00  0.00    +0.000 N 
ATOM     14  H   UNL     1       2.964   5.240  21.640  0.00  0.00    +0.000 HD
BRANCH  13  15
ATOM     15  C   UNL     1       2.209   6.525  20.202  0.00  0.00    +0.000 A 
ATOM     16  C   UNL     1       1.541   7.517  20.926  0.00  0.00    +0.000 A 
ATOM     17  C   UNL     1       1.194   8.735  20.340  0.00  0.00    +0.000 A 
ATOM     18  C   UNL     1       1.521   8.972  19.013  0.00  0.00    +0.000 A 
ATOM     19 CL   UNL     1       1.034  10.440  18.267  0.00  0.00    +0.000 Cl
ATOM     20  C   UNL     1       2.228   8.018  18.290  0.00  0.00    +0.000 A 
ATOM     21  C   UNL     1       2.590   6.806  18.887  0.00  0.00    +0.000 A 
ENDBRANCH  13  15
ENDBRANCH   2  13
TORSDOF 7
ENDMDL
MODEL 9
REMARK VINA RESULT:      -6.1      5.065      6.914
REMARK  Name = 
REMARK  7 active torsions:
REMARK  status: ('A' for Active; 'I' for Inactive)
REMARK    1  A    between atoms: C_2  and  N_3
REMARK    2  A    between atoms: C_2  and  N_12
REMARK    3  A    between atoms: N_3  and  C_4
REMARK    4  A    between atoms: C_4  and  C_5
REMARK    5  A    between atoms: C_5  and  C_6
REMARK    6  A    between atoms: C_6  and  N_7
REMARK    7  A    between atoms: N_12  and  C_13
REMARK                            x       y       z     vdW  Elec       q    Type
REMARK                         _______ _______ _______ _____ _____    ______ ____
ROOT
ATOM      1  S   UNL     1       3.375   1.672  18.421  0.00  0.00    +0.000 S 
ATOM      2  C   UNL     1       3.246   3.245  17.875  0.00  0.00    +0.000 C 
ENDROOT
BRANCH   2   3
ATOM      3  N   UNL     1       2.223   4.101  18.158  0.00  0.00    +0.000 N 
ATOM      4  H   UNL     1       1.489   4.093  17.458  0.00  0.00    +0.000 HD
BRANCH   3   5
ATOM      5  C   UNL     1       1.869   4.684  19.444  0.00  0.00    +0.000 C 
BRANCH   5   6
ATOM      6  C   UNL     1       2.721   5.905  19.795  0.00  0.00    +0.000 C 
BRANCH   6   7
ATOM      7  C   UNL     1       2.569   7.033  18.778  0.00  0.00    +0.000 C 
BRANCH   7   8
ATOM      8  N   UNL     1       1.863   8.177  19.305  0.00  0.00    +0.000 N 
ATOM      9  C   UNL     1       1.385   8.326  20.575  0.00  0.00    +0.000 A 
ATOM     10  C   UNL     1       0.746   9.545  20.563  0.00  0.00    +0.000 A 
ATOM     11  N   UNL     1       0.815  10.124  19.321  0.00  0.00    +0.000 NA
ATOM     12  C   UNL     1       1.486   9.274  18.581  0.00  0.00    +0.000 A 
ENDBRANCH   7   8
ENDBRANCH   6   7
ENDBRANCH   5   6
ENDBRANCH   3   5
ENDBRANCH   2   3
BRANCH   2  13
ATOM     13  N   UNL     1       4.227   3.720  17.046  0.00  0.00    +0.000 N 
ATOM     14  H   UNL     1       4.246   3.242  16.150  0.00  0.00    +0.000 HD
BRANCH  13  15
ATOM     15  C   UNL     1       5.207   4.716  17.243  0.00  0.00    +0.000 A 
ATOM     16  C   UNL     1       6.268   4.611  18.146  0.00  0.00    +0.000 A 
ATOM     17  C   UNL     1       7.174   5.657  18.328  0.00  0.00    +0.000 A 
ATOM     18  C   UNL     1       7.023   6.826  17.596  0.00  0.00    +0.000 A 
ATOM     19 CL   UNL     1       8.092   8.142  17.868  0.00  0.00    +0.000 Cl
ATOM     20  C   UNL     1       6.003   6.932  16.658  0.00  0.00    +0.000 A 
ATOM     21  C   UNL     1       5.109   5.873  16.465  0.00  0.00    +0.000 A 
ENDBRANCH  13  15
ENDBRANCH   2  13
TORSDOF 7
ENDMDL
