MODEL 1
REMARK VINA RESULT:      -7.7      0.000      0.000
REMARK  Name = 
REMARK  8 active torsions:
REMARK  status: ('A' for Active; 'I' for Inactive)
REMARK    1  A    between atoms: C_1  and  C_2
REMARK    2  A    between atoms: C_2  and  C_3
REMARK    3  A    between atoms: C_2  and  N_4
REMARK    4  A    between atoms: C_6  and  C_7
REMARK    5  A    between atoms: N_9  and  C_10
REMARK    6  A    between atoms: C_10  and  C_11
REMARK    7  A    between atoms: C_11  and  C_12
REMARK    8  A    between atoms: C_12  and  N_13
REMARK                            x       y       z     vdW  Elec       q    Type
REMARK                         _______ _______ _______ _____ _____    ______ ____
ROOT
ATOM      1  C   UNL     1       2.631   7.394  18.538  0.00  0.00    +0.000 C 
ATOM      2  O   UNL     1       2.372   7.539  19.727  0.00  0.00    +0.000 OA
ATOM      3  N   UNL     1       2.383   8.385  17.614  0.00  0.00    +0.000 N 
ATOM      4  H   UNL     1       2.688   8.220  16.660  0.00  0.00    +0.000 HD
ENDROOT
BRANCH   1   7
ATOM      5  N   UNL     1       4.568   4.794  17.040  0.00  0.00    +0.000 N 
ATOM      6  N   UNL     1       4.405   6.113  17.325  0.00  0.00    +0.000 NA
ATOM      7  C   UNL     1       3.237   6.157  18.005  0.00  0.00    +0.000 A 
ATOM      8  C   UNL     1       2.674   4.858  18.153  0.00  0.00    +0.000 A 
ATOM      9  C   UNL     1       1.510   4.343  18.759  0.00  0.00    +0.000 A 
ATOM     10  C   UNL     1       1.269   2.969  18.721  0.00  0.00    +0.000 A 
ATOM     11  C   UNL     1       2.169   2.113  18.088  0.00  0.00    +0.000 A 
ATOM     12  C   UNL     1       3.328   2.606  17.478  0.00  0.00    +0.000 A 
ATOM     13  C   UNL     1       3.559   3.990  17.522  0.00  0.00    +0.000 A 
BRANCH   5  15
ATOM     14  C   UNL     1       5.636   4.617  14.802  0.00  0.00    +0.000 C 
ATOM     15  C   UNL     1       5.748   4.343  16.302  0.00  0.00    +0.000 C 
ATOM     16  C   UNL     1       7.035   4.929  16.878  0.00  0.00    +0.000 C 
ENDBRANCH   5  15
ENDBRANCH   1   7
BRANCH   3  17
ATOM     17  C   UNL     1       1.853   9.668  18.022  0.00  0.00    +0.000 C 
BRANCH  17  18
ATOM     18  C   UNL     1       0.326   9.673  18.115  0.00  0.00    +0.000 C 
BRANCH  18  19
ATOM     19  C   UNL     1      -0.234  10.894  18.858  0.00  0.00    +0.000 C 
BRANCH  19  20
ATOM     20  N   UNL     1      -0.089  10.806  20.321  0.00  0.00    +0.000 NA
ATOM     21  C   UNL     1      -0.971  11.754  21.020  0.00  0.00    +0.000 C 
ATOM     22  C   UNL     1      -0.719  11.723  22.526  0.00  0.00    +0.000 C 
ATOM     23  C   UNL     1      -0.895  10.320  23.089  0.00  0.00    +0.000 C 
ATOM     24  C   UNL     1      -0.069   9.316  22.292  0.00  0.00    +0.000 C 
ATOM     25  C   UNL     1      -0.336   9.433  20.790  0.00  0.00    +0.000 C 
ENDBRANCH  19  20
ENDBRANCH  18  19
ENDBRANCH  17  18
ENDBRANCH   3  17
TORSDOF 6
ENDMDL
MODEL 2
REMARK VINA RESULT:      -7.5      1.051      2.859
REMARK  Name = 
REMARK  8 active torsions:
REMARK  status: ('A' for Active; 'I' for Inactive)
REMARK    1  A    between atoms: C_1  and  C_2
REMARK    2  A    between atoms: C_2  and  C_3
REMARK    3  A    between atoms: C_2  and  N_4
REMARK    4  A    between atoms: C_6  and  C_7
REMARK    5  A    between atoms: N_9  and  C_10
REMARK    6  A    between atoms: C_10  and  C_11
REMARK    7  A    between atoms: C_11  and  C_12
REMARK    8  A    between atoms: C_12  and  N_13
REMARK                            x       y       z     vdW  Elec       q    Type
REMARK                         _______ _______ _______ _____ _____    ______ ____
ROOT
ATOM      1  C   UNL     1       2.346   7.388  18.733  0.00  0.00    +0.000 C 
ATOM      2  O   UNL     1       2.295   7.669  19.925  0.00  0.00    +0.000 OA
ATOM      3  N   UNL     1       2.044   8.310  17.755  0.00  0.00    +0.000 N 
ATOM      4  H   UNL     1       2.177   8.026  16.790  0.00  0.00    +0.000 HD
ENDROOT
BRANCH   1   7
ATOM      5  N   UNL     1       2.784   3.944  17.895  0.00  0.00    +0.000 N 
ATOM      6  N   UNL     1       2.076   4.909  18.540  0.00  0.00    +0.000 NA
ATOM      7  C   UNL     1       2.743   6.049  18.252  0.00  0.00    +0.000 A 
ATOM      8  C   UNL     1       3.866   5.796  17.415  0.00  0.00    +0.000 A 
ATOM      9  C   UNL     1       4.868   6.596  16.829  0.00  0.00    +0.000 A 
ATOM     10  C   UNL     1       5.842   5.996  16.030  0.00  0.00    +0.000 A 
ATOM     11  C   UNL     1       5.827   4.618  15.815  0.00  0.00    +0.000 A 
ATOM     12  C   UNL     1       4.843   3.808  16.391  0.00  0.00    +0.000 A 
ATOM     13  C   UNL     1       3.869   4.422  17.194  0.00  0.00    +0.000 A 
BRANCH   5  15
ATOM     14  C   UNL     1       3.412   1.649  18.616  0.00  0.00    +0.000 C 
ATOM     15  C   UNL     1       2.357   2.546  17.968  0.00  0.00    +0.000 C 
ATOM     16  C   UNL     1       1.005   2.403  18.663  0.00  0.00    +0.000 C 
ENDBRANCH   5  15
ENDBRANCH   1   7
BRANCH   3  17
ATOM     17  C   UNL     1       1.706   9.675  18.097  0.00  0.00    +0.000 C 
BRANCH  17  18
ATOM     18  C   UNL     1       0.198   9.894  18.227  0.00  0.00    +0.000 C 
BRANCH  18  19
ATOM     19  C   UNL     1      -0.167  11.176  18.988  0.00  0.00    +0.000 C 
BRANCH  19  20
ATOM     20  N   UNL     1      -0.092  11.030  20.452  0.00  0.00    +0.000 NA
ATOM     21  C   UNL     1      -1.019  11.937  21.145  0.00  0.00    +0.000 C 
ATOM     22  C   UNL     1      -0.839  11.848  22.659  0.00  0.00    +0.000 C 
ATOM     23  C   UNL     1      -1.023  10.421  23.155  0.00  0.00    +0.000 C 
ATOM     24  C   UNL     1      -0.146   9.460  22.360  0.00  0.00    +0.000 C 
ATOM     25  C   UNL     1      -0.342   9.635  20.852  0.00  0.00    +0.000 C 
ENDBRANCH  19  20
ENDBRANCH  18  19
ENDBRANCH  17  18
ENDBRANCH   3  17
TORSDOF 6
ENDMDL
MODEL 3
REMARK VINA RESULT:      -7.4      1.768      2.440
REMARK  Name = 
REMARK  8 active torsions:
REMARK  status: ('A' for Active; 'I' for Inactive)
REMARK    1  A    between atoms: C_1  and  C_2
REMARK    2  A    between atoms: C_2  and  C_3
REMARK    3  A    between atoms: C_2  and  N_4
REMARK    4  A    between atoms: C_6  and  C_7
REMARK    5  A    between atoms: N_9  and  C_10
REMARK    6  A    between atoms: C_10  and  C_11
REMARK    7  A    between atoms: C_11  and  C_12
REMARK    8  A    between atoms: C_12  and  N_13
REMARK                            x       y       z     vdW  Elec       q    Type
REMARK                         _______ _______ _______ _____ _____    ______ ____
ROOT
ATOM      1  C   UNL     1       2.752   7.339  18.576  0.00  0.00    +0.000 C 
ATOM      2  O   UNL     1       2.314   7.443  19.716  0.00  0.00    +0.000 OA
ATOM      3  N   UNL     1       2.603   8.343  17.645  0.00  0.00    +0.000 N 
ATOM      4  H   UNL     1       3.053   8.215  16.745  0.00  0.00    +0.000 HD
ENDROOT
BRANCH   1   7
ATOM      5  N   UNL     1       4.998   4.851  17.344  0.00  0.00    +0.000 N 
ATOM      6  N   UNL     1       4.744   6.154  17.637  0.00  0.00    +0.000 NA
ATOM      7  C   UNL     1       3.479   6.140  18.115  0.00  0.00    +0.000 A 
ATOM      8  C   UNL     1       2.945   4.820  18.129  0.00  0.00    +0.000 A 
ATOM      9  C   UNL     1       1.716   4.251  18.518  0.00  0.00    +0.000 A 
ATOM     10  C   UNL     1       1.533   2.872  18.401  0.00  0.00    +0.000 A 
ATOM     11  C   UNL     1       2.554   2.065  17.901  0.00  0.00    +0.000 A 
ATOM     12  C   UNL     1       3.780   2.613  17.506  0.00  0.00    +0.000 A 
ATOM     13  C   UNL     1       3.952   4.001  17.628  0.00  0.00    +0.000 A 
BRANCH   5  15
ATOM     14  C   UNL     1       6.567   5.088  15.431  0.00  0.00    +0.000 C 
ATOM     15  C   UNL     1       6.299   4.460  16.798  0.00  0.00    +0.000 C 
ATOM     16  C   UNL     1       7.434   4.754  17.776  0.00  0.00    +0.000 C 
ENDBRANCH   5  15
ENDBRANCH   1   7
BRANCH   3  17
ATOM     17  C   UNL     1       1.967   9.595  17.995  0.00  0.00    +0.000 C 
BRANCH  17  18
ATOM     18  C   UNL     1       0.442   9.488  18.042  0.00  0.00    +0.000 C 
BRANCH  18  19
ATOM     19  C   UNL     1      -0.238  10.742  18.611  0.00  0.00    +0.000 C 
BRANCH  19  20
ATOM     20  N   UNL     1      -1.706  10.715  18.496  0.00  0.00    +0.000 NA
ATOM     21  C   UNL     1      -2.317  11.980  18.932  0.00  0.00    +0.000 C 
ATOM     22  C   UNL     1      -3.841  11.885  18.911  0.00  0.00    +0.000 C 
ATOM     23  C   UNL     1      -4.353  11.496  17.532  0.00  0.00    +0.000 C 
ATOM     24  C   UNL     1      -3.638  10.248  17.027  0.00  0.00    +0.000 C 
ATOM     25  C   UNL     1      -2.117  10.394  17.119  0.00  0.00    +0.000 C 
ENDBRANCH  19  20
ENDBRANCH  18  19
ENDBRANCH  17  18
ENDBRANCH   3  17
TORSDOF 6
ENDMDL
MODEL 4
REMARK VINA RESULT:      -7.3      2.074      2.922
REMARK  Name = 
REMARK  8 active torsions:
REMARK  status: ('A' for Active; 'I' for Inactive)
REMARK    1  A    between atoms: C_1  and  C_2
REMARK    2  A    between atoms: C_2  and  C_3
REMARK    3  A    between atoms: C_2  and  N_4
REMARK    4  A    between atoms: C_6  and  C_7
REMARK    5  A    between atoms: N_9  and  C_10
REMARK    6  A    between atoms: C_10  and  C_11
REMARK    7  A    between atoms: C_11  and  C_12
REMARK    8  A    between atoms: C_12  and  N_13
REMARK                            x       y       z     vdW  Elec       q    Type
REMARK                         _______ _______ _______ _____ _____    ______ ____
ROOT
ATOM      1  C   UNL     1       2.366   7.655  18.708  0.00  0.00    +0.000 C 
ATOM      2  O   UNL     1       1.985   7.581  19.871  0.00  0.00    +0.000 OA
ATOM      3  N   UNL     1       2.057   8.734  17.909  0.00  0.00    +0.000 N 
ATOM      4  H   UNL     1       2.465   8.758  16.981  0.00  0.00    +0.000 HD
ENDROOT
BRANCH   1   7
ATOM      5  N   UNL     1       4.768   5.600  17.047  0.00  0.00    +0.000 N 
ATOM      6  N   UNL     1       4.376   6.832  17.468  0.00  0.00    +0.000 NA
ATOM      7  C   UNL     1       3.190   6.605  18.077  0.00  0.00    +0.000 A 
ATOM      8  C   UNL     1       2.845   5.224  18.044  0.00  0.00    +0.000 A 
ATOM      9  C   UNL     1       1.759   4.460  18.517  0.00  0.00    +0.000 A 
ATOM     10  C   UNL     1       1.752   3.080  18.311  0.00  0.00    +0.000 A 
ATOM     11  C   UNL     1       2.808   2.461  17.641  0.00  0.00    +0.000 A 
ATOM     12  C   UNL     1       3.893   3.204  17.161  0.00  0.00    +0.000 A 
ATOM     13  C   UNL     1       3.888   4.592  17.374  0.00  0.00    +0.000 A 
BRANCH   5  15
ATOM     14  C   UNL     1       7.065   4.657  17.153  0.00  0.00    +0.000 C 
ATOM     15  C   UNL     1       6.036   5.436  16.335  0.00  0.00    +0.000 C 
ATOM     16  C   UNL     1       5.835   4.811  14.956  0.00  0.00    +0.000 C 
ENDBRANCH   5  15
ENDBRANCH   1   7
BRANCH   3  17
ATOM     17  C   UNL     1       1.312   9.859  18.432  0.00  0.00    +0.000 C 
BRANCH  17  18
ATOM     18  C   UNL     1      -0.110   9.935  17.871  0.00  0.00    +0.000 C 
BRANCH  18  19
ATOM     19  C   UNL     1      -1.056  10.787  18.730  0.00  0.00    +0.000 C 
BRANCH  19  20
ATOM     20  N   UNL     1      -2.447  10.788  18.243  0.00  0.00    +0.000 NA
ATOM     21  C   UNL     1      -3.248  11.851  18.867  0.00  0.00    +0.000 C 
ATOM     22  C   UNL     1      -4.710  11.757  18.433  0.00  0.00    +0.000 C 
ATOM     23  C   UNL     1      -4.843  11.812  16.919  0.00  0.00    +0.000 C 
ATOM     24  C   UNL     1      -3.925  10.786  16.263  0.00  0.00    +0.000 C 
ATOM     25  C   UNL     1      -2.488  10.906  16.776  0.00  0.00    +0.000 C 
ENDBRANCH  19  20
ENDBRANCH  18  19
ENDBRANCH  17  18
ENDBRANCH   3  17
TORSDOF 6
ENDMDL
MODEL 5
REMARK VINA RESULT:      -7.3      1.809      2.847
REMARK  Name = 
REMARK  8 active torsions:
REMARK  status: ('A' for Active; 'I' for Inactive)
REMARK    1  A    between atoms: C_1  and  C_2
REMARK    2  A    between atoms: C_2  and  C_3
REMARK    3  A    between atoms: C_2  and  N_4
REMARK    4  A    between atoms: C_6  and  C_7
REMARK    5  A    between atoms: N_9  and  C_10
REMARK    6  A    between atoms: C_10  and  C_11
REMARK    7  A    between atoms: C_11  and  C_12
REMARK    8  A    between atoms: C_12  and  N_13
REMARK                            x       y       z     vdW  Elec       q    Type
REMARK                         _______ _______ _______ _____ _____    ______ ____
ROOT
ATOM      1  C   UNL     1       2.542   7.547  18.507  0.00  0.00    +0.000 C 
ATOM      2  O   UNL     1       2.255   7.651  19.694  0.00  0.00    +0.000 OA
ATOM      3  N   UNL     1       2.286   8.558  17.606  0.00  0.00    +0.000 N 
ATOM      4  H   UNL     1       2.615   8.428  16.655  0.00  0.00    +0.000 HD
ENDROOT
BRANCH   1   7
ATOM      5  N   UNL     1       4.568   5.045  16.962  0.00  0.00    +0.000 N 
ATOM      6  N   UNL     1       4.359   6.352  17.270  0.00  0.00    +0.000 NA
ATOM      7  C   UNL     1       3.191   6.342  17.952  0.00  0.00    +0.000 A 
ATOM      8  C   UNL     1       2.675   5.022  18.078  0.00  0.00    +0.000 A 
ATOM      9  C   UNL     1       1.531   4.455  18.676  0.00  0.00    +0.000 A 
ATOM     10  C   UNL     1       1.340   3.074  18.616  0.00  0.00    +0.000 A 
ATOM     11  C   UNL     1       2.269   2.261  17.967  0.00  0.00    +0.000 A 
ATOM     12  C   UNL     1       3.409   2.806  17.364  0.00  0.00    +0.000 A 
ATOM     13  C   UNL     1       3.590   4.197  17.431  0.00  0.00    +0.000 A 
BRANCH   5  15
ATOM     14  C   UNL     1       5.492   4.510  14.717  0.00  0.00    +0.000 C 
ATOM     15  C   UNL     1       5.763   4.649  16.215  0.00  0.00    +0.000 C 
ATOM     16  C   UNL     1       6.935   5.590  16.481  0.00  0.00    +0.000 C 
ENDBRANCH   5  15
ENDBRANCH   1   7
BRANCH   3  17
ATOM     17  C   UNL     1       1.715   9.815  18.039  0.00  0.00    +0.000 C 
BRANCH  17  18
ATOM     18  C   UNL     1       0.257   9.678  18.481  0.00  0.00    +0.000 C 
BRANCH  18  19
ATOM     19  C   UNL     1      -0.465  11.026  18.620  0.00  0.00    +0.000 C 
BRANCH  19  20
ATOM     20  N   UNL     1      -1.638  11.155  17.738  0.00  0.00    +0.000 NA
ATOM     21  C   UNL     1      -1.875   9.934  16.954  0.00  0.00    +0.000 C 
ATOM     22  C   UNL     1      -3.024  10.135  15.967  0.00  0.00    +0.000 C 
ATOM     23  C   UNL     1      -4.298  10.564  16.679  0.00  0.00    +0.000 C 
ATOM     24  C   UNL     1      -4.028  11.762  17.583  0.00  0.00    +0.000 C 
ATOM     25  C   UNL     1      -2.839  11.510  18.513  0.00  0.00    +0.000 C 
ENDBRANCH  19  20
ENDBRANCH  18  19
ENDBRANCH  17  18
ENDBRANCH   3  17
TORSDOF 6
ENDMDL
MODEL 6
REMARK VINA RESULT:      -7.3      2.359      4.287
REMARK  Name = 
REMARK  8 active torsions:
REMARK  status: ('A' for Active; 'I' for Inactive)
REMARK    1  A    between atoms: C_1  and  C_2
REMARK    2  A    between atoms: C_2  and  C_3
REMARK    3  A    between atoms: C_2  and  N_4
REMARK    4  A    between atoms: C_6  and  C_7
REMARK    5  A    between atoms: N_9  and  C_10
REMARK    6  A    between atoms: C_10  and  C_11
REMARK    7  A    between atoms: C_11  and  C_12
REMARK    8  A    between atoms: C_12  and  N_13
REMARK                            x       y       z     vdW  Elec       q    Type
REMARK                         _______ _______ _______ _____ _____    ______ ____
ROOT
ATOM      1  C   UNL     1       2.162   8.168  18.420  0.00  0.00    +0.000 C 
ATOM      2  O   UNL     1       2.294   8.860  17.417  0.00  0.00    +0.000 OA
ATOM      3  N   UNL     1       1.583   8.658  19.570  0.00  0.00    +0.000 N 
ATOM      4  H   UNL     1       1.444   8.007  20.335  0.00  0.00    +0.000 HD
ENDROOT
BRANCH   1   7
ATOM      5  N   UNL     1       2.747   4.690  18.981  0.00  0.00    +0.000 N 
ATOM      6  N   UNL     1       2.035   5.814  19.257  0.00  0.00    +0.000 NA
ATOM      7  C   UNL     1       2.601   6.760  18.473  0.00  0.00    +0.000 A 
ATOM      8  C   UNL     1       3.665   6.220  17.697  0.00  0.00    +0.000 A 
ATOM      9  C   UNL     1       4.563   6.741  16.744  0.00  0.00    +0.000 A 
ATOM     10  C   UNL     1       5.504   5.895  16.155  0.00  0.00    +0.000 A 
ATOM     11  C   UNL     1       5.559   4.547  16.508  0.00  0.00    +0.000 A 
ATOM     12  C   UNL     1       4.679   4.012  17.455  0.00  0.00    +0.000 A 
ATOM     13  C   UNL     1       3.737   4.873  18.041  0.00  0.00    +0.000 A 
BRANCH   5  15
ATOM     14  C   UNL     1       2.232   3.598  21.154  0.00  0.00    +0.000 C 
ATOM     15  C   UNL     1       2.416   3.429  19.646  0.00  0.00    +0.000 C 
ATOM     16  C   UNL     1       1.202   2.755  19.011  0.00  0.00    +0.000 C 
ENDBRANCH   5  15
ENDBRANCH   1   7
BRANCH   3  17
ATOM     17  C   UNL     1       1.051  10.003  19.622  0.00  0.00    +0.000 C 
BRANCH  17  18
ATOM     18  C   UNL     1      -0.469  10.042  19.454  0.00  0.00    +0.000 C 
BRANCH  18  19
ATOM     19  C   UNL     1      -1.003  11.429  19.067  0.00  0.00    +0.000 C 
BRANCH  19  20
ATOM     20  N   UNL     1      -1.910  11.405  17.907  0.00  0.00    +0.000 NA
ATOM     21  C   UNL     1      -1.735  10.190  17.096  0.00  0.00    +0.000 C 
ATOM     22  C   UNL     1      -2.603  10.244  15.841  0.00  0.00    +0.000 C 
ATOM     23  C   UNL     1      -4.071  10.443  16.190  0.00  0.00    +0.000 C 
ATOM     24  C   UNL     1      -4.242  11.635  17.125  0.00  0.00    +0.000 C 
ATOM     25  C   UNL     1      -3.312  11.539  18.336  0.00  0.00    +0.000 C 
ENDBRANCH  19  20
ENDBRANCH  18  19
ENDBRANCH  17  18
ENDBRANCH   3  17
TORSDOF 6
ENDMDL
MODEL 7
REMARK VINA RESULT:      -7.2      1.800      3.698
REMARK  Name = 
REMARK  8 active torsions:
REMARK  status: ('A' for Active; 'I' for Inactive)
REMARK    1  A    between atoms: C_1  and  C_2
REMARK    2  A    between atoms: C_2  and  C_3
REMARK    3  A    between atoms: C_2  and  N_4
REMARK    4  A    between atoms: C_6  and  C_7
REMARK    5  A    between atoms: N_9  and  C_10
REMARK    6  A    between atoms: C_10  and  C_11
REMARK    7  A    between atoms: C_11  and  C_12
REMARK    8  A    between atoms: C_12  and  N_13
REMARK                            x       y       z     vdW  Elec       q    Type
REMARK                         _______ _______ _______ _____ _____    ______ ____
ROOT
ATOM      1  C   UNL     1       2.316   7.391  19.191  0.00  0.00    +0.000 C 
ATOM      2  O   UNL     1       2.342   8.437  18.551  0.00  0.00    +0.000 OA
ATOM      3  N   UNL     1       1.951   7.361  20.519  0.00  0.00    +0.000 N 
ATOM      4  H   UNL     1       1.885   6.451  20.964  0.00  0.00    +0.000 HD
ENDROOT
BRANCH   1   7
ATOM      5  N   UNL     1       2.660   4.011  18.093  0.00  0.00    +0.000 N 
ATOM      6  N   UNL     1       2.013   4.931  18.856  0.00  0.00    +0.000 NA
ATOM      7  C   UNL     1       2.663   6.088  18.591  0.00  0.00    +0.000 A 
ATOM      8  C   UNL     1       3.713   5.889  17.651  0.00  0.00    +0.000 A 
ATOM      9  C   UNL     1       4.670   6.725  17.041  0.00  0.00    +0.000 A 
ATOM     10  C   UNL     1       5.572   6.178  16.127  0.00  0.00    +0.000 A 
ATOM     11  C   UNL     1       5.530   4.818  15.822  0.00  0.00    +0.000 A 
ATOM     12  C   UNL     1       4.589   3.972  16.421  0.00  0.00    +0.000 A 
ATOM     13  C   UNL     1       3.688   4.533  17.339  0.00  0.00    +0.000 A 
BRANCH   5  15
ATOM     14  C   UNL     1       3.290   1.684  18.698  0.00  0.00    +0.000 C 
ATOM     15  C   UNL     1       2.229   2.612  18.107  0.00  0.00    +0.000 C 
ATOM     16  C   UNL     1       0.886   2.440  18.811  0.00  0.00    +0.000 C 
ENDBRANCH   5  15
ENDBRANCH   1   7
BRANCH   3  17
ATOM     17  C   UNL     1       1.525   8.563  21.203  0.00  0.00    +0.000 C 
BRANCH  17  18
ATOM     18  C   UNL     1       0.007   8.751  21.173  0.00  0.00    +0.000 C 
BRANCH  18  19
ATOM     19  C   UNL     1      -0.429  10.074  20.526  0.00  0.00    +0.000 C 
BRANCH  19  20
ATOM     20  N   UNL     1       0.697  10.967  20.205  0.00  0.00    +0.000 NA
ATOM     21  C   UNL     1       0.741  11.305  18.774  0.00  0.00    +0.000 C 
ATOM     22  C   UNL     1       1.980  12.136  18.449  0.00  0.00    +0.000 C 
ATOM     23  C   UNL     1       2.037  13.400  19.294  0.00  0.00    +0.000 C 
ATOM     24  C   UNL     1       1.876  13.064  20.772  0.00  0.00    +0.000 C 
ATOM     25  C   UNL     1       0.642  12.192  21.020  0.00  0.00    +0.000 C 
ENDBRANCH  19  20
ENDBRANCH  18  19
ENDBRANCH  17  18
ENDBRANCH   3  17
TORSDOF 6
ENDMDL
MODEL 8
REMARK VINA RESULT:      -7.2      2.082      3.937
REMARK  Name = 
REMARK  8 active torsions:
REMARK  status: ('A' for Active; 'I' for Inactive)
REMARK    1  A    between atoms: C_1  and  C_2
REMARK    2  A    between atoms: C_2  and  C_3
REMARK    3  A    between atoms: C_2  and  N_4
REMARK    4  A    between atoms: C_6  and  C_7
REMARK    5  A    between atoms: N_9  and  C_10
REMARK    6  A    between atoms: C_10  and  C_11
REMARK    7  A    between atoms: C_11  and  C_12
REMARK    8  A    between atoms: C_12  and  N_13
REMARK                            x       y       z     vdW  Elec       q    Type
REMARK                         _______ _______ _______ _____ _____    ______ ____
ROOT
ATOM      1  C   UNL     1       2.305   7.452  18.870  0.00  0.00    +0.000 C 
ATOM      2  O   UNL     1       2.268   7.710  20.068  0.00  0.00    +0.000 OA
ATOM      3  N   UNL     1       1.981   8.389  17.914  0.00  0.00    +0.000 N 
ATOM      4  H   UNL     1       2.103   8.124  16.942  0.00  0.00    +0.000 HD
ENDROOT
BRANCH   1   7
ATOM      5  N   UNL     1       2.782   4.024  17.990  0.00  0.00    +0.000 N 
ATOM      6  N   UNL     1       2.089   4.967  18.681  0.00  0.00    +0.000 NA
ATOM      7  C   UNL     1       2.707   6.126  18.359  0.00  0.00    +0.000 A 
ATOM      8  C   UNL     1       3.784   5.906  17.456  0.00  0.00    +0.000 A 
ATOM      9  C   UNL     1       4.729   6.734  16.815  0.00  0.00    +0.000 A 
ATOM     10  C   UNL     1       5.669   6.163  15.957  0.00  0.00    +0.000 A 
ATOM     11  C   UNL     1       5.677   4.786  15.735  0.00  0.00    +0.000 A 
ATOM     12  C   UNL     1       4.750   3.947  16.365  0.00  0.00    +0.000 A 
ATOM     13  C   UNL     1       3.810   4.533  17.227  0.00  0.00    +0.000 A 
BRANCH   5  15
ATOM     14  C   UNL     1       3.431   1.776  18.829  0.00  0.00    +0.000 C 
ATOM     15  C   UNL     1       2.396   2.615  18.080  0.00  0.00    +0.000 C 
ATOM     16  C   UNL     1       1.004   2.447  18.684  0.00  0.00    +0.000 C 
ENDBRANCH   5  15
ENDBRANCH   1   7
BRANCH   3  17
ATOM     17  C   UNL     1       1.636   9.744  18.285  0.00  0.00    +0.000 C 
BRANCH  17  18
ATOM     18  C   UNL     1       0.149   9.906  18.609  0.00  0.00    +0.000 C 
BRANCH  18  19
ATOM     19  C   UNL     1      -0.357  11.345  18.436  0.00  0.00    +0.000 C 
BRANCH  19  20
ATOM     20  N   UNL     1      -1.702  11.425  17.842  0.00  0.00    +0.000 NA
ATOM     21  C   UNL     1      -2.046  10.209  17.090  0.00  0.00    +0.000 C 
ATOM     22  C   UNL     1      -3.395  10.364  16.391  0.00  0.00    +0.000 C 
ATOM     23  C   UNL     1      -4.498  10.703  17.383  0.00  0.00    +0.000 C 
ATOM     24  C   UNL     1      -4.095  11.895  18.244  0.00  0.00    +0.000 C 
ATOM     25  C   UNL     1      -2.716  11.693  18.876  0.00  0.00    +0.000 C 
ENDBRANCH  19  20
ENDBRANCH  18  19
ENDBRANCH  17  18
ENDBRANCH   3  17
TORSDOF 6
ENDMDL
MODEL 9
REMARK VINA RESULT:      -7.2      1.627      3.417
REMARK  Name = 
REMARK  8 active torsions:
REMARK  status: ('A' for Active; 'I' for Inactive)
REMARK    1  A    between atoms: C_1  and  C_2
REMARK    2  A    between atoms: C_2  and  C_3
REMARK    3  A    between atoms: C_2  and  N_4
REMARK    4  A    between atoms: C_6  and  C_7
REMARK    5  A    between atoms: N_9  and  C_10
REMARK    6  A    between atoms: C_10  and  C_11
REMARK    7  A    between atoms: C_11  and  C_12
REMARK    8  A    between atoms: C_12  and  N_13
REMARK                            x       y       z     vdW  Elec       q    Type
REMARK                         _______ _______ _______ _____ _____    ______ ____
ROOT
ATOM      1  C   UNL     1       2.269   7.382  19.386  0.00  0.00    +0.000 C 
ATOM      2  O   UNL     1       2.237   8.442  18.772  0.00  0.00    +0.000 OA
ATOM      3  N   UNL     1       1.968   7.310  20.729  0.00  0.00    +0.000 N 
ATOM      4  H   UNL     1       1.948   6.388  21.153  0.00  0.00    +0.000 HD
ENDROOT
BRANCH   1   7
ATOM      5  N   UNL     1       2.644   4.041  18.183  0.00  0.00    +0.000 N 
ATOM      6  N   UNL     1       2.007   4.926  18.994  0.00  0.00    +0.000 NA
ATOM      7  C   UNL     1       2.621   6.103  18.738  0.00  0.00    +0.000 A 
ATOM      8  C   UNL     1       3.640   5.953  17.756  0.00  0.00    +0.000 A 
ATOM      9  C   UNL     1       4.556   6.826  17.134  0.00  0.00    +0.000 A 
ATOM     10  C   UNL     1       5.435   6.324  16.174  0.00  0.00    +0.000 A 
ATOM     11  C   UNL     1       5.411   4.972  15.833  0.00  0.00    +0.000 A 
ATOM     12  C   UNL     1       4.511   4.090  16.442  0.00  0.00    +0.000 A 
ATOM     13  C   UNL     1       3.632   4.606  17.407  0.00  0.00    +0.000 A 
BRANCH   5  15
ATOM     14  C   UNL     1       3.293   1.727  18.818  0.00  0.00    +0.000 C 
ATOM     15  C   UNL     1       2.244   2.633  18.173  0.00  0.00    +0.000 C 
ATOM     16  C   UNL     1       0.871   2.430  18.808  0.00  0.00    +0.000 C 
ENDBRANCH   5  15
ENDBRANCH   1   7
BRANCH   3  17
ATOM     17  C   UNL     1       1.544   8.483  21.461  0.00  0.00    +0.000 C 
BRANCH  17  18
ATOM     18  C   UNL     1       0.030   8.697  21.405  0.00  0.00    +0.000 C 
BRANCH  18  19
ATOM     19  C   UNL     1      -0.395   9.780  20.403  0.00  0.00    +0.000 C 
BRANCH  19  20
ATOM     20  N   UNL     1      -0.848  11.026  21.045  0.00  0.00    +0.000 NA
ATOM     21  C   UNL     1      -1.027  10.865  22.496  0.00  0.00    +0.000 C 
ATOM     22  C   UNL     1      -1.606  12.135  23.117  0.00  0.00    +0.000 C 
ATOM     23  C   UNL     1      -0.732  13.345  22.822  0.00  0.00    +0.000 C 
ATOM     24  C   UNL     1      -0.449  13.448  21.327  0.00  0.00    +0.000 C 
ATOM     25  C   UNL     1       0.084  12.130  20.762  0.00  0.00    +0.000 C 
ENDBRANCH  19  20
ENDBRANCH  18  19
ENDBRANCH  17  18
ENDBRANCH   3  17
TORSDOF 6
ENDMDL
