MODEL 1
REMARK VINA RESULT:      -7.4      0.000      0.000
REMARK  Name = 
REMARK  6 active torsions:
REMARK  status: ('A' for Active; 'I' for Inactive)
REMARK    1  A    between atoms: C_1  and  C_2
REMARK    2  A    between atoms: C_2  and  C_3
REMARK    3  A    between atoms: C_2  and  C_4
REMARK    4  A    between atoms: C_2  and  N_5
REMARK    5  A    between atoms: C_13  and  C_14
REMARK    6  A    between atoms: C_20  and  C_21
REMARK                            x       y       z     vdW  Elec       q    Type
REMARK                         _______ _______ _______ _____ _____    ______ ____
ROOT
ATOM      1  N   UNL     1       2.840   4.235  18.925  0.00  0.00    +0.000 N 
ATOM      2  C   UNL     1       2.546   5.085  19.962  0.00  0.00    +0.000 C 
ATOM      3  O   UNL     1       2.396   4.700  21.118  0.00  0.00    +0.000 OA
ATOM      4  N   UNL     1       2.346   6.412  19.619  0.00  0.00    +0.000 N 
ATOM      5  C   UNL     1       2.458   6.928  18.262  0.00  0.00    +0.000 C 
ATOM      6  C   UNL     1       2.061   8.371  17.992  0.00  0.00    +0.000 C 
ATOM      7  N   UNL     1       1.540   9.084  19.128  0.00  0.00    +0.000 N 
ATOM      8  C   UNL     1       1.089  10.369  19.088  0.00  0.00    +0.000 A 
ATOM      9  C   UNL     1       0.627  10.707  20.347  0.00  0.00    +0.000 A 
ATOM     10  C   UNL     1       0.799   9.546  21.190  0.00  0.00    +0.000 A 
ATOM     11  C   UNL     1       1.385   8.569  20.380  0.00  0.00    +0.000 A 
ATOM     12  C   UNL     1       1.708   7.163  20.684  0.00  0.00    +0.000 C 
ATOM     13  H   UNL     1       3.340   4.638  18.150  0.00  0.00    +0.000 HD
ENDROOT
BRANCH   9  14
ATOM     14  C   UNL     1       0.134  12.047  20.650  0.00  0.00    +0.000 A 
ATOM     15  C   UNL     1       1.023  13.087  20.956  0.00  0.00    +0.000 A 
ATOM     16  C   UNL     1       0.546  14.338  21.345  0.00  0.00    +0.000 A 
ATOM     17  C   UNL     1      -0.825  14.573  21.410  0.00  0.00    +0.000 A 
ATOM     18  C   UNL     1      -1.718  13.561  21.070  0.00  0.00    +0.000 A 
ATOM     19  C   UNL     1      -1.240  12.303  20.701  0.00  0.00    +0.000 A 
ENDBRANCH   9  14
BRANCH  10  20
ATOM     20  C   UNL     1       0.364   9.414  22.583  0.00  0.00    +0.000 C 
ATOM     21  N   UNL     1      -0.889   8.935  22.829  0.00  0.00    +0.000 N 
ATOM     22  O   UNL     1       1.077   9.691  23.549  0.00  0.00    +0.000 OA
ATOM     23  H   UNL     1      -1.543   8.626  22.129  0.00  0.00    +0.000 HD
ATOM     24  H   UNL     1      -1.136   8.805  23.799  0.00  0.00    +0.000 HD
ENDBRANCH  10  20
BRANCH   1  26
ATOM     25  C   UNL     1       1.744   2.165  19.743  0.00  0.00    +0.000 C 
ATOM     26  C   UNL     1       3.014   2.791  19.136  0.00  0.00    +0.000 C 
ATOM     27  C   UNL     1       4.229   2.542  20.042  0.00  0.00    +0.000 C 
ATOM     28  C   UNL     1       3.256   2.109  17.777  0.00  0.00    +0.000 C 
ENDBRANCH   1  26
TORSDOF 3
ENDMDL
MODEL 2
REMARK VINA RESULT:      -7.3      0.116      1.299
REMARK  Name = 
REMARK  6 active torsions:
REMARK  status: ('A' for Active; 'I' for Inactive)
REMARK    1  A    between atoms: C_1  and  C_2
REMARK    2  A    between atoms: C_2  and  C_3
REMARK    3  A    between atoms: C_2  and  C_4
REMARK    4  A    between atoms: C_2  and  N_5
REMARK    5  A    between atoms: C_13  and  C_14
REMARK    6  A    between atoms: C_20  and  C_21
REMARK                            x       y       z     vdW  Elec       q    Type
REMARK                         _______ _______ _______ _____ _____    ______ ____
ROOT
ATOM      1  N   UNL     1       2.848   4.213  18.949  0.00  0.00    +0.000 N 
ATOM      2  C   UNL     1       2.556   5.068  19.982  0.00  0.00    +0.000 C 
ATOM      3  O   UNL     1       2.411   4.689  21.141  0.00  0.00    +0.000 OA
ATOM      4  N   UNL     1       2.353   6.392  19.632  0.00  0.00    +0.000 N 
ATOM      5  C   UNL     1       2.459   6.901  18.271  0.00  0.00    +0.000 C 
ATOM      6  C   UNL     1       2.059   8.342  17.995  0.00  0.00    +0.000 C 
ATOM      7  N   UNL     1       1.539   9.060  19.129  0.00  0.00    +0.000 N 
ATOM      8  C   UNL     1       1.087  10.344  19.082  0.00  0.00    +0.000 A 
ATOM      9  C   UNL     1       0.628  10.689  20.341  0.00  0.00    +0.000 A 
ATOM     10  C   UNL     1       0.805   9.533  21.190  0.00  0.00    +0.000 A 
ATOM     11  C   UNL     1       1.390   8.553  20.384  0.00  0.00    +0.000 A 
ATOM     12  C   UNL     1       1.716   7.149  20.695  0.00  0.00    +0.000 C 
ATOM     13  H   UNL     1       3.345   4.612  18.170  0.00  0.00    +0.000 HD
ENDROOT
BRANCH   9  14
ATOM     14  C   UNL     1       0.133  12.029  20.638  0.00  0.00    +0.000 A 
ATOM     15  C   UNL     1      -1.240  12.312  20.603  0.00  0.00    +0.000 A 
ATOM     16  C   UNL     1      -1.702  13.614  20.787  0.00  0.00    +0.000 A 
ATOM     17  C   UNL     1      -0.800  14.647  21.030  0.00  0.00    +0.000 A 
ATOM     18  C   UNL     1       0.562  14.373  21.107  0.00  0.00    +0.000 A 
ATOM     19  C   UNL     1       1.026  13.073  20.903  0.00  0.00    +0.000 A 
ENDBRANCH   9  14
BRANCH  10  20
ATOM     20  C   UNL     1       0.374   9.407  22.585  0.00  0.00    +0.000 C 
ATOM     21  N   UNL     1      -0.880   8.934  22.837  0.00  0.00    +0.000 N 
ATOM     22  O   UNL     1       1.092   9.686  23.547  0.00  0.00    +0.000 OA
ATOM     23  H   UNL     1      -1.537   8.625  22.141  0.00  0.00    +0.000 HD
ATOM     24  H   UNL     1      -1.124   8.809  23.809  0.00  0.00    +0.000 HD
ENDBRANCH  10  20
BRANCH   1  26
ATOM     25  C   UNL     1       4.184   2.499  20.147  0.00  0.00    +0.000 C 
ATOM     26  C   UNL     1       3.026   2.771  19.167  0.00  0.00    +0.000 C 
ATOM     27  C   UNL     1       3.276   2.070  17.823  0.00  0.00    +0.000 C 
ATOM     28  C   UNL     1       1.746   2.195  19.800  0.00  0.00    +0.000 C 
ENDBRANCH   1  26
TORSDOF 3
ENDMDL
MODEL 3
REMARK VINA RESULT:      -7.3      1.269      1.397
REMARK  Name = 
REMARK  6 active torsions:
REMARK  status: ('A' for Active; 'I' for Inactive)
REMARK    1  A    between atoms: C_1  and  C_2
REMARK    2  A    between atoms: C_2  and  C_3
REMARK    3  A    between atoms: C_2  and  C_4
REMARK    4  A    between atoms: C_2  and  N_5
REMARK    5  A    between atoms: C_13  and  C_14
REMARK    6  A    between atoms: C_20  and  C_21
REMARK                            x       y       z     vdW  Elec       q    Type
REMARK                         _______ _______ _______ _____ _____    ______ ____
ROOT
ATOM      1  N   UNL     1       3.255   5.630  17.910  0.00  0.00    +0.000 N 
ATOM      2  C   UNL     1       2.892   6.177  19.115  0.00  0.00    +0.000 C 
ATOM      3  O   UNL     1       2.891   5.538  20.164  0.00  0.00    +0.000 OA
ATOM      4  N   UNL     1       2.447   7.488  19.076  0.00  0.00    +0.000 N 
ATOM      5  C   UNL     1       2.376   8.287  17.860  0.00  0.00    +0.000 C 
ATOM      6  C   UNL     1       1.721   9.659  17.923  0.00  0.00    +0.000 C 
ATOM      7  N   UNL     1       1.166  10.012  19.203  0.00  0.00    +0.000 N 
ATOM      8  C   UNL     1       0.502  11.175  19.457  0.00  0.00    +0.000 A 
ATOM      9  C   UNL     1       0.076  11.153  20.773  0.00  0.00    +0.000 A 
ATOM     10  C   UNL     1       0.501   9.892  21.337  0.00  0.00    +0.000 A 
ATOM     11  C   UNL     1       1.187   9.229  20.317  0.00  0.00    +0.000 A 
ATOM     12  C   UNL     1       1.765   7.872  20.298  0.00  0.00    +0.000 C 
ATOM     13  H   UNL     1       3.624   6.269  17.226  0.00  0.00    +0.000 HD
ENDROOT
BRANCH   9  14
ATOM     14  C   UNL     1      -0.615  12.288  21.375  0.00  0.00    +0.000 A 
ATOM     15  C   UNL     1       0.094  13.425  21.788  0.00  0.00    +0.000 A 
ATOM     16  C   UNL     1      -0.554  14.464  22.455  0.00  0.00    +0.000 A 
ATOM     17  C   UNL     1      -1.923  14.390  22.698  0.00  0.00    +0.000 A 
ATOM     18  C   UNL     1      -2.646  13.286  22.258  0.00  0.00    +0.000 A 
ATOM     19  C   UNL     1      -1.994  12.237  21.608  0.00  0.00    +0.000 A 
ENDBRANCH   9  14
BRANCH  10  20
ATOM     20  C   UNL     1       0.192   9.396  22.681  0.00  0.00    +0.000 C 
ATOM     21  N   UNL     1      -0.911   8.609  22.844  0.00  0.00    +0.000 N 
ATOM     22  O   UNL     1       0.886   9.632  23.671  0.00  0.00    +0.000 OA
ATOM     23  H   UNL     1      -1.524   8.305  22.107  0.00  0.00    +0.000 HD
ATOM     24  H   UNL     1      -1.063   8.240  23.772  0.00  0.00    +0.000 HD
ENDBRANCH  10  20
BRANCH   1  26
ATOM     25  C   UNL     1       2.473   3.284  17.707  0.00  0.00    +0.000 C 
ATOM     26  C   UNL     1       3.686   4.230  17.796  0.00  0.00    +0.000 C 
ATOM     27  C   UNL     1       4.576   3.862  18.993  0.00  0.00    +0.000 C 
ATOM     28  C   UNL     1       4.497   4.056  16.499  0.00  0.00    +0.000 C 
ENDBRANCH   1  26
TORSDOF 3
ENDMDL
MODEL 4
REMARK VINA RESULT:      -7.1      1.298      1.948
REMARK  Name = 
REMARK  6 active torsions:
REMARK  status: ('A' for Active; 'I' for Inactive)
REMARK    1  A    between atoms: C_1  and  C_2
REMARK    2  A    between atoms: C_2  and  C_3
REMARK    3  A    between atoms: C_2  and  C_4
REMARK    4  A    between atoms: C_2  and  N_5
REMARK    5  A    between atoms: C_13  and  C_14
REMARK    6  A    between atoms: C_20  and  C_21
REMARK                            x       y       z     vdW  Elec       q    Type
REMARK                         _______ _______ _______ _____ _____    ______ ____
ROOT
ATOM      1  N   UNL     1       3.345   5.711  17.873  0.00  0.00    +0.000 N 
ATOM      2  C   UNL     1       2.960   6.263  19.069  0.00  0.00    +0.000 C 
ATOM      3  O   UNL     1       2.980   5.644  20.128  0.00  0.00    +0.000 OA
ATOM      4  N   UNL     1       2.465   7.556  19.006  0.00  0.00    +0.000 N 
ATOM      5  C   UNL     1       2.365   8.331  17.777  0.00  0.00    +0.000 C 
ATOM      6  C   UNL     1       1.659   9.678  17.816  0.00  0.00    +0.000 C 
ATOM      7  N   UNL     1       1.088  10.031  19.088  0.00  0.00    +0.000 N 
ATOM      8  C   UNL     1       0.380  11.172  19.322  0.00  0.00    +0.000 A 
ATOM      9  C   UNL     1      -0.047  11.157  20.637  0.00  0.00    +0.000 A 
ATOM     10  C   UNL     1       0.425   9.923  21.224  0.00  0.00    +0.000 A 
ATOM     11  C   UNL     1       1.138   9.269  20.215  0.00  0.00    +0.000 A 
ATOM     12  C   UNL     1       1.766   7.935  20.221  0.00  0.00    +0.000 C 
ATOM     13  H   UNL     1       3.691   6.351  17.179  0.00  0.00    +0.000 HD
ENDROOT
BRANCH   9  14
ATOM     14  C   UNL     1      -0.782  12.275  21.219  0.00  0.00    +0.000 A 
ATOM     15  C   UNL     1      -2.143  12.462  20.940  0.00  0.00    +0.000 A 
ATOM     16  C   UNL     1      -2.819  13.586  21.414  0.00  0.00    +0.000 A 
ATOM     17  C   UNL     1      -2.147  14.526  22.192  0.00  0.00    +0.000 A 
ATOM     18  C   UNL     1      -0.807  14.332  22.509  0.00  0.00    +0.000 A 
ATOM     19  C   UNL     1      -0.126  13.217  22.018  0.00  0.00    +0.000 A 
ENDBRANCH   9  14
BRANCH  10  20
ATOM     20  C   UNL     1       0.132   9.438  22.575  0.00  0.00    +0.000 C 
ATOM     21  N   UNL     1      -0.961   8.641  22.756  0.00  0.00    +0.000 N 
ATOM     22  O   UNL     1       0.832   9.692  23.557  0.00  0.00    +0.000 OA
ATOM     23  H   UNL     1      -1.577   8.323  22.027  0.00  0.00    +0.000 HD
ATOM     24  H   UNL     1      -1.101   8.281  23.689  0.00  0.00    +0.000 HD
ENDBRANCH  10  20
BRANCH   1  26
ATOM     25  C   UNL     1       4.600   4.095  16.469  0.00  0.00    +0.000 C 
ATOM     26  C   UNL     1       3.829   4.326  17.783  0.00  0.00    +0.000 C 
ATOM     27  C   UNL     1       2.645   3.354  17.897  0.00  0.00    +0.000 C 
ATOM     28  C   UNL     1       4.809   4.058  18.941  0.00  0.00    +0.000 C 
ENDBRANCH   1  26
TORSDOF 3
ENDMDL
MODEL 5
REMARK VINA RESULT:      -7.1      0.910      1.348
REMARK  Name = 
REMARK  6 active torsions:
REMARK  status: ('A' for Active; 'I' for Inactive)
REMARK    1  A    between atoms: C_1  and  C_2
REMARK    2  A    between atoms: C_2  and  C_3
REMARK    3  A    between atoms: C_2  and  C_4
REMARK    4  A    between atoms: C_2  and  N_5
REMARK    5  A    between atoms: C_13  and  C_14
REMARK    6  A    between atoms: C_20  and  C_21
REMARK                            x       y       z     vdW  Elec       q    Type
REMARK                         _______ _______ _______ _____ _____    ______ ____
ROOT
ATOM      1  N   UNL     1       2.882   5.206  18.415  0.00  0.00    +0.000 N 
ATOM      2  C   UNL     1       2.593   5.882  19.574  0.00  0.00    +0.000 C 
ATOM      3  O   UNL     1       2.575   5.340  20.675  0.00  0.00    +0.000 OA
ATOM      4  N   UNL     1       2.241   7.213  19.426  0.00  0.00    +0.000 N 
ATOM      5  C   UNL     1       2.194   7.906  18.146  0.00  0.00    +0.000 C 
ATOM      6  C   UNL     1       1.641   9.323  18.099  0.00  0.00    +0.000 C 
ATOM      7  N   UNL     1       1.148   9.827  19.353  0.00  0.00    +0.000 N 
ATOM      8  C   UNL     1       0.576  11.053  19.516  0.00  0.00    +0.000 A 
ATOM      9  C   UNL     1       0.187  11.179  20.837  0.00  0.00    +0.000 A 
ATOM     10  C   UNL     1       0.536   9.944  21.504  0.00  0.00    +0.000 A 
ATOM     11  C   UNL     1       1.144   9.145  20.532  0.00  0.00    +0.000 A 
ATOM     12  C   UNL     1       1.623   7.753  20.623  0.00  0.00    +0.000 C 
ATOM     13  H   UNL     1       3.277   5.753  17.669  0.00  0.00    +0.000 HD
ENDROOT
BRANCH   9  14
ATOM     14  C   UNL     1      -0.405  12.410  21.350  0.00  0.00    +0.000 A 
ATOM     15  C   UNL     1      -1.788  12.508  21.562  0.00  0.00    +0.000 A 
ATOM     16  C   UNL     1      -2.363  13.716  21.954  0.00  0.00    +0.000 A 
ATOM     17  C   UNL     1      -1.561  14.836  22.162  0.00  0.00    +0.000 A 
ATOM     18  C   UNL     1      -0.183  14.742  21.993  0.00  0.00    +0.000 A 
ATOM     19  C   UNL     1       0.390  13.538  21.581  0.00  0.00    +0.000 A 
ENDBRANCH   9  14
BRANCH  10  20
ATOM     20  C   UNL     1       0.229   9.592  22.892  0.00  0.00    +0.000 C 
ATOM     21  N   UNL     1      -1.045   9.216  23.201  0.00  0.00    +0.000 N 
ATOM     22  O   UNL     1       1.066   9.596  23.797  0.00  0.00    +0.000 OA
ATOM     23  H   UNL     1      -1.801   9.124  22.542  0.00  0.00    +0.000 HD
ATOM     24  H   UNL     1      -1.208   8.928  24.154  0.00  0.00    +0.000 HD
ENDBRANCH  10  20
BRANCH   1  26
ATOM     25  C   UNL     1       2.022   2.937  18.934  0.00  0.00    +0.000 C 
ATOM     26  C   UNL     1       3.209   3.773  18.418  0.00  0.00    +0.000 C 
ATOM     27  C   UNL     1       4.460   3.529  19.275  0.00  0.00    +0.000 C 
ATOM     28  C   UNL     1       3.495   3.318  16.975  0.00  0.00    +0.000 C 
ENDBRANCH   1  26
TORSDOF 3
ENDMDL
MODEL 6
REMARK VINA RESULT:      -6.9      1.558      2.082
REMARK  Name = 
REMARK  6 active torsions:
REMARK  status: ('A' for Active; 'I' for Inactive)
REMARK    1  A    between atoms: C_1  and  C_2
REMARK    2  A    between atoms: C_2  and  C_3
REMARK    3  A    between atoms: C_2  and  C_4
REMARK    4  A    between atoms: C_2  and  N_5
REMARK    5  A    between atoms: C_13  and  C_14
REMARK    6  A    between atoms: C_20  and  C_21
REMARK                            x       y       z     vdW  Elec       q    Type
REMARK                         _______ _______ _______ _____ _____    ______ ____
ROOT
ATOM      1  N   UNL     1       3.673   5.797  17.683  0.00  0.00    +0.000 N 
ATOM      2  C   UNL     1       3.131   6.240  18.863  0.00  0.00    +0.000 C 
ATOM      3  O   UNL     1       3.028   5.529  19.858  0.00  0.00    +0.000 OA
ATOM      4  N   UNL     1       2.628   7.530  18.850  0.00  0.00    +0.000 N 
ATOM      5  C   UNL     1       2.671   8.411  17.691  0.00  0.00    +0.000 C 
ATOM      6  C   UNL     1       1.945   9.745  17.756  0.00  0.00    +0.000 C 
ATOM      7  N   UNL     1       1.212   9.982  18.972  0.00  0.00    +0.000 N 
ATOM      8  C   UNL     1       0.462  11.094  19.212  0.00  0.00    +0.000 A 
ATOM      9  C   UNL     1      -0.127  10.961  20.456  0.00  0.00    +0.000 A 
ATOM     10  C   UNL     1       0.286   9.682  20.988  0.00  0.00    +0.000 A 
ATOM     11  C   UNL     1       1.131   9.123  20.026  0.00  0.00    +0.000 A 
ATOM     12  C   UNL     1       1.775   7.797  19.995  0.00  0.00    +0.000 C 
ATOM     13  H   UNL     1       4.094   6.498  17.096  0.00  0.00    +0.000 HD
ENDROOT
BRANCH   9  14
ATOM     14  C   UNL     1      -0.948  12.019  21.035  0.00  0.00    +0.000 A 
ATOM     15  C   UNL     1      -2.198  12.340  20.487  0.00  0.00    +0.000 A 
ATOM     16  C   UNL     1      -2.934  13.418  20.977  0.00  0.00    +0.000 A 
ATOM     17  C   UNL     1      -2.441  14.174  22.037  0.00  0.00    +0.000 A 
ATOM     18  C   UNL     1      -1.220  13.843  22.616  0.00  0.00    +0.000 A 
ATOM     19  C   UNL     1      -0.474  12.776  22.112  0.00  0.00    +0.000 A 
ENDBRANCH   9  14
BRANCH  10  20
ATOM     20  C   UNL     1      -0.166   9.078  22.244  0.00  0.00    +0.000 C 
ATOM     21  N   UNL     1       0.317   9.580  23.417  0.00  0.00    +0.000 N 
ATOM     22  O   UNL     1      -0.979   8.154  22.302  0.00  0.00    +0.000 OA
ATOM     23  H   UNL     1       0.943  10.364  23.502  0.00  0.00    +0.000 HD
ATOM     24  H   UNL     1      -0.057   9.177  24.264  0.00  0.00    +0.000 HD
ENDBRANCH  10  20
BRANCH   1  26
ATOM     25  C   UNL     1       5.066   4.035  18.738  0.00  0.00    +0.000 C 
ATOM     26  C   UNL     1       4.187   4.428  17.535  0.00  0.00    +0.000 C 
ATOM     27  C   UNL     1       4.978   4.310  16.223  0.00  0.00    +0.000 C 
ATOM     28  C   UNL     1       3.002   3.445  17.494  0.00  0.00    +0.000 C 
ENDBRANCH   1  26
TORSDOF 3
ENDMDL
MODEL 7
REMARK VINA RESULT:      -6.8      1.028      1.694
REMARK  Name = 
REMARK  6 active torsions:
REMARK  status: ('A' for Active; 'I' for Inactive)
REMARK    1  A    between atoms: C_1  and  C_2
REMARK    2  A    between atoms: C_2  and  C_3
REMARK    3  A    between atoms: C_2  and  C_4
REMARK    4  A    between atoms: C_2  and  N_5
REMARK    5  A    between atoms: C_13  and  C_14
REMARK    6  A    between atoms: C_20  and  C_21
REMARK                            x       y       z     vdW  Elec       q    Type
REMARK                         _______ _______ _______ _____ _____    ______ ____
ROOT
ATOM      1  N   UNL     1       2.607   5.384  18.617  0.00  0.00    +0.000 N 
ATOM      2  C   UNL     1       2.288   6.132  19.723  0.00  0.00    +0.000 C 
ATOM      3  O   UNL     1       2.141   5.643  20.839  0.00  0.00    +0.000 OA
ATOM      4  N   UNL     1       2.063   7.480  19.498  0.00  0.00    +0.000 N 
ATOM      5  C   UNL     1       2.172   8.117  18.192  0.00  0.00    +0.000 C 
ATOM      6  C   UNL     1       1.746   9.570  18.048  0.00  0.00    +0.000 C 
ATOM      7  N   UNL     1       1.203  10.168  19.240  0.00  0.00    +0.000 N 
ATOM      8  C   UNL     1       0.726  11.442  19.310  0.00  0.00    +0.000 A 
ATOM      9  C   UNL     1       0.250  11.658  20.590  0.00  0.00    +0.000 A 
ATOM     10  C   UNL     1       0.441  10.430  21.328  0.00  0.00    +0.000 A 
ATOM     11  C   UNL     1       1.052   9.541  20.439  0.00  0.00    +0.000 A 
ATOM     12  C   UNL     1       1.403   8.120  20.621  0.00  0.00    +0.000 C 
ATOM     13  H   UNL     1       3.102   5.864  17.885  0.00  0.00    +0.000 HD
ENDROOT
BRANCH   9  14
ATOM     14  C   UNL     1      -0.273  12.954  21.007  0.00  0.00    +0.000 A 
ATOM     15  C   UNL     1      -1.568  13.356  20.649  0.00  0.00    +0.000 A 
ATOM     16  C   UNL     1      -2.028  14.634  20.961  0.00  0.00    +0.000 A 
ATOM     17  C   UNL     1      -1.209  15.520  21.655  0.00  0.00    +0.000 A 
ATOM     18  C   UNL     1       0.064  15.121  22.051  0.00  0.00    +0.000 A 
ATOM     19  C   UNL     1       0.532  13.849  21.721  0.00  0.00    +0.000 A 
ENDBRANCH   9  14
BRANCH  10  20
ATOM     20  C   UNL     1       0.001  10.165  22.701  0.00  0.00    +0.000 C 
ATOM     21  N   UNL     1      -1.269  10.518  23.054  0.00  0.00    +0.000 N 
ATOM     22  O   UNL     1       0.708   9.621  23.550  0.00  0.00    +0.000 OA
ATOM     23  H   UNL     1      -1.955  10.920  22.438  0.00  0.00    +0.000 HD
ATOM     24  H   UNL     1      -1.557  10.272  23.990  0.00  0.00    +0.000 HD
ENDBRANCH  10  20
BRANCH   1  26
ATOM     25  C   UNL     1       3.019   3.322  17.300  0.00  0.00    +0.000 C 
ATOM     26  C   UNL     1       2.810   3.931  18.700  0.00  0.00    +0.000 C 
ATOM     27  C   UNL     1       1.609   3.279  19.403  0.00  0.00    +0.000 C 
ATOM     28  C   UNL     1       4.083   3.646  19.518  0.00  0.00    +0.000 C 
ENDBRANCH   1  26
TORSDOF 3
ENDMDL
MODEL 8
REMARK VINA RESULT:      -6.4      2.443      3.648
REMARK  Name = 
REMARK  6 active torsions:
REMARK  status: ('A' for Active; 'I' for Inactive)
REMARK    1  A    between atoms: C_1  and  C_2
REMARK    2  A    between atoms: C_2  and  C_3
REMARK    3  A    between atoms: C_2  and  C_4
REMARK    4  A    between atoms: C_2  and  N_5
REMARK    5  A    between atoms: C_13  and  C_14
REMARK    6  A    between atoms: C_20  and  C_21
REMARK                            x       y       z     vdW  Elec       q    Type
REMARK                         _______ _______ _______ _____ _____    ______ ____
ROOT
ATOM      1  N   UNL     1       3.171   6.618  19.031  0.00  0.00    +0.000 N 
ATOM      2  C   UNL     1       2.494   7.704  18.538  0.00  0.00    +0.000 C 
ATOM      3  O   UNL     1       2.652   8.126  17.396  0.00  0.00    +0.000 OA
ATOM      4  N   UNL     1       1.664   8.358  19.433  0.00  0.00    +0.000 N 
ATOM      5  C   UNL     1       1.468   7.941  20.815  0.00  0.00    +0.000 C 
ATOM      6  C   UNL     1       0.655   8.833  21.741  0.00  0.00    +0.000 C 
ATOM      7  N   UNL     1       0.201  10.067  21.156  0.00  0.00    +0.000 N 
ATOM      8  C   UNL     1      -0.503  11.021  21.827  0.00  0.00    +0.000 A 
ATOM      9  C   UNL     1      -0.730  12.080  20.966  0.00  0.00    +0.000 A 
ATOM     10  C   UNL     1      -0.110  11.744  19.705  0.00  0.00    +0.000 A 
ATOM     11  C   UNL     1       0.443  10.472  19.878  0.00  0.00    +0.000 A 
ATOM     12  C   UNL     1       1.266   9.669  18.955  0.00  0.00    +0.000 C 
ATOM     13  H   UNL     1       2.711   6.102  19.763  0.00  0.00    +0.000 HD
ENDROOT
BRANCH   9  14
ATOM     14  C   UNL     1      -1.518  13.241  21.367  0.00  0.00    +0.000 A 
ATOM     15  C   UNL     1      -0.989  14.201  22.241  0.00  0.00    +0.000 A 
ATOM     16  C   UNL     1      -1.777  15.254  22.703  0.00  0.00    +0.000 A 
ATOM     17  C   UNL     1      -3.098  15.374  22.278  0.00  0.00    +0.000 A 
ATOM     18  C   UNL     1      -3.624  14.451  21.380  0.00  0.00    +0.000 A 
ATOM     19  C   UNL     1      -2.840  13.386  20.934  0.00  0.00    +0.000 A 
ENDBRANCH   9  14
BRANCH  10  20
ATOM     20  C   UNL     1      -0.018  12.608  18.526  0.00  0.00    +0.000 C 
ATOM     21  N   UNL     1      -1.116  12.732  17.725  0.00  0.00    +0.000 N 
ATOM     22  O   UNL     1       0.991  13.249  18.227  0.00  0.00    +0.000 OA
ATOM     23  H   UNL     1      -2.011  12.303  17.892  0.00  0.00    +0.000 HD
ATOM     24  H   UNL     1      -1.036  13.378  16.953  0.00  0.00    +0.000 HD
ENDBRANCH  10  20
BRANCH   1  26
ATOM     25  C   UNL     1       4.914   6.811  17.275  0.00  0.00    +0.000 C 
ATOM     26  C   UNL     1       4.133   5.868  18.210  0.00  0.00    +0.000 C 
ATOM     27  C   UNL     1       3.394   4.791  17.401  0.00  0.00    +0.000 C 
ATOM     28  C   UNL     1       5.159   5.185  19.132  0.00  0.00    +0.000 C 
ENDBRANCH   1  26
TORSDOF 3
ENDMDL
MODEL 9
REMARK VINA RESULT:      -6.4      2.377      3.781
REMARK  Name = 
REMARK  6 active torsions:
REMARK  status: ('A' for Active; 'I' for Inactive)
REMARK    1  A    between atoms: C_1  and  C_2
REMARK    2  A    between atoms: C_2  and  C_3
REMARK    3  A    between atoms: C_2  and  C_4
REMARK    4  A    between atoms: C_2  and  N_5
REMARK    5  A    between atoms: C_13  and  C_14
REMARK    6  A    between atoms: C_20  and  C_21
REMARK                            x       y       z     vdW  Elec       q    Type
REMARK                         _______ _______ _______ _____ _____    ______ ____
ROOT
ATOM      1  N   UNL     1       2.920   6.667  19.225  0.00  0.00    +0.000 N 
ATOM      2  C   UNL     1       2.268   7.761  18.715  0.00  0.00    +0.000 C 
ATOM      3  O   UNL     1       2.390   8.127  17.549  0.00  0.00    +0.000 OA
ATOM      4  N   UNL     1       1.511   8.490  19.617  0.00  0.00    +0.000 N 
ATOM      5  C   UNL     1       1.362   8.142  21.023  0.00  0.00    +0.000 C 
ATOM      6  C   UNL     1       0.633   9.109  21.944  0.00  0.00    +0.000 C 
ATOM      7  N   UNL     1       0.206  10.337  21.326  0.00  0.00    +0.000 N 
ATOM      8  C   UNL     1      -0.424  11.349  21.985  0.00  0.00    +0.000 A 
ATOM      9  C   UNL     1      -0.644  12.379  21.089  0.00  0.00    +0.000 A 
ATOM     10  C   UNL     1      -0.099  11.962  19.817  0.00  0.00    +0.000 A 
ATOM     11  C   UNL     1       0.405  10.675  20.022  0.00  0.00    +0.000 A 
ATOM     12  C   UNL     1       1.148   9.796  19.099  0.00  0.00    +0.000 C 
ATOM     13  H   UNL     1       2.472   6.205  19.999  0.00  0.00    +0.000 HD
ENDROOT
BRANCH   9  14
ATOM     14  C   UNL     1      -1.361  13.591  21.472  0.00  0.00    +0.000 A 
ATOM     15  C   UNL     1      -2.636  13.865  20.958  0.00  0.00    +0.000 A 
ATOM     16  C   UNL     1      -3.275  15.070  21.245  0.00  0.00    +0.000 A 
ATOM     17  C   UNL     1      -2.658  16.008  22.069  0.00  0.00    +0.000 A 
ATOM     18  C   UNL     1      -1.410  15.732  22.618  0.00  0.00    +0.000 A 
ATOM     19  C   UNL     1      -0.761  14.534  22.314  0.00  0.00    +0.000 A 
ENDBRANCH   9  14
BRANCH  10  20
ATOM     20  C   UNL     1      -0.026  12.770  18.597  0.00  0.00    +0.000 C 
ATOM     21  N   UNL     1      -1.073  12.723  17.723  0.00  0.00    +0.000 N 
ATOM     22  O   UNL     1       0.921  13.510  18.326  0.00  0.00    +0.000 OA
ATOM     23  H   UNL     1      -1.921  12.199  17.858  0.00  0.00    +0.000 HD
ATOM     24  H   UNL     1      -1.013  13.334  16.921  0.00  0.00    +0.000 HD
ENDBRANCH  10  20
BRANCH   1  26
ATOM     25  C   UNL     1       4.606   6.710  17.406  0.00  0.00    +0.000 C 
ATOM     26  C   UNL     1       3.808   5.840  18.396  0.00  0.00    +0.000 C 
ATOM     27  C   UNL     1       2.981   4.784  17.647  0.00  0.00    +0.000 C 
ATOM     28  C   UNL     1       4.827   5.127  19.303  0.00  0.00    +0.000 C 
ENDBRANCH   1  26
TORSDOF 3
ENDMDL
