MODEL 1
REMARK VINA RESULT:      -9.0      0.000      0.000
REMARK  Name = 
REMARK  8 active torsions:
REMARK  status: ('A' for Active; 'I' for Inactive)
REMARK    1  A    between atoms: C_1  and  C_2
REMARK    2  A    between atoms: C_2  and  C_3
REMARK    3  A    between atoms: C_2  and  N_4
REMARK    4  A    between atoms: C_6  and  C_7
REMARK    5  A    between atoms: C_9  and  C_10
REMARK    6  A    between atoms: C_15  and  C_16
REMARK    7  A    between atoms: C_16  and  N_17
REMARK    8  A    between atoms: C_26  and  N_27
REMARK                            x       y       z     vdW  Elec       q    Type
REMARK                         _______ _______ _______ _____ _____    ______ ____
ROOT
ATOM      1  C   UNL     1       0.999   9.987  19.898  0.00  0.00    +0.000 A 
ATOM      2  C   UNL     1       1.365   8.633  20.032  0.00  0.00    +0.000 A 
ATOM      3  C   UNL     1       2.000   7.950  18.989  0.00  0.00    +0.000 A 
ATOM      4  C   UNL     1       2.278   8.718  17.858  0.00  0.00    +0.000 A 
ATOM      5  N   UNL     1       1.961  10.024  17.693  0.00  0.00    +0.000 NA
ATOM      6  C   UNL     1       1.325  10.643  18.705  0.00  0.00    +0.000 A 
ENDROOT
BRANCH   3   7
ATOM      7  C   UNL     1       2.336   6.513  19.051  0.00  0.00    +0.000 A 
ATOM      8  C   UNL     1       2.121   5.737  20.200  0.00  0.00    +0.000 A 
ATOM      9  C   UNL     1       2.505   4.393  20.234  0.00  0.00    +0.000 A 
ATOM     10 CL   UNL     1       2.258   3.475  21.671  0.00  0.00    +0.000 Cl
ATOM     11  C   UNL     1       3.122   3.792  19.133  0.00  0.00    +0.000 A 
ATOM     12  C   UNL     1       3.345   4.532  17.969  0.00  0.00    +0.000 A 
ATOM     13  C   UNL     1       2.929   5.875  17.943  0.00  0.00    +0.000 A 
BRANCH  12  14
ATOM     14  C   UNL     1       4.122   3.969  16.799  0.00  0.00    +0.000 C 
BRANCH  14  15
ATOM     15  N   UNL     1       5.578   3.908  16.858  0.00  0.00    +0.000 NA
ATOM     16  C   UNL     1       6.271   4.884  17.704  0.00  0.00    +0.000 C 
ATOM     17  C   UNL     1       6.692   6.171  16.974  0.00  0.00    +0.000 C 
ATOM     18  O   UNL     1       7.425   5.891  15.775  0.00  0.00    +0.000 OA
ATOM     19  C   UNL     1       6.678   5.040  14.897  0.00  0.00    +0.000 C 
ATOM     20  C   UNL     1       6.279   3.730  15.585  0.00  0.00    +0.000 C 
ENDBRANCH  14  15
ENDBRANCH  12  14
ENDBRANCH   3   7
BRANCH   1  23
ATOM     21  N   UNL     1      -1.009  11.975  22.081  0.00  0.00    +0.000 N 
ATOM     22  C   UNL     1      -0.664  11.646  20.805  0.00  0.00    +0.000 A 
ATOM     23  C   UNL     1       0.281  10.656  20.966  0.00  0.00    +0.000 A 
ATOM     24  N   UNL     1       0.453  10.410  22.305  0.00  0.00    +0.000 NA
ATOM     25  N   UNL     1      -0.348  11.224  22.981  0.00  0.00    +0.000 NA
BRANCH  21  27
ATOM     26  C   UNL     1      -3.272  12.374  22.970  0.00  0.00    +0.000 C 
ATOM     27  C   UNL     1      -1.962  12.993  22.493  0.00  0.00    +0.000 C 
ATOM     28  C   UNL     1      -1.366  13.936  23.536  0.00  0.00    +0.000 C 
ENDBRANCH  21  27
ENDBRANCH   1  23
BRANCH   6  29
ATOM     29  N   UNL     1       0.927  11.944  18.418  0.00  0.00    +0.000 N 
ATOM     30  H   UNL     1      -0.007  12.084  18.791  0.00  0.00    +0.000 HD
ATOM     31  H   UNL     1       1.009  12.160  17.428  0.00  0.00    +0.000 HD
ENDBRANCH   6  29
TORSDOF 6
ENDMDL
MODEL 2
REMARK VINA RESULT:      -8.7      3.230      4.836
REMARK  Name = 
REMARK  8 active torsions:
REMARK  status: ('A' for Active; 'I' for Inactive)
REMARK    1  A    between atoms: C_1  and  C_2
REMARK    2  A    between atoms: C_2  and  C_3
REMARK    3  A    between atoms: C_2  and  N_4
REMARK    4  A    between atoms: C_6  and  C_7
REMARK    5  A    between atoms: C_9  and  C_10
REMARK    6  A    between atoms: C_15  and  C_16
REMARK    7  A    between atoms: C_16  and  N_17
REMARK    8  A    between atoms: C_26  and  N_27
REMARK                            x       y       z     vdW  Elec       q    Type
REMARK                         _______ _______ _______ _____ _____    ______ ____
ROOT
ATOM      1  C   UNL     1       0.195   9.587  19.385  0.00  0.00    +0.000 A 
ATOM      2  C   UNL     1       1.084   8.689  18.761  0.00  0.00    +0.000 A 
ATOM      3  C   UNL     1       1.953   7.892  19.513  0.00  0.00    +0.000 A 
ATOM      4  C   UNL     1       1.831   8.021  20.897  0.00  0.00    +0.000 A 
ATOM      5  N   UNL     1       0.982   8.858  21.540  0.00  0.00    +0.000 NA
ATOM      6  C   UNL     1       0.179   9.631  20.785  0.00  0.00    +0.000 A 
ENDROOT
BRANCH   3   7
ATOM      7  C   UNL     1       2.954   6.991  18.905  0.00  0.00    +0.000 A 
ATOM      8  C   UNL     1       3.521   7.235  17.646  0.00  0.00    +0.000 A 
ATOM      9  C   UNL     1       4.424   6.327  17.083  0.00  0.00    +0.000 A 
ATOM     10 CL   UNL     1       5.079   6.638  15.520  0.00  0.00    +0.000 Cl
ATOM     11  C   UNL     1       4.774   5.151  17.752  0.00  0.00    +0.000 A 
ATOM     12  C   UNL     1       4.235   4.879  19.012  0.00  0.00    +0.000 A 
ATOM     13  C   UNL     1       3.349   5.815  19.575  0.00  0.00    +0.000 A 
BRANCH  12  14
ATOM     14  C   UNL     1       4.480   3.564  19.721  0.00  0.00    +0.000 C 
BRANCH  14  15
ATOM     15  N   UNL     1       3.434   2.548  19.744  0.00  0.00    +0.000 NA
ATOM     16  C   UNL     1       2.658   2.336  18.519  0.00  0.00    +0.000 C 
ATOM     17  C   UNL     1       1.372   3.173  18.428  0.00  0.00    +0.000 C 
ATOM     18  O   UNL     1       0.560   3.038  19.602  0.00  0.00    +0.000 OA
ATOM     19  C   UNL     1       1.296   3.380  20.783  0.00  0.00    +0.000 C 
ATOM     20  C   UNL     1       2.564   2.530  20.923  0.00  0.00    +0.000 C 
ENDBRANCH  14  15
ENDBRANCH  12  14
ENDBRANCH   3   7
BRANCH   1  23
ATOM     21  N   UNL     1      -2.074  11.198  17.149  0.00  0.00    +0.000 N 
ATOM     22  C   UNL     1      -1.580  10.035  17.658  0.00  0.00    +0.000 A 
ATOM     23  C   UNL     1      -0.648  10.451  18.584  0.00  0.00    +0.000 A 
ATOM     24  N   UNL     1      -0.628  11.823  18.618  0.00  0.00    +0.000 NA
ATOM     25  N   UNL     1      -1.511  12.272  17.735  0.00  0.00    +0.000 NA
BRANCH  21  27
ATOM     26  C   UNL     1      -2.912  10.280  15.021  0.00  0.00    +0.000 C 
ATOM     27  C   UNL     1      -3.080  11.338  16.108  0.00  0.00    +0.000 C 
ATOM     28  C   UNL     1      -4.493  11.341  16.685  0.00  0.00    +0.000 C 
ENDBRANCH  21  27
ENDBRANCH   1  23
BRANCH   6  29
ATOM     29  N   UNL     1      -0.578  10.545  21.509  0.00  0.00    +0.000 N 
ATOM     30  H   UNL     1      -0.605  11.419  20.993  0.00  0.00    +0.000 HD
ATOM     31  H   UNL     1      -0.247  10.644  22.465  0.00  0.00    +0.000 HD
ENDBRANCH   6  29
TORSDOF 6
ENDMDL
MODEL 3
REMARK VINA RESULT:      -8.7      3.212      4.695
REMARK  Name = 
REMARK  8 active torsions:
REMARK  status: ('A' for Active; 'I' for Inactive)
REMARK    1  A    between atoms: C_1  and  C_2
REMARK    2  A    between atoms: C_2  and  C_3
REMARK    3  A    between atoms: C_2  and  N_4
REMARK    4  A    between atoms: C_6  and  C_7
REMARK    5  A    between atoms: C_9  and  C_10
REMARK    6  A    between atoms: C_15  and  C_16
REMARK    7  A    between atoms: C_16  and  N_17
REMARK    8  A    between atoms: C_26  and  N_27
REMARK                            x       y       z     vdW  Elec       q    Type
REMARK                         _______ _______ _______ _____ _____    ______ ____
ROOT
ATOM      1  C   UNL     1       0.244   9.526  19.125  0.00  0.00    +0.000 A 
ATOM      2  C   UNL     1       1.014   8.563  18.443  0.00  0.00    +0.000 A 
ATOM      3  C   UNL     1       1.931   7.756  19.125  0.00  0.00    +0.000 A 
ATOM      4  C   UNL     1       1.979   7.947  20.506  0.00  0.00    +0.000 A 
ATOM      5  N   UNL     1       1.247   8.847  21.205  0.00  0.00    +0.000 NA
ATOM      6  C   UNL     1       0.394   9.626  20.514  0.00  0.00    +0.000 A 
ENDROOT
BRANCH   3   7
ATOM      7  C   UNL     1       2.814   6.786  18.447  0.00  0.00    +0.000 A 
ATOM      8  C   UNL     1       4.095   7.126  17.986  0.00  0.00    +0.000 A 
ATOM      9  C   UNL     1       4.877   6.192  17.300  0.00  0.00    +0.000 A 
ATOM     10 CL   UNL     1       6.433   6.649  16.717  0.00  0.00    +0.000 Cl
ATOM     11  C   UNL     1       4.400   4.903  17.044  0.00  0.00    +0.000 A 
ATOM     12  C   UNL     1       3.133   4.526  17.495  0.00  0.00    +0.000 A 
ATOM     13  C   UNL     1       2.370   5.470  18.206  0.00  0.00    +0.000 A 
BRANCH  12  14
ATOM     14  C   UNL     1       2.519   3.190  17.134  0.00  0.00    +0.000 C 
BRANCH  14  15
ATOM     15  N   UNL     1       2.434   2.137  18.140  0.00  0.00    +0.000 NA
ATOM     16  C   UNL     1       1.249   2.107  19.001  0.00  0.00    +0.000 C 
ATOM     17  C   UNL     1       1.400   2.885  20.318  0.00  0.00    +0.000 C 
ATOM     18  O   UNL     1       2.585   2.507  21.031  0.00  0.00    +0.000 OA
ATOM     19  C   UNL     1       3.753   2.670  20.217  0.00  0.00    +0.000 C 
ATOM     20  C   UNL     1       3.649   1.871  18.913  0.00  0.00    +0.000 C 
ENDBRANCH  14  15
ENDBRANCH  12  14
ENDBRANCH   3   7
BRANCH   1  23
ATOM     21  N   UNL     1      -2.126  11.162  17.015  0.00  0.00    +0.000 N 
ATOM     22  C   UNL     1      -1.567   9.995  17.441  0.00  0.00    +0.000 A 
ATOM     23  C   UNL     1      -0.651  10.396  18.389  0.00  0.00    +0.000 A 
ATOM     24  N   UNL     1      -0.704  11.761  18.517  0.00  0.00    +0.000 NA
ATOM     25  N   UNL     1      -1.617  12.221  17.670  0.00  0.00    +0.000 NA
BRANCH  21  27
ATOM     26  C   UNL     1      -3.049  10.224  14.931  0.00  0.00    +0.000 C 
ATOM     27  C   UNL     1      -3.146  11.318  15.991  0.00  0.00    +0.000 C 
ATOM     28  C   UNL     1      -4.546  11.402  16.594  0.00  0.00    +0.000 C 
ENDBRANCH  21  27
ENDBRANCH   1  23
BRANCH   6  29
ATOM     29  N   UNL     1      -0.233  10.604  21.279  0.00  0.00    +0.000 N 
ATOM     30  H   UNL     1       0.461  11.291  21.553  0.00  0.00    +0.000 HD
ATOM     31  H   UNL     1      -0.748  10.206  22.060  0.00  0.00    +0.000 HD
ENDBRANCH   6  29
TORSDOF 6
ENDMDL
MODEL 4
REMARK VINA RESULT:      -8.6      2.208      3.412
REMARK  Name = 
REMARK  8 active torsions:
REMARK  status: ('A' for Active; 'I' for Inactive)
REMARK    1  A    between atoms: C_1  and  C_2
REMARK    2  A    between atoms: C_2  and  C_3
REMARK    3  A    between atoms: C_2  and  N_4
REMARK    4  A    between atoms: C_6  and  C_7
REMARK    5  A    between atoms: C_9  and  C_10
REMARK    6  A    between atoms: C_15  and  C_16
REMARK    7  A    between atoms: C_16  and  N_17
REMARK    8  A    between atoms: C_26  and  N_27
REMARK                            x       y       z     vdW  Elec       q    Type
REMARK                         _______ _______ _______ _____ _____    ______ ____
ROOT
ATOM      1  C   UNL     1       0.013  10.037  20.051  0.00  0.00    +0.000 A 
ATOM      2  C   UNL     1       0.580   8.791  19.714  0.00  0.00    +0.000 A 
ATOM      3  C   UNL     1       1.369   8.085  20.628  0.00  0.00    +0.000 A 
ATOM      4  C   UNL     1       1.498   8.678  21.884  0.00  0.00    +0.000 A 
ATOM      5  N   UNL     1       0.958   9.863  22.257  0.00  0.00    +0.000 NA
ATOM      6  C   UNL     1       0.229  10.530  21.343  0.00  0.00    +0.000 A 
ENDROOT
BRANCH   3   7
ATOM      7  C   UNL     1       2.046   6.815  20.299  0.00  0.00    +0.000 A 
ATOM      8  C   UNL     1       1.731   5.605  20.936  0.00  0.00    +0.000 A 
ATOM      9  C   UNL     1       2.436   4.436  20.633  0.00  0.00    +0.000 A 
ATOM     10 CL   UNL     1       2.048   2.972  21.457  0.00  0.00    +0.000 Cl
ATOM     11  C   UNL     1       3.477   4.443  19.701  0.00  0.00    +0.000 A 
ATOM     12  C   UNL     1       3.813   5.627  19.041  0.00  0.00    +0.000 A 
ATOM     13  C   UNL     1       3.077   6.788  19.338  0.00  0.00    +0.000 A 
BRANCH  12  14
ATOM     14  C   UNL     1       5.012   5.719  18.121  0.00  0.00    +0.000 C 
BRANCH  14  15
ATOM     15  N   UNL     1       5.602   4.502  17.576  0.00  0.00    +0.000 NA
ATOM     16  C   UNL     1       7.044   4.496  17.318  0.00  0.00    +0.000 C 
ATOM     17  C   UNL     1       7.438   4.920  15.894  0.00  0.00    +0.000 C 
ATOM     18  O   UNL     1       6.717   4.184  14.897  0.00  0.00    +0.000 OA
ATOM     19  C   UNL     1       5.302   4.309  15.083  0.00  0.00    +0.000 C 
ATOM     20  C   UNL     1       4.874   3.853  16.483  0.00  0.00    +0.000 C 
ENDBRANCH  14  15
ENDBRANCH  12  14
ENDBRANCH   3   7
BRANCH   1  23
ATOM     21  N   UNL     1      -2.090  11.330  17.472  0.00  0.00    +0.000 N 
ATOM     22  C   UNL     1      -1.709  10.263  18.229  0.00  0.00    +0.000 A 
ATOM     23  C   UNL     1      -0.744  10.782  19.065  0.00  0.00    +0.000 A 
ATOM     24  N   UNL     1      -0.596  12.121  18.806  0.00  0.00    +0.000 NA
ATOM     25  N   UNL     1      -1.431  12.449  17.828  0.00  0.00    +0.000 NA
BRANCH  21  27
ATOM     26  C   UNL     1      -2.922  10.119  15.494  0.00  0.00    +0.000 C 
ATOM     27  C   UNL     1      -3.076  11.335  16.404  0.00  0.00    +0.000 C 
ATOM     28  C   UNL     1      -4.498  11.461  16.946  0.00  0.00    +0.000 C 
ENDBRANCH  21  27
ENDBRANCH   1  23
BRANCH   6  29
ATOM     29  N   UNL     1      -0.193  11.789  21.757  0.00  0.00    +0.000 N 
ATOM     30  H   UNL     1       0.210  12.483  21.136  0.00  0.00    +0.000 HD
ATOM     31  H   UNL     1       0.007  11.954  22.741  0.00  0.00    +0.000 HD
ENDBRANCH   6  29
TORSDOF 6
ENDMDL
MODEL 5
REMARK VINA RESULT:      -8.6      0.632      1.094
REMARK  Name = 
REMARK  8 active torsions:
REMARK  status: ('A' for Active; 'I' for Inactive)
REMARK    1  A    between atoms: C_1  and  C_2
REMARK    2  A    between atoms: C_2  and  C_3
REMARK    3  A    between atoms: C_2  and  N_4
REMARK    4  A    between atoms: C_6  and  C_7
REMARK    5  A    between atoms: C_9  and  C_10
REMARK    6  A    between atoms: C_15  and  C_16
REMARK    7  A    between atoms: C_16  and  N_17
REMARK    8  A    between atoms: C_26  and  N_27
REMARK                            x       y       z     vdW  Elec       q    Type
REMARK                         _______ _______ _______ _____ _____    ______ ____
ROOT
ATOM      1  C   UNL     1       0.782  10.081  20.128  0.00  0.00    +0.000 A 
ATOM      2  C   UNL     1       1.213   8.744  20.247  0.00  0.00    +0.000 A 
ATOM      3  C   UNL     1       1.858   8.096  19.189  0.00  0.00    +0.000 A 
ATOM      4  C   UNL     1       2.077   8.881  18.056  0.00  0.00    +0.000 A 
ATOM      5  N   UNL     1       1.697  10.171  17.904  0.00  0.00    +0.000 NA
ATOM      6  C   UNL     1       1.054  10.756  18.932  0.00  0.00    +0.000 A 
ENDROOT
BRANCH   3   7
ATOM      7  C   UNL     1       2.261   6.676  19.236  0.00  0.00    +0.000 A 
ATOM      8  C   UNL     1       1.994   5.852  20.340  0.00  0.00    +0.000 A 
ATOM      9  C   UNL     1       2.442   4.528  20.367  0.00  0.00    +0.000 A 
ATOM     10 CL   UNL     1       2.127   3.552  21.751  0.00  0.00    +0.000 Cl
ATOM     11  C   UNL     1       3.176   3.995  19.303  0.00  0.00    +0.000 A 
ATOM     12  C   UNL     1       3.454   4.783  18.184  0.00  0.00    +0.000 A 
ATOM     13  C   UNL     1       2.973   6.104  18.162  0.00  0.00    +0.000 A 
BRANCH  12  14
ATOM     14  C   UNL     1       4.351   4.297  17.066  0.00  0.00    +0.000 C 
BRANCH  14  15
ATOM     15  N   UNL     1       4.887   5.250  16.101  0.00  0.00    +0.000 NA
ATOM     16  C   UNL     1       5.428   4.723  14.845  0.00  0.00    +0.000 C 
ATOM     17  C   UNL     1       6.936   4.425  14.878  0.00  0.00    +0.000 C 
ATOM     18  O   UNL     1       7.693   5.544  15.355  0.00  0.00    +0.000 OA
ATOM     19  C   UNL     1       7.239   5.965  16.647  0.00  0.00    +0.000 C 
ATOM     20  C   UNL     1       5.745   6.310  16.635  0.00  0.00    +0.000 C 
ENDBRANCH  14  15
ENDBRANCH  12  14
ENDBRANCH   3   7
BRANCH   1  23
ATOM     21  N   UNL     1      -1.264  11.970  22.362  0.00  0.00    +0.000 N 
ATOM     22  C   UNL     1      -0.925  11.669  21.078  0.00  0.00    +0.000 A 
ATOM     23  C   UNL     1       0.057  10.711  21.213  0.00  0.00    +0.000 A 
ATOM     24  N   UNL     1       0.255  10.455  22.547  0.00  0.00    +0.000 NA
ATOM     25  N   UNL     1      -0.564  11.232  23.244  0.00  0.00    +0.000 NA
BRANCH  21  27
ATOM     26  C   UNL     1      -3.374  12.295  23.592  0.00  0.00    +0.000 C 
ATOM     27  C   UNL     1      -2.246  12.949  22.799  0.00  0.00    +0.000 C 
ATOM     28  C   UNL     1      -1.597  14.094  23.573  0.00  0.00    +0.000 C 
ENDBRANCH  21  27
ENDBRANCH   1  23
BRANCH   6  29
ATOM     29  N   UNL     1       0.590  12.039  18.660  0.00  0.00    +0.000 N 
ATOM     30  H   UNL     1       1.260  12.707  19.027  0.00  0.00    +0.000 HD
ATOM     31  H   UNL     1      -0.359  12.182  18.997  0.00  0.00    +0.000 HD
ENDBRANCH   6  29
TORSDOF 6
ENDMDL
MODEL 6
REMARK VINA RESULT:      -8.5      2.184      3.436
REMARK  Name = 
REMARK  8 active torsions:
REMARK  status: ('A' for Active; 'I' for Inactive)
REMARK    1  A    between atoms: C_1  and  C_2
REMARK    2  A    between atoms: C_2  and  C_3
REMARK    3  A    between atoms: C_2  and  N_4
REMARK    4  A    between atoms: C_6  and  C_7
REMARK    5  A    between atoms: C_9  and  C_10
REMARK    6  A    between atoms: C_15  and  C_16
REMARK    7  A    between atoms: C_16  and  N_17
REMARK    8  A    between atoms: C_26  and  N_27
REMARK                            x       y       z     vdW  Elec       q    Type
REMARK                         _______ _______ _______ _____ _____    ______ ____
ROOT
ATOM      1  C   UNL     1       0.124  10.006  19.932  0.00  0.00    +0.000 A 
ATOM      2  C   UNL     1       0.525   8.691  19.623  0.00  0.00    +0.000 A 
ATOM      3  C   UNL     1       1.321   7.952  20.504  0.00  0.00    +0.000 A 
ATOM      4  C   UNL     1       1.632   8.592  21.704  0.00  0.00    +0.000 A 
ATOM      5  N   UNL     1       1.255   9.846  22.050  0.00  0.00    +0.000 NA
ATOM      6  C   UNL     1       0.513  10.539  21.167  0.00  0.00    +0.000 A 
ENDROOT
BRANCH   3   7
ATOM      7  C   UNL     1       1.830   6.600  20.194  0.00  0.00    +0.000 A 
ATOM      8  C   UNL     1       1.724   5.530  21.095  0.00  0.00    +0.000 A 
ATOM      9  C   UNL     1       2.269   4.280  20.784  0.00  0.00    +0.000 A 
ATOM     10 CL   UNL     1       2.152   2.994  21.925  0.00  0.00    +0.000 Cl
ATOM     11  C   UNL     1       2.941   4.068  19.577  0.00  0.00    +0.000 A 
ATOM     12  C   UNL     1       3.058   5.107  18.652  0.00  0.00    +0.000 A 
ATOM     13  C   UNL     1       2.482   6.351  18.969  0.00  0.00    +0.000 A 
BRANCH  12  14
ATOM     14  C   UNL     1       3.884   4.969  17.391  0.00  0.00    +0.000 C 
BRANCH  14  15
ATOM     15  N   UNL     1       4.882   5.980  17.064  0.00  0.00    +0.000 NA
ATOM     16  C   UNL     1       5.148   6.247  15.647  0.00  0.00    +0.000 C 
ATOM     17  C   UNL     1       6.289   5.411  15.045  0.00  0.00    +0.000 C 
ATOM     18  O   UNL     1       7.484   5.489  15.834  0.00  0.00    +0.000 OA
ATOM     19  C   UNL     1       7.237   5.095  17.189  0.00  0.00    +0.000 C 
ATOM     20  C   UNL     1       6.130   5.940  17.830  0.00  0.00    +0.000 C 
ENDBRANCH  14  15
ENDBRANCH  12  14
ENDBRANCH   3   7
BRANCH   1  23
ATOM     21  N   UNL     1      -2.011  11.366  17.415  0.00  0.00    +0.000 N 
ATOM     22  C   UNL     1      -1.624  10.281  18.142  0.00  0.00    +0.000 A 
ATOM     23  C   UNL     1      -0.643  10.777  18.974  0.00  0.00    +0.000 A 
ATOM     24  N   UNL     1      -0.492  12.120  18.742  0.00  0.00    +0.000 NA
ATOM     25  N   UNL     1      -1.340  12.473  17.784  0.00  0.00    +0.000 NA
BRANCH  21  27
ATOM     26  C   UNL     1      -2.833  10.246  15.380  0.00  0.00    +0.000 C 
ATOM     27  C   UNL     1      -3.014  11.400  16.363  0.00  0.00    +0.000 C 
ATOM     28  C   UNL     1      -4.430  11.444  16.931  0.00  0.00    +0.000 C 
ENDBRANCH  21  27
ENDBRANCH   1  23
BRANCH   6  29
ATOM     29  N   UNL     1       0.266  11.856  21.539  0.00  0.00    +0.000 N 
ATOM     30  H   UNL     1       0.047  12.390  20.704  0.00  0.00    +0.000 HD
ATOM     31  H   UNL     1       1.026  12.248  22.088  0.00  0.00    +0.000 HD
ENDBRANCH   6  29
TORSDOF 6
ENDMDL
MODEL 7
REMARK VINA RESULT:      -8.5      2.699      3.289
REMARK  Name = 
REMARK  8 active torsions:
REMARK  status: ('A' for Active; 'I' for Inactive)
REMARK    1  A    between atoms: C_1  and  C_2
REMARK    2  A    between atoms: C_2  and  C_3
REMARK    3  A    between atoms: C_2  and  N_4
REMARK    4  A    between atoms: C_6  and  C_7
REMARK    5  A    between atoms: C_9  and  C_10
REMARK    6  A    between atoms: C_15  and  C_16
REMARK    7  A    between atoms: C_16  and  N_17
REMARK    8  A    between atoms: C_26  and  N_27
REMARK                            x       y       z     vdW  Elec       q    Type
REMARK                         _______ _______ _______ _____ _____    ______ ____
ROOT
ATOM      1  C   UNL     1      -0.643  11.374  18.737  0.00  0.00    +0.000 A 
ATOM      2  C   UNL     1      -0.102  10.078  18.859  0.00  0.00    +0.000 A 
ATOM      3  C   UNL     1       1.274   9.856  18.741  0.00  0.00    +0.000 A 
ATOM      4  C   UNL     1       2.048  11.001  18.551  0.00  0.00    +0.000 A 
ATOM      5  N   UNL     1       1.574  12.265  18.446  0.00  0.00    +0.000 NA
ATOM      6  C   UNL     1       0.242  12.440  18.536  0.00  0.00    +0.000 A 
ENDROOT
BRANCH   3   7
ATOM      7  C   UNL     1       1.882   8.510  18.785  0.00  0.00    +0.000 A 
ATOM      8  C   UNL     1       1.592   7.585  19.799  0.00  0.00    +0.000 A 
ATOM      9  C   UNL     1       2.232   6.342  19.834  0.00  0.00    +0.000 A 
ATOM     10 CL   UNL     1       1.880   5.240  21.110  0.00  0.00    +0.000 Cl
ATOM     11  C   UNL     1       3.183   5.995  18.870  0.00  0.00    +0.000 A 
ATOM     12  C   UNL     1       3.491   6.887  17.841  0.00  0.00    +0.000 A 
ATOM     13  C   UNL     1       2.819   8.123  17.806  0.00  0.00    +0.000 A 
BRANCH  12  14
ATOM     14  C   UNL     1       4.602   6.615  16.850  0.00  0.00    +0.000 C 
BRANCH  14  15
ATOM     15  N   UNL     1       5.054   5.247  16.626  0.00  0.00    +0.000 NA
ATOM     16  C   UNL     1       5.909   4.633  17.646  0.00  0.00    +0.000 C 
ATOM     17  C   UNL     1       7.417   4.811  17.404  0.00  0.00    +0.000 C 
ATOM     18  O   UNL     1       7.798   4.413  16.081  0.00  0.00    +0.000 OA
ATOM     19  C   UNL     1       7.045   5.121  15.089  0.00  0.00    +0.000 C 
ATOM     20  C   UNL     1       5.536   4.928  15.280  0.00  0.00    +0.000 C 
ENDBRANCH  14  15
ENDBRANCH  12  14
ENDBRANCH   3   7
BRANCH   1  23
ATOM     21  N   UNL     1      -4.190  11.527  18.367  0.00  0.00    +0.000 N 
ATOM     22  C   UNL     1      -3.002  11.018  17.937  0.00  0.00    +0.000 A 
ATOM     23  C   UNL     1      -2.077  11.572  18.795  0.00  0.00    +0.000 A 
ATOM     24  N   UNL     1      -2.727  12.360  19.710  0.00  0.00    +0.000 NA
ATOM     25  N   UNL     1      -4.026  12.323  19.440  0.00  0.00    +0.000 NA
BRANCH  21  27
ATOM     26  C   UNL     1      -6.402  10.511  18.756  0.00  0.00    +0.000 C 
ATOM     27  C   UNL     1      -5.504  11.284  17.793  0.00  0.00    +0.000 C 
ATOM     28  C   UNL     1      -6.161  12.577  17.318  0.00  0.00    +0.000 C 
ENDBRANCH  21  27
ENDBRANCH   1  23
BRANCH   6  29
ATOM     29  N   UNL     1      -0.179  13.744  18.300  0.00  0.00    +0.000 N 
ATOM     30  H   UNL     1      -0.941  13.956  18.937  0.00  0.00    +0.000 HD
ATOM     31  H   UNL     1      -0.408  13.902  17.322  0.00  0.00    +0.000 HD
ENDBRANCH   6  29
TORSDOF 6
ENDMDL
MODEL 8
REMARK VINA RESULT:      -8.5      0.989      1.202
REMARK  Name = 
REMARK  8 active torsions:
REMARK  status: ('A' for Active; 'I' for Inactive)
REMARK    1  A    between atoms: C_1  and  C_2
REMARK    2  A    between atoms: C_2  and  C_3
REMARK    3  A    between atoms: C_2  and  N_4
REMARK    4  A    between atoms: C_6  and  C_7
REMARK    5  A    between atoms: C_9  and  C_10
REMARK    6  A    between atoms: C_15  and  C_16
REMARK    7  A    between atoms: C_16  and  N_17
REMARK    8  A    between atoms: C_26  and  N_27
REMARK                            x       y       z     vdW  Elec       q    Type
REMARK                         _______ _______ _______ _____ _____    ______ ____
ROOT
ATOM      1  C   UNL     1       0.776   9.926  20.186  0.00  0.00    +0.000 A 
ATOM      2  C   UNL     1       1.262   8.627  20.435  0.00  0.00    +0.000 A 
ATOM      3  C   UNL     1       1.950   7.912  19.449  0.00  0.00    +0.000 A 
ATOM      4  C   UNL     1       2.152   8.595  18.250  0.00  0.00    +0.000 A 
ATOM      5  N   UNL     1       1.718   9.848  17.973  0.00  0.00    +0.000 NA
ATOM      6  C   UNL     1       1.035  10.497  18.934  0.00  0.00    +0.000 A 
ENDROOT
BRANCH   3   7
ATOM      7  C   UNL     1       2.413   6.522  19.635  0.00  0.00    +0.000 A 
ATOM      8  C   UNL     1       1.618   5.535  20.236  0.00  0.00    +0.000 A 
ATOM      9  C   UNL     1       2.116   4.245  20.442  0.00  0.00    +0.000 A 
ATOM     10 CL   UNL     1       1.126   3.064  21.214  0.00  0.00    +0.000 Cl
ATOM     11  C   UNL     1       3.420   3.909  20.068  0.00  0.00    +0.000 A 
ATOM     12  C   UNL     1       4.238   4.862  19.458  0.00  0.00    +0.000 A 
ATOM     13  C   UNL     1       3.712   6.147  19.234  0.00  0.00    +0.000 A 
BRANCH  12  14
ATOM     14  C   UNL     1       5.695   4.589  19.151  0.00  0.00    +0.000 C 
BRANCH  14  15
ATOM     15  N   UNL     1       6.084   4.149  17.816  0.00  0.00    +0.000 NA
ATOM     16  C   UNL     1       7.381   4.593  17.299  0.00  0.00    +0.000 C 
ATOM     17  C   UNL     1       7.329   5.897  16.486  0.00  0.00    +0.000 C 
ATOM     18  O   UNL     1       6.335   5.845  15.454  0.00  0.00    +0.000 OA
ATOM     19  C   UNL     1       5.043   5.541  15.994  0.00  0.00    +0.000 C 
ATOM     20  C   UNL     1       5.055   4.223  16.777  0.00  0.00    +0.000 C 
ENDBRANCH  14  15
ENDBRANCH  12  14
ENDBRANCH   3   7
BRANCH   1  23
ATOM     21  N   UNL     1      -1.439  11.859  22.211  0.00  0.00    +0.000 N 
ATOM     22  C   UNL     1      -1.110  11.395  20.973  0.00  0.00    +0.000 A 
ATOM     23  C   UNL     1       0.008  10.622  21.199  0.00  0.00    +0.000 A 
ATOM     24  N   UNL     1       0.295  10.625  22.541  0.00  0.00    +0.000 NA
ATOM     25  N   UNL     1      -0.603  11.386  23.154  0.00  0.00    +0.000 NA
BRANCH  21  27
ATOM     26  C   UNL     1      -3.424  13.028  21.334  0.00  0.00    +0.000 C 
ATOM     27  C   UNL     1      -2.539  12.750  22.546  0.00  0.00    +0.000 C 
ATOM     28  C   UNL     1      -3.347  12.230  23.732  0.00  0.00    +0.000 C 
ENDBRANCH  21  27
ENDBRANCH   1  23
BRANCH   6  29
ATOM     29  N   UNL     1       0.520  11.727  18.538  0.00  0.00    +0.000 N 
ATOM     30  H   UNL     1       1.265  12.415  18.576  0.00  0.00    +0.000 HD
ATOM     31  H   UNL     1      -0.305  11.986  19.072  0.00  0.00    +0.000 HD
ENDBRANCH   6  29
TORSDOF 6
ENDMDL
MODEL 9
REMARK VINA RESULT:      -8.5      1.246      1.559
REMARK  Name = 
REMARK  8 active torsions:
REMARK  status: ('A' for Active; 'I' for Inactive)
REMARK    1  A    between atoms: C_1  and  C_2
REMARK    2  A    between atoms: C_2  and  C_3
REMARK    3  A    between atoms: C_2  and  N_4
REMARK    4  A    between atoms: C_6  and  C_7
REMARK    5  A    between atoms: C_9  and  C_10
REMARK    6  A    between atoms: C_15  and  C_16
REMARK    7  A    between atoms: C_16  and  N_17
REMARK    8  A    between atoms: C_26  and  N_27
REMARK                            x       y       z     vdW  Elec       q    Type
REMARK                         _______ _______ _______ _____ _____    ______ ____
ROOT
ATOM      1  C   UNL     1       1.087   9.522  19.925  0.00  0.00    +0.000 A 
ATOM      2  C   UNL     1       1.617   8.216  19.966  0.00  0.00    +0.000 A 
ATOM      3  C   UNL     1       2.192   7.634  18.832  0.00  0.00    +0.000 A 
ATOM      4  C   UNL     1       2.242   8.452  17.703  0.00  0.00    +0.000 A 
ATOM      5  N   UNL     1       1.762   9.716  17.623  0.00  0.00    +0.000 NA
ATOM      6  C   UNL     1       1.190  10.236  18.725  0.00  0.00    +0.000 A 
ENDROOT
BRANCH   3   7
ATOM      7  C   UNL     1       2.691   6.244  18.803  0.00  0.00    +0.000 A 
ATOM      8  C   UNL     1       1.842   5.141  18.628  0.00  0.00    +0.000 A 
ATOM      9  C   UNL     1       2.350   3.838  18.662  0.00  0.00    +0.000 A 
ATOM     10 CL   UNL     1       1.277   2.503  18.477  0.00  0.00    +0.000 Cl
ATOM     11  C   UNL     1       3.710   3.601  18.882  0.00  0.00    +0.000 A 
ATOM     12  C   UNL     1       4.586   4.675  19.052  0.00  0.00    +0.000 A 
ATOM     13  C   UNL     1       4.063   5.979  18.989  0.00  0.00    +0.000 A 
BRANCH  12  14
ATOM     14  C   UNL     1       6.040   4.472  19.421  0.00  0.00    +0.000 C 
BRANCH  14  15
ATOM     15  N   UNL     1       7.080   4.703  18.424  0.00  0.00    +0.000 NA
ATOM     16  C   UNL     1       7.819   5.967  18.487  0.00  0.00    +0.000 C 
ATOM     17  C   UNL     1       7.222   7.097  17.633  0.00  0.00    +0.000 C 
ATOM     18  O   UNL     1       6.992   6.682  16.280  0.00  0.00    +0.000 OA
ATOM     19  C   UNL     1       6.155   5.520  16.229  0.00  0.00    +0.000 C 
ATOM     20  C   UNL     1       6.747   4.362  17.040  0.00  0.00    +0.000 C 
ENDBRANCH  14  15
ENDBRANCH  12  14
ENDBRANCH   3   7
BRANCH   1  23
ATOM     21  N   UNL     1      -0.711  11.333  22.421  0.00  0.00    +0.000 N 
ATOM     22  C   UNL     1      -0.387  11.185  21.106  0.00  0.00    +0.000 A 
ATOM     23  C   UNL     1       0.436  10.080  21.093  0.00  0.00    +0.000 A 
ATOM     24  N   UNL     1       0.558   9.594  22.371  0.00  0.00    +0.000 NA
ATOM     25  N   UNL     1      -0.153  10.370  23.178  0.00  0.00    +0.000 NA
BRANCH  21  27
ATOM     26  C   UNL     1      -0.841  13.725  23.001  0.00  0.00    +0.000 C 
ATOM     27  C   UNL     1      -1.547  12.371  23.003  0.00  0.00    +0.000 C 
ATOM     28  C   UNL     1      -2.913  12.443  22.326  0.00  0.00    +0.000 C 
ENDBRANCH  21  27
ENDBRANCH   1  23
BRANCH   6  29
ATOM     29  N   UNL     1       0.616  11.488  18.534  0.00  0.00    +0.000 N 
ATOM     30  H   UNL     1       0.598  11.973  19.425  0.00  0.00    +0.000 HD
ATOM     31  H   UNL     1      -0.293  11.427  18.081  0.00  0.00    +0.000 HD
ENDBRANCH   6  29
TORSDOF 6
ENDMDL
