MODEL 1
REMARK VINA RESULT:      -6.9      0.000      0.000
REMARK  Name = 
REMARK  6 active torsions:
REMARK  status: ('A' for Active; 'I' for Inactive)
REMARK    1  A    between atoms: C_1  and  C_2
REMARK    2  A    between atoms: C_6  and  N_7
REMARK    3  A    between atoms: N_7  and  C_8
REMARK    4  A    between atoms: C_8  and  C_9
REMARK    5  A    between atoms: C_9  and  O_10
REMARK    6  A    between atoms: C_9  and  C_11
REMARK                            x       y       z     vdW  Elec       q    Type
REMARK                         _______ _______ _______ _____ _____    ______ ____
ROOT
ATOM      1  N   UNL     1       5.851   3.719  18.860  0.00  0.00    +0.000 N 
ATOM      2  H   UNL     1       6.264   2.904  18.408  0.00  0.00    +0.000 HD
ENDROOT
BRANCH   1   8
ATOM      3  C   UNL     1       1.300   4.224  17.634  0.00  0.00    +0.000 C 
ATOM      4  C   UNL     1       2.313   3.700  18.602  0.00  0.00    +0.000 A 
ATOM      5  C   UNL     1       1.937   2.889  19.666  0.00  0.00    +0.000 A 
ATOM      6  N   UNL     1       2.829   2.349  20.518  0.00  0.00    +0.000 NA
ATOM      7  C   UNL     1       4.126   2.639  20.242  0.00  0.00    +0.000 A 
ATOM      8  C   UNL     1       4.538   3.462  19.193  0.00  0.00    +0.000 A 
ATOM      9  N   UNL     1       3.617   4.010  18.372  0.00  0.00    +0.000 NA
ENDBRANCH   1   8
BRANCH   1  10
ATOM     10  C   UNL     1       6.315   5.043  18.456  0.00  0.00    +0.000 C 
BRANCH  10  11
ATOM     11  C   UNL     1       7.455   4.976  17.416  0.00  0.00    +0.000 C 
BRANCH  11  12
ATOM     12  C   UNL     1       6.965   4.690  16.039  0.00  0.00    +0.000 A 
ATOM     13  C   UNL     1       5.925   3.925  15.550  0.00  0.00    +0.000 A 
ATOM     14  C   UNL     1       5.984   4.029  14.139  0.00  0.00    +0.000 A 
ATOM     15  C   UNL     1       7.047   4.856  13.857  0.00  0.00    +0.000 A 
ATOM     16  O   UNL     1       7.645   5.267  15.004  0.00  0.00    +0.000 OA
ENDBRANCH  11  12
BRANCH  11  17
ATOM     17  O   UNL     1       8.407   3.967  17.755  0.00  0.00    +0.000 OA
ATOM     18  H   UNL     1       8.159   3.190  17.219  0.00  0.00    +0.000 HD
ENDBRANCH  11  17
ENDBRANCH  10  11
ENDBRANCH   1  10
TORSDOF 5
ENDMDL
MODEL 2
REMARK VINA RESULT:      -6.8      2.595      5.745
REMARK  Name = 
REMARK  6 active torsions:
REMARK  status: ('A' for Active; 'I' for Inactive)
REMARK    1  A    between atoms: C_1  and  C_2
REMARK    2  A    between atoms: C_6  and  N_7
REMARK    3  A    between atoms: N_7  and  C_8
REMARK    4  A    between atoms: C_8  and  C_9
REMARK    5  A    between atoms: C_9  and  O_10
REMARK    6  A    between atoms: C_9  and  C_11
REMARK                            x       y       z     vdW  Elec       q    Type
REMARK                         _______ _______ _______ _____ _____    ______ ____
ROOT
ATOM      1  N   UNL     1       3.837   5.526  18.804  0.00  0.00    +0.000 N 
ATOM      2  H   UNL     1       3.944   6.224  19.539  0.00  0.00    +0.000 HD
ENDROOT
BRANCH   1   8
ATOM      3  C   UNL     1       6.323   4.037  15.054  0.00  0.00    +0.000 C 
ATOM      4  C   UNL     1       6.298   4.427  16.497  0.00  0.00    +0.000 A 
ATOM      5  C   UNL     1       7.472   4.540  17.231  0.00  0.00    +0.000 A 
ATOM      6  N   UNL     1       7.490   4.951  18.514  0.00  0.00    +0.000 NA
ATOM      7  C   UNL     1       6.273   5.268  19.025  0.00  0.00    +0.000 A 
ATOM      8  C   UNL     1       5.073   5.151  18.323  0.00  0.00    +0.000 A 
ATOM      9  N   UNL     1       5.087   4.711  17.047  0.00  0.00    +0.000 NA
ENDBRANCH   1   8
BRANCH   1  10
ATOM     10  C   UNL     1       2.650   5.590  17.957  0.00  0.00    +0.000 C 
BRANCH  10  11
ATOM     11  C   UNL     1       1.777   4.322  18.068  0.00  0.00    +0.000 C 
BRANCH  11  12
ATOM     12  C   UNL     1       1.819   3.707  19.423  0.00  0.00    +0.000 A 
ATOM     13  C   UNL     1       0.945   3.725  20.492  0.00  0.00    +0.000 A 
ATOM     14  C   UNL     1       1.559   2.967  21.519  0.00  0.00    +0.000 A 
ATOM     15  C   UNL     1       2.759   2.529  21.011  0.00  0.00    +0.000 A 
ATOM     16  O   UNL     1       2.923   2.968  19.737  0.00  0.00    +0.000 OA
ENDBRANCH  11  12
BRANCH  11  17
ATOM     17  O   UNL     1       2.186   3.327  17.129  0.00  0.00    +0.000 OA
ATOM     18  H   UNL     1       1.532   2.609  17.213  0.00  0.00    +0.000 HD
ENDBRANCH  11  17
ENDBRANCH  10  11
ENDBRANCH   1  10
TORSDOF 5
ENDMDL
MODEL 3
REMARK VINA RESULT:      -6.8      1.084      1.128
REMARK  Name = 
REMARK  6 active torsions:
REMARK  status: ('A' for Active; 'I' for Inactive)
REMARK    1  A    between atoms: C_1  and  C_2
REMARK    2  A    between atoms: C_6  and  N_7
REMARK    3  A    between atoms: N_7  and  C_8
REMARK    4  A    between atoms: C_8  and  C_9
REMARK    5  A    between atoms: C_9  and  O_10
REMARK    6  A    between atoms: C_9  and  C_11
REMARK                            x       y       z     vdW  Elec       q    Type
REMARK                         _______ _______ _______ _____ _____    ______ ____
ROOT
ATOM      1  N   UNL     1       5.707   3.821  18.727  0.00  0.00    +0.000 N 
ATOM      2  H   UNL     1       5.743   3.061  18.048  0.00  0.00    +0.000 HD
ENDROOT
BRANCH   1   8
ATOM      3  C   UNL     1       1.837   5.956  20.438  0.00  0.00    +0.000 C 
ATOM      4  C   UNL     1       2.689   4.730  20.355  0.00  0.00    +0.000 A 
ATOM      5  C   UNL     1       2.276   3.530  20.918  0.00  0.00    +0.000 A 
ATOM      6  N   UNL     1       2.989   2.392  20.807  0.00  0.00    +0.000 NA
ATOM      7  C   UNL     1       4.131   2.506  20.082  0.00  0.00    +0.000 A 
ATOM      8  C   UNL     1       4.584   3.698  19.517  0.00  0.00    +0.000 A 
ATOM      9  N   UNL     1       3.860   4.827  19.669  0.00  0.00    +0.000 NA
ENDBRANCH   1   8
BRANCH   1  10
ATOM     10  C   UNL     1       6.262   5.116  18.344  0.00  0.00    +0.000 C 
BRANCH  10  11
ATOM     11  C   UNL     1       7.425   4.985  17.337  0.00  0.00    +0.000 C 
BRANCH  11  12
ATOM     12  C   UNL     1       6.963   4.684  15.955  0.00  0.00    +0.000 A 
ATOM     13  C   UNL     1       5.955   3.886  15.452  0.00  0.00    +0.000 A 
ATOM     14  C   UNL     1       6.028   3.994  14.042  0.00  0.00    +0.000 A 
ATOM     15  C   UNL     1       7.065   4.855  13.774  0.00  0.00    +0.000 A 
ATOM     16  O   UNL     1       7.635   5.285  14.929  0.00  0.00    +0.000 OA
ENDBRANCH  11  12
BRANCH  11  17
ATOM     17  O   UNL     1       8.332   3.951  17.725  0.00  0.00    +0.000 OA
ATOM     18  H   UNL     1       8.131   3.200  17.136  0.00  0.00    +0.000 HD
ENDBRANCH  11  17
ENDBRANCH  10  11
ENDBRANCH   1  10
TORSDOF 5
ENDMDL
MODEL 4
REMARK VINA RESULT:      -6.8      1.115      1.758
REMARK  Name = 
REMARK  6 active torsions:
REMARK  status: ('A' for Active; 'I' for Inactive)
REMARK    1  A    between atoms: C_1  and  C_2
REMARK    2  A    between atoms: C_6  and  N_7
REMARK    3  A    between atoms: N_7  and  C_8
REMARK    4  A    between atoms: C_8  and  C_9
REMARK    5  A    between atoms: C_9  and  O_10
REMARK    6  A    between atoms: C_9  and  C_11
REMARK                            x       y       z     vdW  Elec       q    Type
REMARK                         _______ _______ _______ _____ _____    ______ ____
ROOT
ATOM      1  N   UNL     1       5.046   4.888  18.999  0.00  0.00    +0.000 N 
ATOM      2  H   UNL     1       5.671   4.233  19.468  0.00  0.00    +0.000 HD
ENDROOT
BRANCH   1   8
ATOM      3  C   UNL     1       1.325   2.840  21.102  0.00  0.00    +0.000 C 
ATOM      4  C   UNL     1       1.979   3.320  19.845  0.00  0.00    +0.000 A 
ATOM      5  C   UNL     1       1.297   3.317  18.636  0.00  0.00    +0.000 A 
ATOM      6  N   UNL     1       1.833   3.802  17.498  0.00  0.00    +0.000 NA
ATOM      7  C   UNL     1       3.082   4.314  17.633  0.00  0.00    +0.000 A 
ATOM      8  C   UNL     1       3.803   4.319  18.828  0.00  0.00    +0.000 A 
ATOM      9  N   UNL     1       3.247   3.801  19.945  0.00  0.00    +0.000 NA
ENDBRANCH   1   8
BRANCH   1  10
ATOM     10  C   UNL     1       5.622   5.823  18.036  0.00  0.00    +0.000 C 
BRANCH  10  11
ATOM     11  C   UNL     1       6.924   5.288  17.401  0.00  0.00    +0.000 C 
BRANCH  11  12
ATOM     12  C   UNL     1       6.739   4.836  15.995  0.00  0.00    +0.000 A 
ATOM     13  C   UNL     1       5.936   3.876  15.413  0.00  0.00    +0.000 A 
ATOM     14  C   UNL     1       6.229   3.898  14.028  0.00  0.00    +0.000 A 
ATOM     15  C   UNL     1       7.183   4.874  13.851  0.00  0.00    +0.000 A 
ATOM     16  O   UNL     1       7.494   5.453  15.039  0.00  0.00    +0.000 OA
ENDBRANCH  11  12
BRANCH  11  17
ATOM     17  O   UNL     1       7.448   4.187  18.145  0.00  0.00    +0.000 OA
ATOM     18  H   UNL     1       8.388   4.402  18.294  0.00  0.00    +0.000 HD
ENDBRANCH  11  17
ENDBRANCH  10  11
ENDBRANCH   1  10
TORSDOF 5
ENDMDL
MODEL 5
REMARK VINA RESULT:      -6.7      1.423      1.950
REMARK  Name = 
REMARK  6 active torsions:
REMARK  status: ('A' for Active; 'I' for Inactive)
REMARK    1  A    between atoms: C_1  and  C_2
REMARK    2  A    between atoms: C_6  and  N_7
REMARK    3  A    between atoms: N_7  and  C_8
REMARK    4  A    between atoms: C_8  and  C_9
REMARK    5  A    between atoms: C_9  and  O_10
REMARK    6  A    between atoms: C_9  and  C_11
REMARK                            x       y       z     vdW  Elec       q    Type
REMARK                         _______ _______ _______ _____ _____    ______ ____
ROOT
ATOM      1  N   UNL     1       5.407   3.679  18.768  0.00  0.00    +0.000 N 
ATOM      2  H   UNL     1       5.928   3.342  17.959  0.00  0.00    +0.000 HD
ENDROOT
BRANCH   1   8
ATOM      3  C   UNL     1       1.510   2.756  21.303  0.00  0.00    +0.000 C 
ATOM      4  C   UNL     1       2.220   2.709  19.987  0.00  0.00    +0.000 A 
ATOM      5  C   UNL     1       1.563   2.310  18.831  0.00  0.00    +0.000 A 
ATOM      6  N   UNL     1       2.154   2.317  17.620  0.00  0.00    +0.000 NA
ATOM      7  C   UNL     1       3.434   2.768  17.616  0.00  0.00    +0.000 A 
ATOM      8  C   UNL     1       4.130   3.161  18.760  0.00  0.00    +0.000 A 
ATOM      9  N   UNL     1       3.518   3.117  19.962  0.00  0.00    +0.000 NA
ENDBRANCH   1   8
BRANCH   1  10
ATOM     10  C   UNL     1       5.712   5.013  19.278  0.00  0.00    +0.000 C 
BRANCH  10  11
ATOM     11  C   UNL     1       6.410   5.902  18.225  0.00  0.00    +0.000 C 
BRANCH  11  12
ATOM     12  C   UNL     1       6.210   5.414  16.833  0.00  0.00    +0.000 A 
ATOM     13  C   UNL     1       5.338   5.775  15.826  0.00  0.00    +0.000 A 
ATOM     14  C   UNL     1       5.621   4.922  14.731  0.00  0.00    +0.000 A 
ATOM     15  C   UNL     1       6.650   4.104  15.135  0.00  0.00    +0.000 A 
ATOM     16  O   UNL     1       7.019   4.399  16.407  0.00  0.00    +0.000 OA
ENDBRANCH  11  12
BRANCH  11  17
ATOM     17  O   UNL     1       7.816   5.976  18.460  0.00  0.00    +0.000 OA
ATOM     18  H   UNL     1       8.021   5.217  19.038  0.00  0.00    +0.000 HD
ENDBRANCH  11  17
ENDBRANCH  10  11
ENDBRANCH   1  10
TORSDOF 5
ENDMDL
MODEL 6
REMARK VINA RESULT:      -6.7      2.698      6.046
REMARK  Name = 
REMARK  6 active torsions:
REMARK  status: ('A' for Active; 'I' for Inactive)
REMARK    1  A    between atoms: C_1  and  C_2
REMARK    2  A    between atoms: C_6  and  N_7
REMARK    3  A    between atoms: N_7  and  C_8
REMARK    4  A    between atoms: C_8  and  C_9
REMARK    5  A    between atoms: C_9  and  O_10
REMARK    6  A    between atoms: C_9  and  C_11
REMARK                            x       y       z     vdW  Elec       q    Type
REMARK                         _______ _______ _______ _____ _____    ______ ____
ROOT
ATOM      1  N   UNL     1       4.580   4.653  17.787  0.00  0.00    +0.000 N 
ATOM      2  H   UNL     1       5.070   4.597  18.679  0.00  0.00    +0.000 HD
ENDROOT
BRANCH   1   8
ATOM      3  C   UNL     1       5.520   3.619  13.258  0.00  0.00    +0.000 C 
ATOM      4  C   UNL     1       5.955   4.252  14.542  0.00  0.00    +0.000 A 
ATOM      5  C   UNL     1       7.121   5.003  14.612  0.00  0.00    +0.000 A 
ATOM      6  N   UNL     1       7.508   5.639  15.735  0.00  0.00    +0.000 NA
ATOM      7  C   UNL     1       6.657   5.508  16.784  0.00  0.00    +0.000 A 
ATOM      8  C   UNL     1       5.487   4.748  16.754  0.00  0.00    +0.000 A 
ATOM      9  N   UNL     1       5.140   4.101  15.621  0.00  0.00    +0.000 NA
ENDBRANCH   1   8
BRANCH   1  10
ATOM     10  C   UNL     1       3.277   5.312  17.755  0.00  0.00    +0.000 C 
BRANCH  10  11
ATOM     11  C   UNL     1       2.107   4.310  17.867  0.00  0.00    +0.000 C 
BRANCH  11  12
ATOM     12  C   UNL     1       1.961   3.743  19.236  0.00  0.00    +0.000 A 
ATOM     13  C   UNL     1       0.906   3.690  20.125  0.00  0.00    +0.000 A 
ATOM     14  C   UNL     1       1.395   3.037  21.283  0.00  0.00    +0.000 A 
ATOM     15  C   UNL     1       2.709   2.725  21.025  0.00  0.00    +0.000 A 
ATOM     16  O   UNL     1       3.060   3.144  19.782  0.00  0.00    +0.000 OA
ENDBRANCH  11  12
BRANCH  11  17
ATOM     17  O   UNL     1       2.271   3.219  16.961  0.00  0.00    +0.000 OA
ATOM     18  H   UNL     1       2.861   2.591  17.419  0.00  0.00    +0.000 HD
ENDBRANCH  11  17
ENDBRANCH  10  11
ENDBRANCH   1  10
TORSDOF 5
ENDMDL
MODEL 7
REMARK VINA RESULT:      -6.7      2.850      6.081
REMARK  Name = 
REMARK  6 active torsions:
REMARK  status: ('A' for Active; 'I' for Inactive)
REMARK    1  A    between atoms: C_1  and  C_2
REMARK    2  A    between atoms: C_6  and  N_7
REMARK    3  A    between atoms: N_7  and  C_8
REMARK    4  A    between atoms: C_8  and  C_9
REMARK    5  A    between atoms: C_9  and  O_10
REMARK    6  A    between atoms: C_9  and  C_11
REMARK                            x       y       z     vdW  Elec       q    Type
REMARK                         _______ _______ _______ _____ _____    ______ ____
ROOT
ATOM      1  N   UNL     1       4.615   3.166  17.634  0.00  0.00    +0.000 N 
ATOM      2  H   UNL     1       4.847   2.694  18.507  0.00  0.00    +0.000 HD
ENDROOT
BRANCH   1   8
ATOM      3  C   UNL     1       8.094   5.827  19.444  0.00  0.00    +0.000 C 
ATOM      4  C   UNL     1       7.127   5.571  18.332  0.00  0.00    +0.000 A 
ATOM      5  C   UNL     1       7.170   6.312  17.159  0.00  0.00    +0.000 A 
ATOM      6  N   UNL     1       6.356   6.066  16.114  0.00  0.00    +0.000 NA
ATOM      7  C   UNL     1       5.507   5.021  16.289  0.00  0.00    +0.000 A 
ATOM      8  C   UNL     1       5.425   4.266  17.460  0.00  0.00    +0.000 A 
ATOM      9  N   UNL     1       6.237   4.556  18.499  0.00  0.00    +0.000 NA
ENDBRANCH   1   8
BRANCH   1  10
ATOM     10  C   UNL     1       3.228   3.130  17.177  0.00  0.00    +0.000 C 
BRANCH  10  11
ATOM     11  C   UNL     1       2.315   4.073  17.990  0.00  0.00    +0.000 C 
BRANCH  11  12
ATOM     12  C   UNL     1       2.081   3.595  19.381  0.00  0.00    +0.000 A 
ATOM     13  C   UNL     1       0.978   3.616  20.210  0.00  0.00    +0.000 A 
ATOM     14  C   UNL     1       1.388   3.030  21.432  0.00  0.00    +0.000 A 
ATOM     15  C   UNL     1       2.708   2.681  21.269  0.00  0.00    +0.000 A 
ATOM     16  O   UNL     1       3.136   3.015  20.025  0.00  0.00    +0.000 OA
ENDBRANCH  11  12
BRANCH  11  17
ATOM     17  O   UNL     1       1.040   4.225  17.364  0.00  0.00    +0.000 OA
ATOM     18  H   UNL     1       1.227   4.619  16.492  0.00  0.00    +0.000 HD
ENDBRANCH  11  17
ENDBRANCH  10  11
ENDBRANCH   1  10
TORSDOF 5
ENDMDL
MODEL 8
REMARK VINA RESULT:      -6.6      1.532      2.949
REMARK  Name = 
REMARK  6 active torsions:
REMARK  status: ('A' for Active; 'I' for Inactive)
REMARK    1  A    between atoms: C_1  and  C_2
REMARK    2  A    between atoms: C_6  and  N_7
REMARK    3  A    between atoms: N_7  and  C_8
REMARK    4  A    between atoms: C_8  and  C_9
REMARK    5  A    between atoms: C_9  and  O_10
REMARK    6  A    between atoms: C_9  and  C_11
REMARK                            x       y       z     vdW  Elec       q    Type
REMARK                         _______ _______ _______ _____ _____    ______ ____
ROOT
ATOM      1  N   UNL     1       4.939   3.162  17.120  0.00  0.00    +0.000 N 
ATOM      2  H   UNL     1       5.257   2.210  16.945  0.00  0.00    +0.000 HD
ENDROOT
BRANCH   1   8
ATOM      3  C   UNL     1       2.166   5.606  20.087  0.00  0.00    +0.000 C 
ATOM      4  C   UNL     1       2.444   4.332  19.354  0.00  0.00    +0.000 A 
ATOM      5  C   UNL     1       1.532   3.285  19.364  0.00  0.00    +0.000 A 
ATOM      6  N   UNL     1       1.722   2.150  18.663  0.00  0.00    +0.000 NA
ATOM      7  C   UNL     1       2.862   2.121  17.928  0.00  0.00    +0.000 A 
ATOM      8  C   UNL     1       3.807   3.147  17.907  0.00  0.00    +0.000 A 
ATOM      9  N   UNL     1       3.600   4.261  18.641  0.00  0.00    +0.000 NA
ENDBRANCH   1   8
BRANCH   1  10
ATOM     10  C   UNL     1       5.165   4.168  16.085  0.00  0.00    +0.000 C 
BRANCH  10  11
ATOM     11  C   UNL     1       6.653   4.557  15.956  0.00  0.00    +0.000 C 
BRANCH  11  12
ATOM     12  C   UNL     1       7.148   5.347  17.117  0.00  0.00    +0.000 A 
ATOM     13  C   UNL     1       7.460   6.681  17.283  0.00  0.00    +0.000 A 
ATOM     14  C   UNL     1       7.904   6.822  18.620  0.00  0.00    +0.000 A 
ATOM     15  C   UNL     1       7.826   5.571  19.187  0.00  0.00    +0.000 A 
ATOM     16  O   UNL     1       7.362   4.670  18.284  0.00  0.00    +0.000 OA
ENDBRANCH  11  12
BRANCH  11  17
ATOM     17  O   UNL     1       6.887   5.328  14.777  0.00  0.00    +0.000 OA
ATOM     18  H   UNL     1       7.666   5.879  14.980  0.00  0.00    +0.000 HD
ENDBRANCH  11  17
ENDBRANCH  10  11
ENDBRANCH   1  10
TORSDOF 5
ENDMDL
MODEL 9
REMARK VINA RESULT:      -6.6      1.327      1.908
REMARK  Name = 
REMARK  6 active torsions:
REMARK  status: ('A' for Active; 'I' for Inactive)
REMARK    1  A    between atoms: C_1  and  C_2
REMARK    2  A    between atoms: C_6  and  N_7
REMARK    3  A    between atoms: N_7  and  C_8
REMARK    4  A    between atoms: C_8  and  C_9
REMARK    5  A    between atoms: C_9  and  O_10
REMARK    6  A    between atoms: C_9  and  C_11
REMARK                            x       y       z     vdW  Elec       q    Type
REMARK                         _______ _______ _______ _____ _____    ______ ____
ROOT
ATOM      1  N   UNL     1       5.291   5.684  18.710  0.00  0.00    +0.000 N 
ATOM      2  H   UNL     1       5.740   5.310  19.546  0.00  0.00    +0.000 HD
ENDROOT
BRANCH   1   8
ATOM      3  C   UNL     1       3.404   1.344  18.457  0.00  0.00    +0.000 C 
ATOM      4  C   UNL     1       3.246   2.820  18.268  0.00  0.00    +0.000 A 
ATOM      5  C   UNL     1       2.016   3.374  17.942  0.00  0.00    +0.000 A 
ATOM      6  N   UNL     1       1.825   4.703  17.827  0.00  0.00    +0.000 NA
ATOM      7  C   UNL     1       2.925   5.458  18.079  0.00  0.00    +0.000 A 
ATOM      8  C   UNL     1       4.180   4.934  18.392  0.00  0.00    +0.000 A 
ATOM      9  N   UNL     1       4.344   3.597  18.473  0.00  0.00    +0.000 NA
ENDBRANCH   1   8
BRANCH   1  10
ATOM     10  C   UNL     1       6.134   6.311  17.696  0.00  0.00    +0.000 C 
BRANCH  10  11
ATOM     11  C   UNL     1       7.211   5.350  17.148  0.00  0.00    +0.000 C 
BRANCH  11  12
ATOM     12  C   UNL     1       6.907   4.864  15.773  0.00  0.00    +0.000 A 
ATOM     13  C   UNL     1       6.013   3.936  15.279  0.00  0.00    +0.000 A 
ATOM     14  C   UNL     1       6.214   3.897  13.878  0.00  0.00    +0.000 A 
ATOM     15  C   UNL     1       7.209   4.807  13.605  0.00  0.00    +0.000 A 
ATOM     16  O   UNL     1       7.631   5.404  14.749  0.00  0.00    +0.000 OA
ENDBRANCH  11  12
BRANCH  11  17
ATOM     17  O   UNL     1       7.359   4.205  17.988  0.00  0.00    +0.000 OA
ATOM     18  H   UNL     1       8.199   4.343  18.465  0.00  0.00    +0.000 HD
ENDBRANCH  11  17
ENDBRANCH  10  11
ENDBRANCH   1  10
TORSDOF 5
ENDMDL
