MODEL 1
REMARK VINA RESULT:      -8.5      0.000      0.000
REMARK  Name = 
REMARK  6 active torsions:
REMARK  status: ('A' for Active; 'I' for Inactive)
REMARK    1  A    between atoms: C_2  and  C_3
REMARK    2  A    between atoms: C_3  and  C_4
REMARK    3  A    between atoms: C_4  and  C_5
REMARK    4  A    between atoms: C_5  and  O_6
REMARK    5  A    between atoms: O_6  and  C_7
REMARK    6  A    between atoms: N_13  and  C_14
REMARK                            x       y       z     vdW  Elec       q    Type
REMARK                         _______ _______ _______ _____ _____    ______ ____
ROOT
ATOM      1  O   UNL     1       6.888   5.241  20.023  0.00  0.00    +0.000 OA
ATOM      2  C   UNL     1       6.794   5.147  18.824  0.00  0.00    +0.000 C 
ATOM      3  N   UNL     1       5.844   4.396  18.174  0.00  0.00    +0.000 N 
ATOM      4  H   UNL     1       6.117   4.266  17.203  0.00  0.00    +0.000 HD
ENDROOT
BRANCH   3   5
ATOM      5  C   UNL     1       4.530   3.635  18.526  0.00  0.00    +0.000 C 
ATOM      6  C   UNL     1       3.880   3.857  17.134  0.00  0.00    +0.000 C 
ATOM      7  C   UNL     1       2.420   3.732  16.780  0.00  0.00    +0.000 C 
ATOM      8  C   UNL     1       1.437   3.961  17.884  0.00  0.00    +0.000 C 
ATOM      9  C   UNL     1       1.960   3.572  19.230  0.00  0.00    +0.000 A 
ATOM     10  C   UNL     1       0.938   3.376  20.184  0.00  0.00    +0.000 A 
ATOM     11  C   UNL     1       1.220   2.829  21.426  0.00  0.00    +0.000 A 
ATOM     12  C   UNL     1       2.543   2.498  21.709  0.00  0.00    +0.000 A 
ATOM     13  C   UNL     1       3.583   2.766  20.786  0.00  0.00    +0.000 A 
ATOM     14  C   UNL     1       3.337   3.332  19.520  0.00  0.00    +0.000 A 
ENDBRANCH   3   5
BRANCH   2  15
ATOM     15  C   UNL     1       7.721   5.962  17.919  0.00  0.00    +0.000 C 
BRANCH  15  16
ATOM     16  C   UNL     1       7.422   7.460  17.672  0.00  0.00    +0.000 C 
BRANCH  16  17
ATOM     17  C   UNL     1       8.435   8.360  18.439  0.00  0.00    +0.000 C 
BRANCH  17  18
ATOM     18  O   UNL     1       8.403   9.731  18.034  0.00  0.00    +0.000 OA
BRANCH  18  19
ATOM     19  C   UNL     1       9.308  10.558  18.683  0.00  0.00    +0.000 A 
ATOM     20  C   UNL     1      10.242  11.237  17.883  0.00  0.00    +0.000 A 
ATOM     21  C   UNL     1      11.207  12.079  18.446  0.00  0.00    +0.000 A 
ATOM     22  C   UNL     1      11.252  12.273  19.822  0.00  0.00    +0.000 A 
ATOM     23  C   UNL     1      10.315  11.622  20.629  0.00  0.00    +0.000 A 
ATOM     24  C   UNL     1       9.348  10.775  20.064  0.00  0.00    +0.000 A 
ENDBRANCH  18  19
ENDBRANCH  17  18
ENDBRANCH  16  17
ENDBRANCH  15  16
ENDBRANCH   2  15
TORSDOF 6
ENDMDL
MODEL 2
REMARK VINA RESULT:      -8.3      4.134      7.045
REMARK  Name = 
REMARK  6 active torsions:
REMARK  status: ('A' for Active; 'I' for Inactive)
REMARK    1  A    between atoms: C_2  and  C_3
REMARK    2  A    between atoms: C_3  and  C_4
REMARK    3  A    between atoms: C_4  and  C_5
REMARK    4  A    between atoms: C_5  and  O_6
REMARK    5  A    between atoms: O_6  and  C_7
REMARK    6  A    between atoms: N_13  and  C_14
REMARK                            x       y       z     vdW  Elec       q    Type
REMARK                         _______ _______ _______ _____ _____    ______ ____
ROOT
ATOM      1  O   UNL     1       1.485   3.933  17.270  0.00  0.00    +0.000 OA
ATOM      2  C   UNL     1       1.928   3.440  18.279  0.00  0.00    +0.000 C 
ATOM      3  N   UNL     1       3.262   3.200  18.507  0.00  0.00    +0.000 N 
ATOM      4  H   UNL     1       3.365   2.561  19.291  0.00  0.00    +0.000 HD
ENDROOT
BRANCH   3   5
ATOM      5  C   UNL     1       4.632   3.566  17.858  0.00  0.00    +0.000 C 
ATOM      6  C   UNL     1       5.170   4.308  19.110  0.00  0.00    +0.000 C 
ATOM      7  C   UNL     1       6.316   5.286  19.166  0.00  0.00    +0.000 C 
ATOM      8  C   UNL     1       6.619   6.042  17.912  0.00  0.00    +0.000 C 
ATOM      9  C   UNL     1       6.294   5.277  16.669  0.00  0.00    +0.000 A 
ATOM     10  C   UNL     1       6.953   5.777  15.525  0.00  0.00    +0.000 A 
ATOM     11  C   UNL     1       6.923   5.082  14.326  0.00  0.00    +0.000 A 
ATOM     12  C   UNL     1       6.208   3.888  14.282  0.00  0.00    +0.000 A 
ATOM     13  C   UNL     1       5.480   3.422  15.404  0.00  0.00    +0.000 A 
ATOM     14  C   UNL     1       5.476   4.108  16.634  0.00  0.00    +0.000 A 
ENDBRANCH   3   5
BRANCH   2  15
ATOM     15  C   UNL     1       0.993   3.117  19.446  0.00  0.00    +0.000 C 
BRANCH  15  16
ATOM     16  C   UNL     1       1.328   3.646  20.861  0.00  0.00    +0.000 C 
BRANCH  16  17
ATOM     17  C   UNL     1       1.349   5.203  20.879  0.00  0.00    +0.000 C 
BRANCH  17  18
ATOM     18  O   UNL     1       2.534   5.765  20.309  0.00  0.00    +0.000 OA
BRANCH  18  19
ATOM     19  C   UNL     1       2.341   6.933  19.584  0.00  0.00    +0.000 A 
ATOM     20  C   UNL     1       2.952   7.011  18.322  0.00  0.00    +0.000 A 
ATOM     21  C   UNL     1       2.831   8.154  17.524  0.00  0.00    +0.000 A 
ATOM     22  C   UNL     1       2.085   9.241  17.964  0.00  0.00    +0.000 A 
ATOM     23  C   UNL     1       1.452   9.170  19.209  0.00  0.00    +0.000 A 
ATOM     24  C   UNL     1       1.575   8.023  20.010  0.00  0.00    +0.000 A 
ENDBRANCH  18  19
ENDBRANCH  17  18
ENDBRANCH  16  17
ENDBRANCH  15  16
ENDBRANCH   2  15
TORSDOF 6
ENDMDL
MODEL 3
REMARK VINA RESULT:      -8.2      1.484      2.121
REMARK  Name = 
REMARK  6 active torsions:
REMARK  status: ('A' for Active; 'I' for Inactive)
REMARK    1  A    between atoms: C_2  and  C_3
REMARK    2  A    between atoms: C_3  and  C_4
REMARK    3  A    between atoms: C_4  and  C_5
REMARK    4  A    between atoms: C_5  and  O_6
REMARK    5  A    between atoms: O_6  and  C_7
REMARK    6  A    between atoms: N_13  and  C_14
REMARK                            x       y       z     vdW  Elec       q    Type
REMARK                         _______ _______ _______ _____ _____    ______ ____
ROOT
ATOM      1  O   UNL     1       6.667   5.245  19.899  0.00  0.00    +0.000 OA
ATOM      2  C   UNL     1       6.605   5.661  18.768  0.00  0.00    +0.000 C 
ATOM      3  N   UNL     1       5.475   5.626  17.987  0.00  0.00    +0.000 N 
ATOM      4  H   UNL     1       5.726   5.789  17.015  0.00  0.00    +0.000 HD
ENDROOT
BRANCH   3   5
ATOM      5  C   UNL     1       3.954   5.331  18.164  0.00  0.00    +0.000 C 
ATOM      6  C   UNL     1       3.629   6.717  18.783  0.00  0.00    +0.000 C 
ATOM      7  C   UNL     1       2.406   7.093  19.580  0.00  0.00    +0.000 C 
ATOM      8  C   UNL     1       1.715   5.990  20.317  0.00  0.00    +0.000 C 
ATOM      9  C   UNL     1       1.840   4.662  19.642  0.00  0.00    +0.000 A 
ATOM     10  C   UNL     1       0.868   3.731  20.071  0.00  0.00    +0.000 A 
ATOM     11  C   UNL     1       0.711   2.517  19.420  0.00  0.00    +0.000 A 
ATOM     12  C   UNL     1       1.552   2.238  18.347  0.00  0.00    +0.000 A 
ATOM     13  C   UNL     1       2.581   3.133  17.964  0.00  0.00    +0.000 A 
ATOM     14  C   UNL     1       2.779   4.369  18.608  0.00  0.00    +0.000 A 
ENDBRANCH   3   5
BRANCH   2  15
ATOM     15  C   UNL     1       7.816   6.357  18.142  0.00  0.00    +0.000 C 
BRANCH  15  16
ATOM     16  C   UNL     1       7.597   7.534  17.162  0.00  0.00    +0.000 C 
BRANCH  16  17
ATOM     17  C   UNL     1       7.708   8.899  17.904  0.00  0.00    +0.000 C 
BRANCH  17  18
ATOM     18  O   UNL     1       8.786   8.954  18.842  0.00  0.00    +0.000 OA
BRANCH  18  19
ATOM     19  C   UNL     1       9.312  10.219  19.059  0.00  0.00    +0.000 A 
ATOM     20  C   UNL     1       9.458  10.630  20.395  0.00  0.00    +0.000 A 
ATOM     21  C   UNL     1       9.963  11.895  20.715  0.00  0.00    +0.000 A 
ATOM     22  C   UNL     1      10.345  12.774  19.709  0.00  0.00    +0.000 A 
ATOM     23  C   UNL     1      10.227  12.371  18.376  0.00  0.00    +0.000 A 
ATOM     24  C   UNL     1       9.720  11.102  18.054  0.00  0.00    +0.000 A 
ENDBRANCH  18  19
ENDBRANCH  17  18
ENDBRANCH  16  17
ENDBRANCH  15  16
ENDBRANCH   2  15
TORSDOF 6
ENDMDL
MODEL 4
REMARK VINA RESULT:      -8.2      1.552      1.961
REMARK  Name = 
REMARK  6 active torsions:
REMARK  status: ('A' for Active; 'I' for Inactive)
REMARK    1  A    between atoms: C_2  and  C_3
REMARK    2  A    between atoms: C_3  and  C_4
REMARK    3  A    between atoms: C_4  and  C_5
REMARK    4  A    between atoms: C_5  and  O_6
REMARK    5  A    between atoms: O_6  and  C_7
REMARK    6  A    between atoms: N_13  and  C_14
REMARK                            x       y       z     vdW  Elec       q    Type
REMARK                         _______ _______ _______ _____ _____    ______ ____
ROOT
ATOM      1  O   UNL     1       6.676   4.720  18.903  0.00  0.00    +0.000 OA
ATOM      2  C   UNL     1       6.421   5.631  18.154  0.00  0.00    +0.000 C 
ATOM      3  N   UNL     1       5.156   5.952  17.722  0.00  0.00    +0.000 N 
ATOM      4  H   UNL     1       5.217   6.572  16.918  0.00  0.00    +0.000 HD
ENDROOT
BRANCH   3   5
ATOM      5  C   UNL     1       3.684   5.574  18.067  0.00  0.00    +0.000 C 
ATOM      6  C   UNL     1       3.369   6.923  18.767  0.00  0.00    +0.000 C 
ATOM      7  C   UNL     1       2.232   7.214  19.715  0.00  0.00    +0.000 C 
ATOM      8  C   UNL     1       1.689   6.056  20.491  0.00  0.00    +0.000 C 
ATOM      9  C   UNL     1       1.797   4.755  19.762  0.00  0.00    +0.000 A 
ATOM     10  C   UNL     1       0.929   3.763  20.271  0.00  0.00    +0.000 A 
ATOM     11  C   UNL     1       0.754   2.561  19.604  0.00  0.00    +0.000 A 
ATOM     12  C   UNL     1       1.474   2.356  18.429  0.00  0.00    +0.000 A 
ATOM     13  C   UNL     1       2.404   3.313  17.958  0.00  0.00    +0.000 A 
ATOM     14  C   UNL     1       2.618   4.540  18.615  0.00  0.00    +0.000 A 
ENDBRANCH   3   5
BRANCH   2  15
ATOM     15  C   UNL     1       7.534   6.570  17.687  0.00  0.00    +0.000 C 
BRANCH  15  16
ATOM     16  C   UNL     1       7.247   8.084  17.549  0.00  0.00    +0.000 C 
BRANCH  16  17
ATOM     17  C   UNL     1       8.534   8.918  17.826  0.00  0.00    +0.000 C 
BRANCH  17  18
ATOM     18  O   UNL     1       8.320  10.020  18.712  0.00  0.00    +0.000 OA
BRANCH  18  19
ATOM     19  C   UNL     1       9.454  10.762  19.010  0.00  0.00    +0.000 A 
ATOM     20  C   UNL     1      10.292  11.111  17.937  0.00  0.00    +0.000 A 
ATOM     21  C   UNL     1      11.466  11.842  18.140  0.00  0.00    +0.000 A 
ATOM     22  C   UNL     1      11.826  12.254  19.417  0.00  0.00    +0.000 A 
ATOM     23  C   UNL     1      10.991  11.935  20.492  0.00  0.00    +0.000 A 
ATOM     24  C   UNL     1       9.812  11.200  20.290  0.00  0.00    +0.000 A 
ENDBRANCH  18  19
ENDBRANCH  17  18
ENDBRANCH  16  17
ENDBRANCH  15  16
ENDBRANCH   2  15
TORSDOF 6
ENDMDL
MODEL 5
REMARK VINA RESULT:      -8.1      0.707      1.094
REMARK  Name = 
REMARK  6 active torsions:
REMARK  status: ('A' for Active; 'I' for Inactive)
REMARK    1  A    between atoms: C_2  and  C_3
REMARK    2  A    between atoms: C_3  and  C_4
REMARK    3  A    between atoms: C_4  and  C_5
REMARK    4  A    between atoms: C_5  and  O_6
REMARK    5  A    between atoms: O_6  and  C_7
REMARK    6  A    between atoms: N_13  and  C_14
REMARK                            x       y       z     vdW  Elec       q    Type
REMARK                         _______ _______ _______ _____ _____    ______ ____
ROOT
ATOM      1  O   UNL     1       7.257   5.166  20.369  0.00  0.00    +0.000 OA
ATOM      2  C   UNL     1       7.054   5.431  19.210  0.00  0.00    +0.000 C 
ATOM      3  N   UNL     1       6.052   4.877  18.449  0.00  0.00    +0.000 N 
ATOM      4  H   UNL     1       6.235   5.052  17.464  0.00  0.00    +0.000 HD
ENDROOT
BRANCH   3   5
ATOM      5  C   UNL     1       4.780   4.003  18.668  0.00  0.00    +0.000 C 
ATOM      6  C   UNL     1       4.297   4.115  17.198  0.00  0.00    +0.000 C 
ATOM      7  C   UNL     1       2.911   3.837  16.671  0.00  0.00    +0.000 C 
ATOM      8  C   UNL     1       1.778   4.004  17.633  0.00  0.00    +0.000 C 
ATOM      9  C   UNL     1       2.159   3.712  19.049  0.00  0.00    +0.000 A 
ATOM     10  C   UNL     1       1.045   3.449  19.877  0.00  0.00    +0.000 A 
ATOM     11  C   UNL     1       1.216   2.973  21.167  0.00  0.00    +0.000 A 
ATOM     12  C   UNL     1       2.516   2.782  21.627  0.00  0.00    +0.000 A 
ATOM     13  C   UNL     1       3.637   3.119  20.829  0.00  0.00    +0.000 A 
ATOM     14  C   UNL     1       3.503   3.617  19.519  0.00  0.00    +0.000 A 
ENDBRANCH   3   5
BRANCH   2  15
ATOM     15  C   UNL     1       7.889   6.509  18.515  0.00  0.00    +0.000 C 
BRANCH  15  16
ATOM     16  C   UNL     1       7.185   7.572  17.638  0.00  0.00    +0.000 C 
BRANCH  16  17
ATOM     17  C   UNL     1       8.005   8.896  17.612  0.00  0.00    +0.000 C 
BRANCH  17  18
ATOM     18  O   UNL     1       8.609   9.220  18.867  0.00  0.00    +0.000 OA
BRANCH  18  19
ATOM     19  C   UNL     1       9.232  10.459  18.918  0.00  0.00    +0.000 A 
ATOM     20  C   UNL     1      10.075  10.706  20.014  0.00  0.00    +0.000 A 
ATOM     21  C   UNL     1      10.734  11.931  20.162  0.00  0.00    +0.000 A 
ATOM     22  C   UNL     1      10.575  12.934  19.213  0.00  0.00    +0.000 A 
ATOM     23  C   UNL     1       9.757  12.694  18.105  0.00  0.00    +0.000 A 
ATOM     24  C   UNL     1       9.095  11.465  17.956  0.00  0.00    +0.000 A 
ENDBRANCH  18  19
ENDBRANCH  17  18
ENDBRANCH  16  17
ENDBRANCH  15  16
ENDBRANCH   2  15
TORSDOF 6
ENDMDL
MODEL 6
REMARK VINA RESULT:      -8.1      1.739      2.463
REMARK  Name = 
REMARK  6 active torsions:
REMARK  status: ('A' for Active; 'I' for Inactive)
REMARK    1  A    between atoms: C_2  and  C_3
REMARK    2  A    between atoms: C_3  and  C_4
REMARK    3  A    between atoms: C_4  and  C_5
REMARK    4  A    between atoms: C_5  and  O_6
REMARK    5  A    between atoms: O_6  and  C_7
REMARK    6  A    between atoms: N_13  and  C_14
REMARK                            x       y       z     vdW  Elec       q    Type
REMARK                         _______ _______ _______ _____ _____    ______ ____
ROOT
ATOM      1  O   UNL     1       6.793   5.117  17.381  0.00  0.00    +0.000 OA
ATOM      2  C   UNL     1       6.360   6.238  17.273  0.00  0.00    +0.000 C 
ATOM      3  N   UNL     1       5.028   6.569  17.346  0.00  0.00    +0.000 N 
ATOM      4  H   UNL     1       4.888   7.506  16.976  0.00  0.00    +0.000 HD
ENDROOT
BRANCH   3   5
ATOM      5  C   UNL     1       3.687   5.888  17.756  0.00  0.00    +0.000 C 
ATOM      6  C   UNL     1       3.210   7.073  18.637  0.00  0.00    +0.000 C 
ATOM      7  C   UNL     1       2.139   7.045  19.699  0.00  0.00    +0.000 C 
ATOM      8  C   UNL     1       1.888   5.731  20.368  0.00  0.00    +0.000 C 
ATOM      9  C   UNL     1       2.151   4.557  19.480  0.00  0.00    +0.000 A 
ATOM     10  C   UNL     1       1.527   3.374  19.931  0.00  0.00    +0.000 A 
ATOM     11  C   UNL     1       1.501   2.237  19.138  0.00  0.00    +0.000 A 
ATOM     12  C   UNL     1       2.126   2.294  17.895  0.00  0.00    +0.000 A 
ATOM     13  C   UNL     1       2.822   3.453  17.472  0.00  0.00    +0.000 A 
ATOM     14  C   UNL     1       2.880   4.621  18.255  0.00  0.00    +0.000 A 
ENDBRANCH   3   5
BRANCH   2  15
ATOM     15  C   UNL     1       7.324   7.418  17.122  0.00  0.00    +0.000 C 
BRANCH  15  16
ATOM     16  C   UNL     1       8.170   7.871  18.335  0.00  0.00    +0.000 C 
BRANCH  16  17
ATOM     17  C   UNL     1       8.438   9.404  18.280  0.00  0.00    +0.000 C 
BRANCH  17  18
ATOM     18  O   UNL     1       9.213   9.889  19.379  0.00  0.00    +0.000 OA
BRANCH  18  19
ATOM     19  C   UNL     1      10.070  10.938  19.077  0.00  0.00    +0.000 A 
ATOM     20  C   UNL     1      10.650  11.622  20.159  0.00  0.00    +0.000 A 
ATOM     21  C   UNL     1      11.513  12.704  19.956  0.00  0.00    +0.000 A 
ATOM     22  C   UNL     1      11.827  13.121  18.668  0.00  0.00    +0.000 A 
ATOM     23  C   UNL     1      11.275  12.436  17.581  0.00  0.00    +0.000 A 
ATOM     24  C   UNL     1      10.408  11.350  17.784  0.00  0.00    +0.000 A 
ENDBRANCH  18  19
ENDBRANCH  17  18
ENDBRANCH  16  17
ENDBRANCH  15  16
ENDBRANCH   2  15
TORSDOF 6
ENDMDL
MODEL 7
REMARK VINA RESULT:      -8.0      3.195      5.350
REMARK  Name = 
REMARK  6 active torsions:
REMARK  status: ('A' for Active; 'I' for Inactive)
REMARK    1  A    between atoms: C_2  and  C_3
REMARK    2  A    between atoms: C_3  and  C_4
REMARK    3  A    between atoms: C_4  and  C_5
REMARK    4  A    between atoms: C_5  and  O_6
REMARK    5  A    between atoms: O_6  and  C_7
REMARK    6  A    between atoms: N_13  and  C_14
REMARK                            x       y       z     vdW  Elec       q    Type
REMARK                         _______ _______ _______ _____ _____    ______ ____
ROOT
ATOM      1  O   UNL     1       6.806   5.075  20.135  0.00  0.00    +0.000 OA
ATOM      2  C   UNL     1       6.773   4.855  18.949  0.00  0.00    +0.000 C 
ATOM      3  N   UNL     1       5.834   4.066  18.329  0.00  0.00    +0.000 N 
ATOM      4  H   UNL     1       6.153   3.825  17.394  0.00  0.00    +0.000 HD
ENDROOT
BRANCH   3   5
ATOM      5  C   UNL     1       4.478   3.384  18.685  0.00  0.00    +0.000 C 
ATOM      6  C   UNL     1       3.867   3.575  17.271  0.00  0.00    +0.000 C 
ATOM      7  C   UNL     1       2.410   3.503  16.891  0.00  0.00    +0.000 C 
ATOM      8  C   UNL     1       1.417   3.827  17.963  0.00  0.00    +0.000 C 
ATOM      9  C   UNL     1       1.895   3.474  19.335  0.00  0.00    +0.000 A 
ATOM     10  C   UNL     1       0.846   3.369  20.275  0.00  0.00    +0.000 A 
ATOM     11  C   UNL     1       1.076   2.865  21.545  0.00  0.00    +0.000 A 
ATOM     12  C   UNL     1       2.376   2.484  21.870  0.00  0.00    +0.000 A 
ATOM     13  C   UNL     1       3.446   2.661  20.960  0.00  0.00    +0.000 A 
ATOM     14  C   UNL     1       3.252   3.182  19.665  0.00  0.00    +0.000 A 
ENDBRANCH   3   5
BRANCH   2  15
ATOM     15  C   UNL     1       7.773   5.542  18.017  0.00  0.00    +0.000 C 
BRANCH  15  16
ATOM     16  C   UNL     1       7.436   6.932  17.426  0.00  0.00    +0.000 C 
BRANCH  16  17
ATOM     17  C   UNL     1       6.622   6.788  16.106  0.00  0.00    +0.000 C 
BRANCH  17  18
ATOM     18  O   UNL     1       6.211   5.447  15.832  0.00  0.00    +0.000 OA
BRANCH  18  19
ATOM     19  C   UNL     1       6.504   4.992  14.554  0.00  0.00    +0.000 A 
ATOM     20  C   UNL     1       5.635   4.037  13.999  0.00  0.00    +0.000 A 
ATOM     21  C   UNL     1       5.857   3.505  12.725  0.00  0.00    +0.000 A 
ATOM     22  C   UNL     1       6.945   3.924  11.969  0.00  0.00    +0.000 A 
ATOM     23  C   UNL     1       7.806   4.890  12.498  0.00  0.00    +0.000 A 
ATOM     24  C   UNL     1       7.584   5.424  13.777  0.00  0.00    +0.000 A 
ENDBRANCH  18  19
ENDBRANCH  17  18
ENDBRANCH  16  17
ENDBRANCH  15  16
ENDBRANCH   2  15
TORSDOF 6
ENDMDL
MODEL 8
REMARK VINA RESULT:      -8.0      4.254      7.127
REMARK  Name = 
REMARK  6 active torsions:
REMARK  status: ('A' for Active; 'I' for Inactive)
REMARK    1  A    between atoms: C_2  and  C_3
REMARK    2  A    between atoms: C_3  and  C_4
REMARK    3  A    between atoms: C_4  and  C_5
REMARK    4  A    between atoms: C_5  and  O_6
REMARK    5  A    between atoms: O_6  and  C_7
REMARK    6  A    between atoms: N_13  and  C_14
REMARK                            x       y       z     vdW  Elec       q    Type
REMARK                         _______ _______ _______ _____ _____    ______ ____
ROOT
ATOM      1  O   UNL     1       1.528   3.825  17.274  0.00  0.00    +0.000 OA
ATOM      2  C   UNL     1       1.982   3.364  18.292  0.00  0.00    +0.000 C 
ATOM      3  N   UNL     1       3.322   3.166  18.528  0.00  0.00    +0.000 N 
ATOM      4  H   UNL     1       3.441   2.544  19.324  0.00  0.00    +0.000 HD
ENDROOT
BRANCH   3   5
ATOM      5  C   UNL     1       4.682   3.559  17.875  0.00  0.00    +0.000 C 
ATOM      6  C   UNL     1       5.198   4.332  19.118  0.00  0.00    +0.000 C 
ATOM      7  C   UNL     1       6.318   5.341  19.163  0.00  0.00    +0.000 C 
ATOM      8  C   UNL     1       6.603   6.088  17.898  0.00  0.00    +0.000 C 
ATOM      9  C   UNL     1       6.300   5.297  16.666  0.00  0.00    +0.000 A 
ATOM     10  C   UNL     1       6.948   5.799  15.515  0.00  0.00    +0.000 A 
ATOM     11  C   UNL     1       6.938   5.087  14.327  0.00  0.00    +0.000 A 
ATOM     12  C   UNL     1       6.255   3.873  14.298  0.00  0.00    +0.000 A 
ATOM     13  C   UNL     1       5.538   3.404  15.425  0.00  0.00    +0.000 A 
ATOM     14  C   UNL     1       5.514   4.107  16.645  0.00  0.00    +0.000 A 
ENDBRANCH   3   5
BRANCH   2  15
ATOM     15  C   UNL     1       1.053   3.035  19.463  0.00  0.00    +0.000 C 
BRANCH  15  16
ATOM     16  C   UNL     1       0.842   4.078  20.586  0.00  0.00    +0.000 C 
BRANCH  16  17
ATOM     17  C   UNL     1       2.059   5.046  20.676  0.00  0.00    +0.000 C 
BRANCH  17  18
ATOM     18  O   UNL     1       1.691   6.404  20.933  0.00  0.00    +0.000 OA
BRANCH  18  19
ATOM     19  C   UNL     1       1.893   7.279  19.875  0.00  0.00    +0.000 A 
ATOM     20  C   UNL     1       1.276   8.538  19.960  0.00  0.00    +0.000 A 
ATOM     21  C   UNL     1       1.407   9.482  18.935  0.00  0.00    +0.000 A 
ATOM     22  C   UNL     1       2.167   9.194  17.808  0.00  0.00    +0.000 A 
ATOM     23  C   UNL     1       2.805   7.954  17.720  0.00  0.00    +0.000 A 
ATOM     24  C   UNL     1       2.674   7.006  18.747  0.00  0.00    +0.000 A 
ENDBRANCH  18  19
ENDBRANCH  17  18
ENDBRANCH  16  17
ENDBRANCH  15  16
ENDBRANCH   2  15
TORSDOF 6
ENDMDL
MODEL 9
REMARK VINA RESULT:      -7.9      3.866      7.047
REMARK  Name = 
REMARK  6 active torsions:
REMARK  status: ('A' for Active; 'I' for Inactive)
REMARK    1  A    between atoms: C_2  and  C_3
REMARK    2  A    between atoms: C_3  and  C_4
REMARK    3  A    between atoms: C_4  and  C_5
REMARK    4  A    between atoms: C_5  and  O_6
REMARK    5  A    between atoms: O_6  and  C_7
REMARK    6  A    between atoms: N_13  and  C_14
REMARK                            x       y       z     vdW  Elec       q    Type
REMARK                         _______ _______ _______ _____ _____    ______ ____
ROOT
ATOM      1  O   UNL     1       4.837   1.790  20.384  0.00  0.00    +0.000 OA
ATOM      2  C   UNL     1       4.100   2.693  20.073  0.00  0.00    +0.000 C 
ATOM      3  N   UNL     1       4.426   3.696  19.192  0.00  0.00    +0.000 N 
ATOM      4  H   UNL     1       3.763   4.462  19.285  0.00  0.00    +0.000 HD
ENDROOT
BRANCH   3   5
ATOM      5  C   UNL     1       5.557   4.014  18.167  0.00  0.00    +0.000 C 
ATOM      6  C   UNL     1       6.289   5.020  19.097  0.00  0.00    +0.000 C 
ATOM      7  C   UNL     1       7.301   6.062  18.693  0.00  0.00    +0.000 C 
ATOM      8  C   UNL     1       7.217   6.576  17.291  0.00  0.00    +0.000 C 
ATOM      9  C   UNL     1       6.697   5.563  16.322  0.00  0.00    +0.000 A 
ATOM     10  C   UNL     1       7.010   5.871  14.980  0.00  0.00    +0.000 A 
ATOM     11  C   UNL     1       6.777   4.954  13.967  0.00  0.00    +0.000 A 
ATOM     12  C   UNL     1       6.208   3.731  14.311  0.00  0.00    +0.000 A 
ATOM     13  C   UNL     1       5.818   3.449  15.643  0.00  0.00    +0.000 A 
ATOM     14  C   UNL     1       6.027   4.360  16.696  0.00  0.00    +0.000 A 
ENDBRANCH   3   5
BRANCH   2  15
ATOM     15  C   UNL     1       2.665   2.725  20.604  0.00  0.00    +0.000 C 
BRANCH  15  16
ATOM     16  C   UNL     1       2.179   3.949  21.416  0.00  0.00    +0.000 C 
BRANCH  16  17
ATOM     17  C   UNL     1       1.675   5.077  20.467  0.00  0.00    +0.000 C 
BRANCH  17  18
ATOM     18  O   UNL     1       2.683   6.035  20.133  0.00  0.00    +0.000 OA
BRANCH  18  19
ATOM     19  C   UNL     1       2.206   7.248  19.657  0.00  0.00    +0.000 A 
ATOM     20  C   UNL     1       2.455   7.549  18.307  0.00  0.00    +0.000 A 
ATOM     21  C   UNL     1       2.030   8.755  17.740  0.00  0.00    +0.000 A 
ATOM     22  C   UNL     1       1.334   9.684  18.505  0.00  0.00    +0.000 A 
ATOM     23  C   UNL     1       1.059   9.389  19.844  0.00  0.00    +0.000 A 
ATOM     24  C   UNL     1       1.487   8.179  20.414  0.00  0.00    +0.000 A 
ENDBRANCH  18  19
ENDBRANCH  17  18
ENDBRANCH  16  17
ENDBRANCH  15  16
ENDBRANCH   2  15
TORSDOF 6
ENDMDL
