MODEL 1
REMARK VINA RESULT:      -9.3      0.000      0.000
REMARK  Name = 
REMARK  10 active torsions:
REMARK  status: ('A' for Active; 'I' for Inactive)
REMARK    1  A    between atoms: C_1  and  C_2
REMARK    2  A    between atoms: C_4  and  N_5
REMARK    3  A    between atoms: N_5  and  C_6
REMARK    4  A    between atoms: N_5  and  C_7
REMARK    5  A    between atoms: C_7  and  C_8
REMARK    6  A    between atoms: C_18  and  N_19
REMARK    7  A    between atoms: C_20  and  C_22
REMARK    8  A    between atoms: C_22  and  O_23
REMARK    9  A    between atoms: O_23  and  C_24
REMARK   10  A    between atoms: C_27  and  C_28
REMARK                            x       y       z     vdW  Elec       q    Type
REMARK                         _______ _______ _______ _____ _____    ______ ____
ROOT
ATOM      1  C   UNL     1      -0.085   9.500  23.006  0.00  0.00    +0.000 C 
ATOM      2  C   UNL     1       0.111   9.909  21.575  0.00  0.00    +0.000 A 
ATOM      3  C   UNL     1      -0.531  11.060  21.104  0.00  0.00    +0.000 A 
ATOM      4  C   UNL     1      -0.450  11.419  19.761  0.00  0.00    +0.000 A 
ATOM      5  N   UNL     1       0.297  10.680  18.904  0.00  0.00    +0.000 NA
ATOM      6  C   UNL     1       0.936   9.575  19.337  0.00  0.00    +0.000 A 
ATOM      7  C   UNL     1       1.664   8.804  18.427  0.00  0.00    +0.000 A 
ATOM      8  C   UNL     1       2.272   7.594  18.791  0.00  0.00    +0.000 A 
ATOM      9  C   UNL     1       2.197   7.158  20.106  0.00  0.00    +0.000 A 
ATOM     10  C   UNL     1       1.514   7.928  21.044  0.00  0.00    +0.000 A 
ATOM     11  C   UNL     1       0.865   9.130  20.671  0.00  0.00    +0.000 A 
ENDROOT
BRANCH   9  12
ATOM     12  N   UNL     1       2.713   5.906  20.498  0.00  0.00    +0.000 N 
ATOM     13  C   UNL     1       1.852   4.819  20.644  0.00  0.00    +0.000 C 
ATOM     14  O   UNL     1       0.664   4.821  20.334  0.00  0.00    +0.000 OA
ATOM     15  H   UNL     1       3.442   5.933  21.204  0.00  0.00    +0.000 HD
BRANCH  13  16
ATOM     16  C   UNL     1       2.527   3.585  21.246  0.00  0.00    +0.000 C 
BRANCH  16  17
ATOM     17  O   UNL     1       2.796   2.674  20.189  0.00  0.00    +0.000 OA
BRANCH  17  18
ATOM     18  C   UNL     1       3.397   3.165  19.062  0.00  0.00    +0.000 A 
ATOM     19  C   UNL     1       4.717   3.574  19.248  0.00  0.00    +0.000 A 
ATOM     20  C   UNL     1       5.468   4.081  18.179  0.00  0.00    +0.000 A 
ATOM     21  C   UNL     1       4.907   4.165  16.902  0.00  0.00    +0.000 A 
ATOM     22  C   UNL     1       3.583   3.739  16.714  0.00  0.00    +0.000 A 
ATOM     23  C   UNL     1       2.828   3.239  17.785  0.00  0.00    +0.000 A 
BRANCH  21  24
ATOM     24  C   UNL     1       5.715   4.696  15.735  0.00  0.00    +0.000 C 
ATOM     25  F   UNL     1       5.171   4.399  14.525  0.00  0.00    +0.000 F 
ATOM     26  F   UNL     1       5.840   6.049  15.768  0.00  0.00    +0.000 F 
ATOM     27  F   UNL     1       6.980   4.200  15.709  0.00  0.00    +0.000 F 
ENDBRANCH  21  24
ENDBRANCH  17  18
ENDBRANCH  16  17
ENDBRANCH  13  16
ENDBRANCH   9  12
BRANCH   4  28
ATOM     28  N   UNL     1      -1.238  12.470  19.275  0.00  0.00    +0.000 N 
ATOM     29  C   UNL     1      -0.487  13.600  18.746  0.00  0.00    +0.000 C 
BRANCH  28  30
ATOM     30  C   UNL     1      -2.464  12.802  20.017  0.00  0.00    +0.000 C 
BRANCH  30  31
ATOM     31  C   UNL     1      -3.719  12.256  19.356  0.00  0.00    +0.000 A 
ATOM     32  C   UNL     1      -3.610  11.466  18.199  0.00  0.00    +0.000 A 
ATOM     33  C   UNL     1      -4.750  10.980  17.554  0.00  0.00    +0.000 A 
ATOM     34  C   UNL     1      -6.015  11.260  18.067  0.00  0.00    +0.000 A 
ATOM     35  C   UNL     1      -6.138  11.996  19.242  0.00  0.00    +0.000 A 
ATOM     36  C   UNL     1      -4.998  12.480  19.888  0.00  0.00    +0.000 A 
ENDBRANCH  30  31
ENDBRANCH  28  30
ENDBRANCH   4  28
TORSDOF 8
ENDMDL
MODEL 2
REMARK VINA RESULT:      -9.0      0.766      1.353
REMARK  Name = 
REMARK  10 active torsions:
REMARK  status: ('A' for Active; 'I' for Inactive)
REMARK    1  A    between atoms: C_1  and  C_2
REMARK    2  A    between atoms: C_4  and  N_5
REMARK    3  A    between atoms: N_5  and  C_6
REMARK    4  A    between atoms: N_5  and  C_7
REMARK    5  A    between atoms: C_7  and  C_8
REMARK    6  A    between atoms: C_18  and  N_19
REMARK    7  A    between atoms: C_20  and  C_22
REMARK    8  A    between atoms: C_22  and  O_23
REMARK    9  A    between atoms: O_23  and  C_24
REMARK   10  A    between atoms: C_27  and  C_28
REMARK                            x       y       z     vdW  Elec       q    Type
REMARK                         _______ _______ _______ _____ _____    ______ ____
ROOT
ATOM      1  C   UNL     1      -0.169   9.156  22.625  0.00  0.00    +0.000 C 
ATOM      2  C   UNL     1       0.082   9.669  21.236  0.00  0.00    +0.000 A 
ATOM      3  C   UNL     1      -0.592  10.816  20.805  0.00  0.00    +0.000 A 
ATOM      4  C   UNL     1      -0.457  11.268  19.494  0.00  0.00    +0.000 A 
ATOM      5  N   UNL     1       0.373  10.625  18.636  0.00  0.00    +0.000 NA
ATOM      6  C   UNL     1       1.044   9.526  19.033  0.00  0.00    +0.000 A 
ATOM      7  C   UNL     1       1.860   8.854  18.119  0.00  0.00    +0.000 A 
ATOM      8  C   UNL     1       2.510   7.653  18.439  0.00  0.00    +0.000 A 
ATOM      9  C   UNL     1       2.386   7.127  19.718  0.00  0.00    +0.000 A 
ATOM     10  C   UNL     1       1.614   7.798  20.662  0.00  0.00    +0.000 A 
ATOM     11  C   UNL     1       0.925   8.990  20.330  0.00  0.00    +0.000 A 
ENDROOT
BRANCH   9  12
ATOM     12  N   UNL     1       2.946   5.879  20.057  0.00  0.00    +0.000 N 
ATOM     13  C   UNL     1       2.225   4.710  19.814  0.00  0.00    +0.000 C 
ATOM     14  O   UNL     1       1.163   4.658  19.199  0.00  0.00    +0.000 OA
ATOM     15  H   UNL     1       3.463   5.852  20.930  0.00  0.00    +0.000 HD
BRANCH  13  16
ATOM     16  C   UNL     1       2.880   3.458  20.399  0.00  0.00    +0.000 C 
BRANCH  16  17
ATOM     17  O   UNL     1       4.272   3.522  20.122  0.00  0.00    +0.000 OA
BRANCH  17  18
ATOM     18  C   UNL     1       4.655   3.728  18.824  0.00  0.00    +0.000 A 
ATOM     19  C   UNL     1       5.866   4.405  18.685  0.00  0.00    +0.000 A 
ATOM     20  C   UNL     1       6.396   4.672  17.416  0.00  0.00    +0.000 A 
ATOM     21  C   UNL     1       5.725   4.244  16.267  0.00  0.00    +0.000 A 
ATOM     22  C   UNL     1       4.513   3.550  16.411  0.00  0.00    +0.000 A 
ATOM     23  C   UNL     1       3.978   3.289  17.681  0.00  0.00    +0.000 A 
BRANCH  21  24
ATOM     24  C   UNL     1       6.297   4.512  14.890  0.00  0.00    +0.000 C 
ATOM     25  F   UNL     1       7.610   4.861  14.913  0.00  0.00    +0.000 F 
ATOM     26  F   UNL     1       6.213   3.425  14.077  0.00  0.00    +0.000 F 
ATOM     27  F   UNL     1       5.651   5.518  14.245  0.00  0.00    +0.000 F 
ENDBRANCH  21  24
ENDBRANCH  17  18
ENDBRANCH  16  17
ENDBRANCH  13  16
ENDBRANCH   9  12
BRANCH   4  28
ATOM     28  N   UNL     1      -1.272  12.309  19.032  0.00  0.00    +0.000 N 
ATOM     29  C   UNL     1      -0.551  13.436  18.454  0.00  0.00    +0.000 C 
BRANCH  28  30
ATOM     30  C   UNL     1      -2.464  12.646  19.825  0.00  0.00    +0.000 C 
BRANCH  30  31
ATOM     31  C   UNL     1      -3.754  12.165  19.184  0.00  0.00    +0.000 A 
ATOM     32  C   UNL     1      -4.983  12.418  19.817  0.00  0.00    +0.000 A 
ATOM     33  C   UNL     1      -6.181  11.957  19.264  0.00  0.00    +0.000 A 
ATOM     34  C   UNL     1      -6.170  11.253  18.062  0.00  0.00    +0.000 A 
ATOM     35  C   UNL     1      -4.966  11.039  17.397  0.00  0.00    +0.000 A 
ATOM     36  C   UNL     1      -3.769  11.502  17.947  0.00  0.00    +0.000 A 
ENDBRANCH  30  31
ENDBRANCH  28  30
ENDBRANCH   4  28
TORSDOF 8
ENDMDL
MODEL 3
REMARK VINA RESULT:      -8.9      1.243      3.221
REMARK  Name = 
REMARK  10 active torsions:
REMARK  status: ('A' for Active; 'I' for Inactive)
REMARK    1  A    between atoms: C_1  and  C_2
REMARK    2  A    between atoms: C_4  and  N_5
REMARK    3  A    between atoms: N_5  and  C_6
REMARK    4  A    between atoms: N_5  and  C_7
REMARK    5  A    between atoms: C_7  and  C_8
REMARK    6  A    between atoms: C_18  and  N_19
REMARK    7  A    between atoms: C_20  and  C_22
REMARK    8  A    between atoms: C_22  and  O_23
REMARK    9  A    between atoms: O_23  and  C_24
REMARK   10  A    between atoms: C_27  and  C_28
REMARK                            x       y       z     vdW  Elec       q    Type
REMARK                         _______ _______ _______ _____ _____    ______ ____
ROOT
ATOM      1  C   UNL     1      -0.161   9.379  22.900  0.00  0.00    +0.000 C 
ATOM      2  C   UNL     1       0.088   9.778  21.474  0.00  0.00    +0.000 A 
ATOM      3  C   UNL     1      -0.537  10.924  20.971  0.00  0.00    +0.000 A 
ATOM      4  C   UNL     1      -0.406  11.273  19.629  0.00  0.00    +0.000 A 
ATOM      5  N   UNL     1       0.374  10.529  18.807  0.00  0.00    +0.000 NA
ATOM      6  C   UNL     1       0.998   9.429  19.272  0.00  0.00    +0.000 A 
ATOM      7  C   UNL     1       1.762   8.652  18.395  0.00  0.00    +0.000 A 
ATOM      8  C   UNL     1       2.357   7.446  18.791  0.00  0.00    +0.000 A 
ATOM      9  C   UNL     1       2.233   7.020  20.106  0.00  0.00    +0.000 A 
ATOM     10  C   UNL     1       1.514   7.795  21.012  0.00  0.00    +0.000 A 
ATOM     11  C   UNL     1       0.878   8.993  20.605  0.00  0.00    +0.000 A 
ENDROOT
BRANCH   9  12
ATOM     12  N   UNL     1       2.737   5.772  20.526  0.00  0.00    +0.000 N 
ATOM     13  C   UNL     1       1.866   4.695  20.688  0.00  0.00    +0.000 C 
ATOM     14  O   UNL     1       0.679   4.700  20.371  0.00  0.00    +0.000 OA
ATOM     15  H   UNL     1       3.461   5.807  21.236  0.00  0.00    +0.000 HD
BRANCH  13  16
ATOM     16  C   UNL     1       2.526   3.468  21.319  0.00  0.00    +0.000 C 
BRANCH  16  17
ATOM     17  O   UNL     1       2.883   2.576  20.272  0.00  0.00    +0.000 OA
BRANCH  17  18
ATOM     18  C   UNL     1       3.393   3.114  19.122  0.00  0.00    +0.000 A 
ATOM     19  C   UNL     1       4.717   3.537  19.226  0.00  0.00    +0.000 A 
ATOM     20  C   UNL     1       5.381   4.091  18.124  0.00  0.00    +0.000 A 
ATOM     21  C   UNL     1       4.728   4.211  16.894  0.00  0.00    +0.000 A 
ATOM     22  C   UNL     1       3.399   3.771  16.789  0.00  0.00    +0.000 A 
ATOM     23  C   UNL     1       2.731   3.223  17.894  0.00  0.00    +0.000 A 
BRANCH  21  24
ATOM     24  C   UNL     1       5.441   4.793  15.691  0.00  0.00    +0.000 C 
ATOM     25  F   UNL     1       5.142   6.101  15.471  0.00  0.00    +0.000 F 
ATOM     26  F   UNL     1       6.794   4.735  15.816  0.00  0.00    +0.000 F 
ATOM     27  F   UNL     1       5.139   4.139  14.539  0.00  0.00    +0.000 F 
ENDBRANCH  21  24
ENDBRANCH  17  18
ENDBRANCH  16  17
ENDBRANCH  13  16
ENDBRANCH   9  12
BRANCH   4  28
ATOM     28  N   UNL     1      -1.177  12.319  19.106  0.00  0.00    +0.000 N 
ATOM     29  C   UNL     1      -2.550  11.959  18.779  0.00  0.00    +0.000 C 
BRANCH  28  30
ATOM     30  C   UNL     1      -0.518  13.255  18.182  0.00  0.00    +0.000 C 
BRANCH  30  31
ATOM     31  C   UNL     1       0.588  14.057  18.845  0.00  0.00    +0.000 A 
ATOM     32  C   UNL     1       1.923  13.864  18.450  0.00  0.00    +0.000 A 
ATOM     33  C   UNL     1       2.961  14.566  19.067  0.00  0.00    +0.000 A 
ATOM     34  C   UNL     1       2.680  15.485  20.075  0.00  0.00    +0.000 A 
ATOM     35  C   UNL     1       1.359  15.726  20.443  0.00  0.00    +0.000 A 
ATOM     36  C   UNL     1       0.320  15.027  19.824  0.00  0.00    +0.000 A 
ENDBRANCH  30  31
ENDBRANCH  28  30
ENDBRANCH   4  28
TORSDOF 8
ENDMDL
MODEL 4
REMARK VINA RESULT:      -8.8      1.248      3.113
REMARK  Name = 
REMARK  10 active torsions:
REMARK  status: ('A' for Active; 'I' for Inactive)
REMARK    1  A    between atoms: C_1  and  C_2
REMARK    2  A    between atoms: C_4  and  N_5
REMARK    3  A    between atoms: N_5  and  C_6
REMARK    4  A    between atoms: N_5  and  C_7
REMARK    5  A    between atoms: C_7  and  C_8
REMARK    6  A    between atoms: C_18  and  N_19
REMARK    7  A    between atoms: C_20  and  C_22
REMARK    8  A    between atoms: C_22  and  O_23
REMARK    9  A    between atoms: O_23  and  C_24
REMARK   10  A    between atoms: C_27  and  C_28
REMARK                            x       y       z     vdW  Elec       q    Type
REMARK                         _______ _______ _______ _____ _____    ______ ____
ROOT
ATOM      1  C   UNL     1      -0.194   9.389  22.906  0.00  0.00    +0.000 C 
ATOM      2  C   UNL     1       0.074   9.809  21.490  0.00  0.00    +0.000 A 
ATOM      3  C   UNL     1      -0.538  10.967  20.999  0.00  0.00    +0.000 A 
ATOM      4  C   UNL     1      -0.388  11.338  19.665  0.00  0.00    +0.000 A 
ATOM      5  N   UNL     1       0.397  10.603  18.839  0.00  0.00    +0.000 NA
ATOM      6  C   UNL     1       1.008   9.491  19.294  0.00  0.00    +0.000 A 
ATOM      7  C   UNL     1       1.777   8.724  18.414  0.00  0.00    +0.000 A 
ATOM      8  C   UNL     1       2.360   7.507  18.797  0.00  0.00    +0.000 A 
ATOM      9  C   UNL     1       2.218   7.060  20.102  0.00  0.00    +0.000 A 
ATOM     10  C   UNL     1       1.493   7.825  21.012  0.00  0.00    +0.000 A 
ATOM     11  C   UNL     1       0.869   9.034  20.618  0.00  0.00    +0.000 A 
ENDROOT
BRANCH   9  12
ATOM     12  N   UNL     1       2.708   5.802  20.508  0.00  0.00    +0.000 N 
ATOM     13  C   UNL     1       1.829   4.727  20.636  0.00  0.00    +0.000 C 
ATOM     14  O   UNL     1       0.648   4.745  20.300  0.00  0.00    +0.000 OA
ATOM     15  H   UNL     1       3.422   5.821  21.230  0.00  0.00    +0.000 HD
BRANCH  13  16
ATOM     16  C   UNL     1       2.473   3.485  21.255  0.00  0.00    +0.000 C 
BRANCH  16  17
ATOM     17  O   UNL     1       2.848   2.614  20.198  0.00  0.00    +0.000 OA
BRANCH  17  18
ATOM     18  C   UNL     1       3.572   3.141  19.163  0.00  0.00    +0.000 A 
ATOM     19  C   UNL     1       2.888   3.186  17.949  0.00  0.00    +0.000 A 
ATOM     20  C   UNL     1       3.494   3.717  16.804  0.00  0.00    +0.000 A 
ATOM     21  C   UNL     1       4.792   4.231  16.867  0.00  0.00    +0.000 A 
ATOM     22  C   UNL     1       5.474   4.198  18.094  0.00  0.00    +0.000 A 
ATOM     23  C   UNL     1       4.870   3.658  19.240  0.00  0.00    +0.000 A 
BRANCH  21  24
ATOM     24  C   UNL     1       5.452   4.824  15.639  0.00  0.00    +0.000 C 
ATOM     25  F   UNL     1       5.093   4.203  14.484  0.00  0.00    +0.000 F 
ATOM     26  F   UNL     1       5.141   6.136  15.470  0.00  0.00    +0.000 F 
ATOM     27  F   UNL     1       6.808   4.760  15.694  0.00  0.00    +0.000 F 
ENDBRANCH  21  24
ENDBRANCH  17  18
ENDBRANCH  16  17
ENDBRANCH  13  16
ENDBRANCH   9  12
BRANCH   4  28
ATOM     28  N   UNL     1      -1.146  12.397  19.150  0.00  0.00    +0.000 N 
ATOM     29  C   UNL     1      -2.497  12.037  18.740  0.00  0.00    +0.000 C 
BRANCH  28  30
ATOM     30  C   UNL     1      -0.455  13.380  18.300  0.00  0.00    +0.000 C 
BRANCH  30  31
ATOM     31  C   UNL     1      -0.031  14.623  19.063  0.00  0.00    +0.000 A 
ATOM     32  C   UNL     1       0.792  14.499  20.196  0.00  0.00    +0.000 A 
ATOM     33  C   UNL     1       1.170  15.624  20.933  0.00  0.00    +0.000 A 
ATOM     34  C   UNL     1       0.746  16.891  20.539  0.00  0.00    +0.000 A 
ATOM     35  C   UNL     1      -0.027  17.036  19.390  0.00  0.00    +0.000 A 
ATOM     36  C   UNL     1      -0.401  15.912  18.650  0.00  0.00    +0.000 A 
ENDBRANCH  30  31
ENDBRANCH  28  30
ENDBRANCH   4  28
TORSDOF 8
ENDMDL
MODEL 5
REMARK VINA RESULT:      -8.6      1.119      1.507
REMARK  Name = 
REMARK  10 active torsions:
REMARK  status: ('A' for Active; 'I' for Inactive)
REMARK    1  A    between atoms: C_1  and  C_2
REMARK    2  A    between atoms: C_4  and  N_5
REMARK    3  A    between atoms: N_5  and  C_6
REMARK    4  A    between atoms: N_5  and  C_7
REMARK    5  A    between atoms: C_7  and  C_8
REMARK    6  A    between atoms: C_18  and  N_19
REMARK    7  A    between atoms: C_20  and  C_22
REMARK    8  A    between atoms: C_22  and  O_23
REMARK    9  A    between atoms: O_23  and  C_24
REMARK   10  A    between atoms: C_27  and  C_28
REMARK                            x       y       z     vdW  Elec       q    Type
REMARK                         _______ _______ _______ _____ _____    ______ ____
ROOT
ATOM      1  C   UNL     1      -0.050   9.528  23.240  0.00  0.00    +0.000 C 
ATOM      2  C   UNL     1       0.132   9.959  21.814  0.00  0.00    +0.000 A 
ATOM      3  C   UNL     1      -0.491  11.132  21.374  0.00  0.00    +0.000 A 
ATOM      4  C   UNL     1      -0.423  11.513  20.037  0.00  0.00    +0.000 A 
ATOM      5  N   UNL     1       0.293  10.774  19.155  0.00  0.00    +0.000 NA
ATOM      6  C   UNL     1       0.914   9.647  19.557  0.00  0.00    +0.000 A 
ATOM      7  C   UNL     1       1.610   8.877  18.622  0.00  0.00    +0.000 A 
ATOM      8  C   UNL     1       2.196   7.647  18.954  0.00  0.00    +0.000 A 
ATOM      9  C   UNL     1       2.132   7.189  20.263  0.00  0.00    +0.000 A 
ATOM     10  C   UNL     1       1.481   7.956  21.225  0.00  0.00    +0.000 A 
ATOM     11  C   UNL     1       0.854   9.179  20.884  0.00  0.00    +0.000 A 
ENDROOT
BRANCH   9  12
ATOM     12  N   UNL     1       2.626   5.919  20.624  0.00  0.00    +0.000 N 
ATOM     13  C   UNL     1       1.761   4.826  20.659  0.00  0.00    +0.000 C 
ATOM     14  O   UNL     1       0.595   4.843  20.275  0.00  0.00    +0.000 OA
ATOM     15  H   UNL     1       3.309   5.911  21.375  0.00  0.00    +0.000 HD
BRANCH  13  16
ATOM     16  C   UNL     1       2.400   3.563  21.241  0.00  0.00    +0.000 C 
BRANCH  16  17
ATOM     17  O   UNL     1       2.627   2.656  20.171  0.00  0.00    +0.000 OA
BRANCH  17  18
ATOM     18  C   UNL     1       3.303   3.118  19.075  0.00  0.00    +0.000 A 
ATOM     19  C   UNL     1       4.632   3.458  19.324  0.00  0.00    +0.000 A 
ATOM     20  C   UNL     1       5.457   3.929  18.293  0.00  0.00    +0.000 A 
ATOM     21  C   UNL     1       4.960   4.045  16.992  0.00  0.00    +0.000 A 
ATOM     22  C   UNL     1       3.626   3.689  16.741  0.00  0.00    +0.000 A 
ATOM     23  C   UNL     1       2.798   3.225  17.774  0.00  0.00    +0.000 A 
BRANCH  21  24
ATOM     24  C   UNL     1       5.847   4.537  15.866  0.00  0.00    +0.000 C 
ATOM     25  F   UNL     1       5.526   5.786  15.436  0.00  0.00    +0.000 F 
ATOM     26  F   UNL     1       7.157   4.591  16.227  0.00  0.00    +0.000 F 
ATOM     27  F   UNL     1       5.790   3.736  14.770  0.00  0.00    +0.000 F 
ENDBRANCH  21  24
ENDBRANCH  17  18
ENDBRANCH  16  17
ENDBRANCH  13  16
ENDBRANCH   9  12
BRANCH   4  28
ATOM     28  N   UNL     1      -1.195  12.590  19.582  0.00  0.00    +0.000 N 
ATOM     29  C   UNL     1      -0.858  13.060  18.245  0.00  0.00    +0.000 C 
BRANCH  28  30
ATOM     30  C   UNL     1      -1.556  13.630  20.559  0.00  0.00    +0.000 C 
BRANCH  30  31
ATOM     31  C   UNL     1      -3.057  13.750  20.764  0.00  0.00    +0.000 A 
ATOM     32  C   UNL     1      -3.860  12.598  20.725  0.00  0.00    +0.000 A 
ATOM     33  C   UNL     1      -5.246  12.686  20.878  0.00  0.00    +0.000 A 
ATOM     34  C   UNL     1      -5.848  13.925  21.090  0.00  0.00    +0.000 A 
ATOM     35  C   UNL     1      -5.060  15.069  21.182  0.00  0.00    +0.000 A 
ATOM     36  C   UNL     1      -3.674  14.981  21.033  0.00  0.00    +0.000 A 
ENDBRANCH  30  31
ENDBRANCH  28  30
ENDBRANCH   4  28
TORSDOF 8
ENDMDL
MODEL 6
REMARK VINA RESULT:      -8.6      1.329      2.078
REMARK  Name = 
REMARK  10 active torsions:
REMARK  status: ('A' for Active; 'I' for Inactive)
REMARK    1  A    between atoms: C_1  and  C_2
REMARK    2  A    between atoms: C_4  and  N_5
REMARK    3  A    between atoms: N_5  and  C_6
REMARK    4  A    between atoms: N_5  and  C_7
REMARK    5  A    between atoms: C_7  and  C_8
REMARK    6  A    between atoms: C_18  and  N_19
REMARK    7  A    between atoms: C_20  and  C_22
REMARK    8  A    between atoms: C_22  and  O_23
REMARK    9  A    between atoms: O_23  and  C_24
REMARK   10  A    between atoms: C_27  and  C_28
REMARK                            x       y       z     vdW  Elec       q    Type
REMARK                         _______ _______ _______ _____ _____    ______ ____
ROOT
ATOM      1  C   UNL     1      -0.079   9.539  23.214  0.00  0.00    +0.000 C 
ATOM      2  C   UNL     1      -0.014  10.053  21.804  0.00  0.00    +0.000 A 
ATOM      3  C   UNL     1      -0.745  11.197  21.465  0.00  0.00    +0.000 A 
ATOM      4  C   UNL     1      -0.786  11.648  20.148  0.00  0.00    +0.000 A 
ATOM      5  N   UNL     1      -0.073  11.009  19.188  0.00  0.00    +0.000 NA
ATOM      6  C   UNL     1       0.649   9.913  19.494  0.00  0.00    +0.000 A 
ATOM      7  C   UNL     1       1.340   9.244  18.480  0.00  0.00    +0.000 A 
ATOM      8  C   UNL     1       2.031   8.046  18.711  0.00  0.00    +0.000 A 
ATOM      9  C   UNL     1       2.079   7.519  19.994  0.00  0.00    +0.000 A 
ATOM     10  C   UNL     1       1.436   8.188  21.032  0.00  0.00    +0.000 A 
ATOM     11  C   UNL     1       0.704   9.376  20.794  0.00  0.00    +0.000 A 
ENDROOT
BRANCH   9  12
ATOM     12  N   UNL     1       2.684   6.273  20.257  0.00  0.00    +0.000 N 
ATOM     13  C   UNL     1       1.885   5.160  20.519  0.00  0.00    +0.000 C 
ATOM     14  O   UNL     1       0.662   5.138  20.419  0.00  0.00    +0.000 OA
ATOM     15  H   UNL     1       3.523   6.304  20.827  0.00  0.00    +0.000 HD
BRANCH  13  16
ATOM     16  C   UNL     1       2.681   3.931  20.963  0.00  0.00    +0.000 C 
BRANCH  16  17
ATOM     17  O   UNL     1       2.826   3.075  19.838  0.00  0.00    +0.000 OA
BRANCH  17  18
ATOM     18  C   UNL     1       3.735   3.431  18.878  0.00  0.00    +0.000 A 
ATOM     19  C   UNL     1       3.254   3.341  17.573  0.00  0.00    +0.000 A 
ATOM     20  C   UNL     1       4.064   3.692  16.484  0.00  0.00    +0.000 A 
ATOM     21  C   UNL     1       5.364   4.158  16.696  0.00  0.00    +0.000 A 
ATOM     22  C   UNL     1       5.841   4.261  18.012  0.00  0.00    +0.000 A 
ATOM     23  C   UNL     1       5.034   3.902  19.101  0.00  0.00    +0.000 A 
BRANCH  21  24
ATOM     24  C   UNL     1       6.243   4.555  15.528  0.00  0.00    +0.000 C 
ATOM     25  F   UNL     1       6.316   3.602  14.561  0.00  0.00    +0.000 F 
ATOM     26  F   UNL     1       5.801   5.682  14.909  0.00  0.00    +0.000 F 
ATOM     27  F   UNL     1       7.525   4.809  15.902  0.00  0.00    +0.000 F 
ENDBRANCH  21  24
ENDBRANCH  17  18
ENDBRANCH  16  17
ENDBRANCH  13  16
ENDBRANCH   9  12
BRANCH   4  28
ATOM     28  N   UNL     1      -1.658  12.686  19.798  0.00  0.00    +0.000 N 
ATOM     29  C   UNL     1      -1.264  14.003  20.282  0.00  0.00    +0.000 C 
BRANCH  28  30
ATOM     30  C   UNL     1      -3.101  12.399  19.815  0.00  0.00    +0.000 C 
BRANCH  30  31
ATOM     31  C   UNL     1      -3.824  13.079  20.965  0.00  0.00    +0.000 A 
ATOM     32  C   UNL     1      -4.605  14.222  20.718  0.00  0.00    +0.000 A 
ATOM     33  C   UNL     1      -5.253  14.884  21.764  0.00  0.00    +0.000 A 
ATOM     34  C   UNL     1      -5.146  14.405  23.068  0.00  0.00    +0.000 A 
ATOM     35  C   UNL     1      -4.418  13.245  23.320  0.00  0.00    +0.000 A 
ATOM     36  C   UNL     1      -3.773  12.580  22.275  0.00  0.00    +0.000 A 
ENDBRANCH  30  31
ENDBRANCH  28  30
ENDBRANCH   4  28
TORSDOF 8
ENDMDL
MODEL 7
REMARK VINA RESULT:      -8.5      1.477      2.643
REMARK  Name = 
REMARK  10 active torsions:
REMARK  status: ('A' for Active; 'I' for Inactive)
REMARK    1  A    between atoms: C_1  and  C_2
REMARK    2  A    between atoms: C_4  and  N_5
REMARK    3  A    between atoms: N_5  and  C_6
REMARK    4  A    between atoms: N_5  and  C_7
REMARK    5  A    between atoms: C_7  and  C_8
REMARK    6  A    between atoms: C_18  and  N_19
REMARK    7  A    between atoms: C_20  and  C_22
REMARK    8  A    between atoms: C_22  and  O_23
REMARK    9  A    between atoms: O_23  and  C_24
REMARK   10  A    between atoms: C_27  and  C_28
REMARK                            x       y       z     vdW  Elec       q    Type
REMARK                         _______ _______ _______ _____ _____    ______ ____
ROOT
ATOM      1  C   UNL     1      -0.118   9.295  23.066  0.00  0.00    +0.000 C 
ATOM      2  C   UNL     1       0.075   9.759  21.652  0.00  0.00    +0.000 A 
ATOM      3  C   UNL     1      -0.593  10.908  21.217  0.00  0.00    +0.000 A 
ATOM      4  C   UNL     1      -0.514  11.316  19.888  0.00  0.00    +0.000 A 
ATOM      5  N   UNL     1       0.257  10.627  19.011  0.00  0.00    +0.000 NA
ATOM      6  C   UNL     1       0.922   9.525  19.410  0.00  0.00    +0.000 A 
ATOM      7  C   UNL     1       1.675   8.805  18.478  0.00  0.00    +0.000 A 
ATOM      8  C   UNL     1       2.312   7.599  18.804  0.00  0.00    +0.000 A 
ATOM      9  C   UNL     1       2.241   7.115  20.102  0.00  0.00    +0.000 A 
ATOM     10  C   UNL     1       1.532   7.834  21.062  0.00  0.00    +0.000 A 
ATOM     11  C   UNL     1       0.855   9.031  20.727  0.00  0.00    +0.000 A 
ENDROOT
BRANCH   9  12
ATOM     12  N   UNL     1       2.787   5.865  20.454  0.00  0.00    +0.000 N 
ATOM     13  C   UNL     1       1.956   4.748  20.540  0.00  0.00    +0.000 C 
ATOM     14  O   UNL     1       0.774   4.728  20.209  0.00  0.00    +0.000 OA
ATOM     15  H   UNL     1       3.503   5.884  21.173  0.00  0.00    +0.000 HD
BRANCH  13  16
ATOM     16  C   UNL     1       2.657   3.511  21.105  0.00  0.00    +0.000 C 
BRANCH  16  17
ATOM     17  O   UNL     1       3.023   2.678  20.013  0.00  0.00    +0.000 OA
BRANCH  17  18
ATOM     18  C   UNL     1       3.792   3.228  19.023  0.00  0.00    +0.000 A 
ATOM     19  C   UNL     1       3.180   3.251  17.770  0.00  0.00    +0.000 A 
ATOM     20  C   UNL     1       3.838   3.801  16.662  0.00  0.00    +0.000 A 
ATOM     21  C   UNL     1       5.113   4.355  16.803  0.00  0.00    +0.000 A 
ATOM     22  C   UNL     1       5.721   4.343  18.068  0.00  0.00    +0.000 A 
ATOM     23  C   UNL     1       5.066   3.785  19.176  0.00  0.00    +0.000 A 
BRANCH  21  24
ATOM     24  C   UNL     1       5.827   4.968  15.615  0.00  0.00    +0.000 C 
ATOM     25  F   UNL     1       5.183   6.049  15.101  0.00  0.00    +0.000 F 
ATOM     26  F   UNL     1       7.079   5.393  15.929  0.00  0.00    +0.000 F 
ATOM     27  F   UNL     1       5.972   4.092  14.586  0.00  0.00    +0.000 F 
ENDBRANCH  21  24
ENDBRANCH  17  18
ENDBRANCH  16  17
ENDBRANCH  13  16
ENDBRANCH   9  12
BRANCH   4  28
ATOM     28  N   UNL     1      -1.326  12.363  19.434  0.00  0.00    +0.000 N 
ATOM     29  C   UNL     1      -1.849  12.187  18.086  0.00  0.00    +0.000 C 
BRANCH  28  30
ATOM     30  C   UNL     1      -0.940  13.734  19.802  0.00  0.00    +0.000 C 
BRANCH  30  31
ATOM     31  C   UNL     1      -1.464  14.148  21.166  0.00  0.00    +0.000 A 
ATOM     32  C   UNL     1      -0.560  14.390  22.215  0.00  0.00    +0.000 A 
ATOM     33  C   UNL     1      -1.019  14.740  23.488  0.00  0.00    +0.000 A 
ATOM     34  C   UNL     1      -2.385  14.870  23.727  0.00  0.00    +0.000 A 
ATOM     35  C   UNL     1      -3.290  14.684  22.685  0.00  0.00    +0.000 A 
ATOM     36  C   UNL     1      -2.833  14.338  21.412  0.00  0.00    +0.000 A 
ENDBRANCH  30  31
ENDBRANCH  28  30
ENDBRANCH   4  28
TORSDOF 8
ENDMDL
MODEL 8
REMARK VINA RESULT:      -8.5      1.405      3.158
REMARK  Name = 
REMARK  10 active torsions:
REMARK  status: ('A' for Active; 'I' for Inactive)
REMARK    1  A    between atoms: C_1  and  C_2
REMARK    2  A    between atoms: C_4  and  N_5
REMARK    3  A    between atoms: N_5  and  C_6
REMARK    4  A    between atoms: N_5  and  C_7
REMARK    5  A    between atoms: C_7  and  C_8
REMARK    6  A    between atoms: C_18  and  N_19
REMARK    7  A    between atoms: C_20  and  C_22
REMARK    8  A    between atoms: C_22  and  O_23
REMARK    9  A    between atoms: O_23  and  C_24
REMARK   10  A    between atoms: C_27  and  C_28
REMARK                            x       y       z     vdW  Elec       q    Type
REMARK                         _______ _______ _______ _____ _____    ______ ____
ROOT
ATOM      1  C   UNL     1      -0.296   9.209  22.680  0.00  0.00    +0.000 C 
ATOM      2  C   UNL     1       0.015   9.690  21.292  0.00  0.00    +0.000 A 
ATOM      3  C   UNL     1      -0.615  10.845  20.818  0.00  0.00    +0.000 A 
ATOM      4  C   UNL     1      -0.426  11.269  19.505  0.00  0.00    +0.000 A 
ATOM      5  N   UNL     1       0.415  10.589  18.686  0.00  0.00    +0.000 NA
ATOM      6  C   UNL     1       1.043   9.481  19.125  0.00  0.00    +0.000 A 
ATOM      7  C   UNL     1       1.871   8.771  18.250  0.00  0.00    +0.000 A 
ATOM      8  C   UNL     1       2.477   7.560  18.613  0.00  0.00    +0.000 A 
ATOM      9  C   UNL     1       2.299   7.061  19.895  0.00  0.00    +0.000 A 
ATOM     10  C   UNL     1       1.514   7.769  20.802  0.00  0.00    +0.000 A 
ATOM     11  C   UNL     1       0.868   8.972  20.426  0.00  0.00    +0.000 A 
ENDROOT
BRANCH   9  12
ATOM     12  N   UNL     1       2.813   5.805  20.275  0.00  0.00    +0.000 N 
ATOM     13  C   UNL     1       2.187   4.640  19.834  0.00  0.00    +0.000 C 
ATOM     14  O   UNL     1       1.269   4.604  19.019  0.00  0.00    +0.000 OA
ATOM     15  H   UNL     1       3.149   5.739  21.231  0.00  0.00    +0.000 HD
BRANCH  13  16
ATOM     16  C   UNL     1       2.747   3.368  20.474  0.00  0.00    +0.000 C 
BRANCH  16  17
ATOM     17  O   UNL     1       4.140   3.316  20.195  0.00  0.00    +0.000 OA
BRANCH  17  18
ATOM     18  C   UNL     1       4.544   3.576  18.914  0.00  0.00    +0.000 A 
ATOM     19  C   UNL     1       5.659   4.408  18.823  0.00  0.00    +0.000 A 
ATOM     20  C   UNL     1       6.201   4.748  17.576  0.00  0.00    +0.000 A 
ATOM     21  C   UNL     1       5.639   4.239  16.402  0.00  0.00    +0.000 A 
ATOM     22  C   UNL     1       4.524   3.390  16.497  0.00  0.00    +0.000 A 
ATOM     23  C   UNL     1       3.977   3.056  17.744  0.00  0.00    +0.000 A 
BRANCH  21  24
ATOM     24  C   UNL     1       6.226   4.586  15.049  0.00  0.00    +0.000 C 
ATOM     25  F   UNL     1       6.532   3.494  14.300  0.00  0.00    +0.000 F 
ATOM     26  F   UNL     1       5.375   5.331  14.294  0.00  0.00    +0.000 F 
ATOM     27  F   UNL     1       7.373   5.307  15.148  0.00  0.00    +0.000 F 
ENDBRANCH  21  24
ENDBRANCH  17  18
ENDBRANCH  16  17
ENDBRANCH  13  16
ENDBRANCH   9  12
BRANCH   4  28
ATOM     28  N   UNL     1      -1.197  12.323  18.998  0.00  0.00    +0.000 N 
ATOM     29  C   UNL     1      -2.515  11.935  18.514  0.00  0.00    +0.000 C 
BRANCH  28  30
ATOM     30  C   UNL     1      -0.504  13.361  18.219  0.00  0.00    +0.000 C 
BRANCH  30  31
ATOM     31  C   UNL     1       0.254  14.345  19.093  0.00  0.00    +0.000 A 
ATOM     32  C   UNL     1       1.589  14.661  18.789  0.00  0.00    +0.000 A 
ATOM     33  C   UNL     1       2.318  15.539  19.596  0.00  0.00    +0.000 A 
ATOM     34  C   UNL     1       1.719  16.127  20.708  0.00  0.00    +0.000 A 
ATOM     35  C   UNL     1       0.381  15.864  20.992  0.00  0.00    +0.000 A 
ATOM     36  C   UNL     1      -0.349  14.990  20.184  0.00  0.00    +0.000 A 
ENDBRANCH  30  31
ENDBRANCH  28  30
ENDBRANCH   4  28
TORSDOF 8
ENDMDL
MODEL 9
REMARK VINA RESULT:      -8.4      1.321      2.205
REMARK  Name = 
REMARK  10 active torsions:
REMARK  status: ('A' for Active; 'I' for Inactive)
REMARK    1  A    between atoms: C_1  and  C_2
REMARK    2  A    between atoms: C_4  and  N_5
REMARK    3  A    between atoms: N_5  and  C_6
REMARK    4  A    between atoms: N_5  and  C_7
REMARK    5  A    between atoms: C_7  and  C_8
REMARK    6  A    between atoms: C_18  and  N_19
REMARK    7  A    between atoms: C_20  and  C_22
REMARK    8  A    between atoms: C_22  and  O_23
REMARK    9  A    between atoms: O_23  and  C_24
REMARK   10  A    between atoms: C_27  and  C_28
REMARK                            x       y       z     vdW  Elec       q    Type
REMARK                         _______ _______ _______ _____ _____    ______ ____
ROOT
ATOM      1  C   UNL     1      -0.082   9.539  23.228  0.00  0.00    +0.000 C 
ATOM      2  C   UNL     1       0.016  10.009  21.806  0.00  0.00    +0.000 A 
ATOM      3  C   UNL     1      -0.698  11.147  21.416  0.00  0.00    +0.000 A 
ATOM      4  C   UNL     1      -0.708  11.558  20.086  0.00  0.00    +0.000 A 
ATOM      5  N   UNL     1       0.020  10.885  19.161  0.00  0.00    +0.000 NA
ATOM      6  C   UNL     1       0.727   9.793  19.515  0.00  0.00    +0.000 A 
ATOM      7  C   UNL     1       1.435   9.089  18.537  0.00  0.00    +0.000 A 
ATOM      8  C   UNL     1       2.112   7.894  18.820  0.00  0.00    +0.000 A 
ATOM      9  C   UNL     1       2.129   7.407  20.119  0.00  0.00    +0.000 A 
ATOM     10  C   UNL     1       1.468   8.111  21.122  0.00  0.00    +0.000 A 
ATOM     11  C   UNL     1       0.750   9.297  20.832  0.00  0.00    +0.000 A 
ENDROOT
BRANCH   9  12
ATOM     12  N   UNL     1       2.718   6.165  20.433  0.00  0.00    +0.000 N 
ATOM     13  C   UNL     1       1.908   5.049  20.641  0.00  0.00    +0.000 C 
ATOM     14  O   UNL     1       0.695   5.020  20.451  0.00  0.00    +0.000 OA
ATOM     15  H   UNL     1       3.512   6.203  21.063  0.00  0.00    +0.000 HD
BRANCH  13  16
ATOM     16  C   UNL     1       2.674   3.827  21.149  0.00  0.00    +0.000 C 
BRANCH  16  17
ATOM     17  O   UNL     1       2.900   2.962  20.044  0.00  0.00    +0.000 OA
BRANCH  17  18
ATOM     18  C   UNL     1       3.632   3.447  18.994  0.00  0.00    +0.000 A 
ATOM     19  C   UNL     1       2.934   3.508  17.788  0.00  0.00    +0.000 A 
ATOM     20  C   UNL     1       3.547   4.001  16.629  0.00  0.00    +0.000 A 
ATOM     21  C   UNL     1       4.866   4.460  16.670  0.00  0.00    +0.000 A 
ATOM     22  C   UNL     1       5.562   4.410  17.889  0.00  0.00    +0.000 A 
ATOM     23  C   UNL     1       4.952   3.909  19.048  0.00  0.00    +0.000 A 
BRANCH  21  24
ATOM     24  C   UNL     1       5.534   5.011  15.427  0.00  0.00    +0.000 C 
ATOM     25  F   UNL     1       6.890   5.044  15.515  0.00  0.00    +0.000 F 
ATOM     26  F   UNL     1       5.249   4.275  14.320  0.00  0.00    +0.000 F 
ATOM     27  F   UNL     1       5.144   6.282  15.146  0.00  0.00    +0.000 F 
ENDBRANCH  21  24
ENDBRANCH  17  18
ENDBRANCH  16  17
ENDBRANCH  13  16
ENDBRANCH   9  12
BRANCH   4  28
ATOM     28  N   UNL     1      -1.565  12.591  19.685  0.00  0.00    +0.000 N 
ATOM     29  C   UNL     1      -1.087  13.933  19.991  0.00  0.00    +0.000 C 
BRANCH  28  30
ATOM     30  C   UNL     1      -3.012  12.373  19.835  0.00  0.00    +0.000 C 
BRANCH  30  31
ATOM     31  C   UNL     1      -3.609  13.155  20.993  0.00  0.00    +0.000 A 
ATOM     32  C   UNL     1      -3.590  12.608  22.287  0.00  0.00    +0.000 A 
ATOM     33  C   UNL     1      -4.161  13.294  23.362  0.00  0.00    +0.000 A 
ATOM     34  C   UNL     1      -4.744  14.543  23.163  0.00  0.00    +0.000 A 
ATOM     35  C   UNL     1      -4.725  15.122  21.897  0.00  0.00    +0.000 A 
ATOM     36  C   UNL     1      -4.151  14.439  20.823  0.00  0.00    +0.000 A 
ENDBRANCH  30  31
ENDBRANCH  28  30
ENDBRANCH   4  28
TORSDOF 8
ENDMDL
