MODEL 1
REMARK VINA RESULT:      -7.1      0.000      0.000
REMARK  Name = 
REMARK  12 active torsions:
REMARK  status: ('A' for Active; 'I' for Inactive)
REMARK    1  A    between atoms: C_2  and  C_3
REMARK    2  A    between atoms: C_3  and  N_4
REMARK    3  A    between atoms: C_5  and  S_6
REMARK    4  A    between atoms: S_6  and  C_7
REMARK    5  A    between atoms: C_7  and  C_8
REMARK    6  A    between atoms: C_8  and  C_10
REMARK    7  A    between atoms: C_13  and  O_14
REMARK    8  A    between atoms: O_14  and  C_15
REMARK    9  A    between atoms: C_20  and  C_21
REMARK   10  A    between atoms: C_21  and  C_22
REMARK   11  A    between atoms: C_21  and  N_23
REMARK   12  A    between atoms: C_24  and  C_26
REMARK                            x       y       z     vdW  Elec       q    Type
REMARK                         _______ _______ _______ _____ _____    ______ ____
ROOT
ATOM      1  N   UNL     1       1.769   7.899  19.965  0.00  0.00    +0.000 N 
ATOM      2  C   UNL     1       2.242   6.685  19.534  0.00  0.00    +0.000 A 
ATOM      3  N   UNL     1       2.308   6.678  18.224  0.00  0.00    +0.000 NA
ATOM      4  N   UNL     1       1.874   7.903  17.776  0.00  0.00    +0.000 NA
ATOM      5  C   UNL     1       1.575   8.653  18.822  0.00  0.00    +0.000 A 
ENDROOT
BRANCH   5   6
ATOM      6  C   UNL     1       1.126  10.087  18.790  0.00  0.00    +0.000 C 
ATOM      7  C   UNL     1       2.137  10.962  18.045  0.00  0.00    +0.000 C 
BRANCH   6   8
ATOM      8  N   UNL     1      -0.168  10.148  18.129  0.00  0.00    +0.000 N 
ATOM      9  C   UNL     1      -1.208  10.941  18.570  0.00  0.00    +0.000 C 
ATOM     10  O   UNL     1      -1.155  11.517  19.657  0.00  0.00    +0.000 OA
ATOM     11  H   UNL     1      -0.245   9.734  17.208  0.00  0.00    +0.000 HD
BRANCH   9  12
ATOM     12  C   UNL     1      -2.364  11.029  17.681  0.00  0.00    +0.000 A 
ATOM     13  C   UNL     1      -2.396  10.786  16.316  0.00  0.00    +0.000 A 
ATOM     14  C   UNL     1      -3.695  10.957  15.751  0.00  0.00    +0.000 A 
ATOM     15  C   UNL     1      -4.623  11.317  16.702  0.00  0.00    +0.000 A 
ATOM     16  S   UNL     1      -3.926  11.454  18.256  0.00  0.00    +0.000 S 
ENDBRANCH   9  12
ENDBRANCH   6   8
ENDBRANCH   5   6
BRANCH   1  17
ATOM     17  C   UNL     1       1.515   8.323  21.331  0.00  0.00    +0.000 C 
BRANCH  17  19
ATOM     18  C   UNL     1      -0.465   9.411  22.442  0.00  0.00    +0.000 C 
ATOM     19  C   UNL     1       0.047   8.511  21.590  0.00  0.00    +0.000 C 
ENDBRANCH  17  19
ENDBRANCH   1  17
BRANCH   2  20
ATOM     20  S   UNL     1       2.669   5.370  20.578  0.00  0.00    +0.000 S 
BRANCH  20  21
ATOM     21  C   UNL     1       2.901   4.008  19.383  0.00  0.00    +0.000 C 
BRANCH  21  22
ATOM     22  C   UNL     1       4.370   3.614  19.221  0.00  0.00    +0.000 C 
ATOM     23  O   UNL     1       4.828   2.528  19.575  0.00  0.00    +0.000 OA
BRANCH  22  24
ATOM     24  C   UNL     1       5.309   4.613  18.597  0.00  0.00    +0.000 A 
ATOM     25  C   UNL     1       5.204   4.999  17.257  0.00  0.00    +0.000 A 
ATOM     26  C   UNL     1       6.102   5.930  16.719  0.00  0.00    +0.000 A 
ATOM     27  C   UNL     1       7.103   6.504  17.505  0.00  0.00    +0.000 A 
ATOM     28  C   UNL     1       7.222   6.120  18.839  0.00  0.00    +0.000 A 
ATOM     29  C   UNL     1       6.328   5.180  19.381  0.00  0.00    +0.000 A 
BRANCH  27  30
ATOM     30  O   UNL     1       7.924   7.376  16.847  0.00  0.00    +0.000 OA
ATOM     31  C   UNL     1       8.196   8.608  17.506  0.00  0.00    +0.000 C 
ENDBRANCH  27  30
ENDBRANCH  22  24
ENDBRANCH  21  22
ENDBRANCH  20  21
ENDBRANCH   2  20
TORSDOF 10
ENDMDL
MODEL 2
REMARK VINA RESULT:      -7.1      1.634      2.132
REMARK  Name = 
REMARK  12 active torsions:
REMARK  status: ('A' for Active; 'I' for Inactive)
REMARK    1  A    between atoms: C_2  and  C_3
REMARK    2  A    between atoms: C_3  and  N_4
REMARK    3  A    between atoms: C_5  and  S_6
REMARK    4  A    between atoms: S_6  and  C_7
REMARK    5  A    between atoms: C_7  and  C_8
REMARK    6  A    between atoms: C_8  and  C_10
REMARK    7  A    between atoms: C_13  and  O_14
REMARK    8  A    between atoms: O_14  and  C_15
REMARK    9  A    between atoms: C_20  and  C_21
REMARK   10  A    between atoms: C_21  and  C_22
REMARK   11  A    between atoms: C_21  and  N_23
REMARK   12  A    between atoms: C_24  and  C_26
REMARK                            x       y       z     vdW  Elec       q    Type
REMARK                         _______ _______ _______ _____ _____    ______ ____
ROOT
ATOM      1  N   UNL     1       1.899   8.150  19.738  0.00  0.00    +0.000 N 
ATOM      2  C   UNL     1       2.505   7.047  19.189  0.00  0.00    +0.000 A 
ATOM      3  N   UNL     1       2.656   7.224  17.898  0.00  0.00    +0.000 NA
ATOM      4  N   UNL     1       2.145   8.460  17.582  0.00  0.00    +0.000 NA
ATOM      5  C   UNL     1       1.714   9.034  18.691  0.00  0.00    +0.000 A 
ENDROOT
BRANCH   5   6
ATOM      6  C   UNL     1       1.142  10.419  18.812  0.00  0.00    +0.000 C 
ATOM      7  C   UNL     1       2.057  11.450  18.146  0.00  0.00    +0.000 C 
BRANCH   6   8
ATOM      8  N   UNL     1      -0.167  10.433  18.179  0.00  0.00    +0.000 N 
ATOM      9  C   UNL     1      -1.273  11.038  18.738  0.00  0.00    +0.000 C 
ATOM     10  O   UNL     1      -1.255  11.458  19.896  0.00  0.00    +0.000 OA
ATOM     11  H   UNL     1      -0.222  10.146  17.209  0.00  0.00    +0.000 HD
BRANCH   9  12
ATOM     12  C   UNL     1      -2.454  11.125  17.882  0.00  0.00    +0.000 A 
ATOM     13  C   UNL     1      -3.700  11.633  18.217  0.00  0.00    +0.000 A 
ATOM     14  C   UNL     1      -4.633  11.574  17.138  0.00  0.00    +0.000 A 
ATOM     15  C   UNL     1      -4.071  11.031  16.006  0.00  0.00    +0.000 A 
ATOM     16  S   UNL     1      -2.438  10.591  16.249  0.00  0.00    +0.000 S 
ENDBRANCH   9  12
ENDBRANCH   6   8
ENDBRANCH   5   6
BRANCH   1  17
ATOM     17  C   UNL     1       1.521   8.362  21.124  0.00  0.00    +0.000 C 
BRANCH  17  19
ATOM     18  C   UNL     1      -0.588   8.937  22.373  0.00  0.00    +0.000 C 
ATOM     19  C   UNL     1       0.031   8.455  21.285  0.00  0.00    +0.000 C 
ENDBRANCH  17  19
ENDBRANCH   1  17
BRANCH   2  20
ATOM     20  S   UNL     1       2.979   5.640  20.083  0.00  0.00    +0.000 S 
BRANCH  20  21
ATOM     21  C   UNL     1       4.672   5.357  19.458  0.00  0.00    +0.000 C 
BRANCH  21  22
ATOM     22  C   UNL     1       4.765   4.130  18.549  0.00  0.00    +0.000 C 
ATOM     23  O   UNL     1       4.349   3.016  18.864  0.00  0.00    +0.000 OA
BRANCH  22  24
ATOM     24  C   UNL     1       5.402   4.297  17.195  0.00  0.00    +0.000 A 
ATOM     25  C   UNL     1       4.687   4.122  16.006  0.00  0.00    +0.000 A 
ATOM     26  C   UNL     1       5.324   4.284  14.769  0.00  0.00    +0.000 A 
ATOM     27  C   UNL     1       6.672   4.639  14.694  0.00  0.00    +0.000 A 
ATOM     28  C   UNL     1       7.397   4.808  15.872  0.00  0.00    +0.000 A 
ATOM     29  C   UNL     1       6.763   4.638  17.115  0.00  0.00    +0.000 A 
BRANCH  27  30
ATOM     30  O   UNL     1       7.171   4.739  13.425  0.00  0.00    +0.000 OA
ATOM     31  C   UNL     1       6.676   3.802  12.476  0.00  0.00    +0.000 C 
ENDBRANCH  27  30
ENDBRANCH  22  24
ENDBRANCH  21  22
ENDBRANCH  20  21
ENDBRANCH   2  20
TORSDOF 10
ENDMDL
MODEL 3
REMARK VINA RESULT:      -6.8      1.327      1.771
REMARK  Name = 
REMARK  12 active torsions:
REMARK  status: ('A' for Active; 'I' for Inactive)
REMARK    1  A    between atoms: C_2  and  C_3
REMARK    2  A    between atoms: C_3  and  N_4
REMARK    3  A    between atoms: C_5  and  S_6
REMARK    4  A    between atoms: S_6  and  C_7
REMARK    5  A    between atoms: C_7  and  C_8
REMARK    6  A    between atoms: C_8  and  C_10
REMARK    7  A    between atoms: C_13  and  O_14
REMARK    8  A    between atoms: O_14  and  C_15
REMARK    9  A    between atoms: C_20  and  C_21
REMARK   10  A    between atoms: C_21  and  C_22
REMARK   11  A    between atoms: C_21  and  N_23
REMARK   12  A    between atoms: C_24  and  C_26
REMARK                            x       y       z     vdW  Elec       q    Type
REMARK                         _______ _______ _______ _____ _____    ______ ____
ROOT
ATOM      1  N   UNL     1       1.559   8.481  20.150  0.00  0.00    +0.000 N 
ATOM      2  C   UNL     1       1.969   7.369  19.458  0.00  0.00    +0.000 A 
ATOM      3  N   UNL     1       2.015   7.641  18.176  0.00  0.00    +0.000 NA
ATOM      4  N   UNL     1       1.632   8.950  18.010  0.00  0.00    +0.000 NA
ATOM      5  C   UNL     1       1.383   9.470  19.200  0.00  0.00    +0.000 A 
ENDROOT
BRANCH   5   6
ATOM      6  C   UNL     1       1.000  10.895  19.486  0.00  0.00    +0.000 C 
ATOM      7  C   UNL     1       1.731  11.858  18.547  0.00  0.00    +0.000 C 
BRANCH   6   8
ATOM      8  N   UNL     1      -0.437  11.028  19.315  0.00  0.00    +0.000 N 
ATOM      9  C   UNL     1      -1.211  11.902  20.050  0.00  0.00    +0.000 C 
ATOM     10  O   UNL     1      -0.748  12.502  21.021  0.00  0.00    +0.000 OA
ATOM     11  H   UNL     1      -0.855  10.595  18.500  0.00  0.00    +0.000 HD
BRANCH   9  12
ATOM     12  C   UNL     1      -2.599  12.046  19.616  0.00  0.00    +0.000 A 
ATOM     13  C   UNL     1      -3.625  12.697  20.284  0.00  0.00    +0.000 A 
ATOM     14  C   UNL     1      -4.864  12.656  19.576  0.00  0.00    +0.000 A 
ATOM     15  C   UNL     1      -4.746  11.983  18.381  0.00  0.00    +0.000 A 
ATOM     16  S   UNL     1      -3.160  11.401  18.126  0.00  0.00    +0.000 S 
ENDBRANCH   9  12
ENDBRANCH   6   8
ENDBRANCH   5   6
BRANCH   1  17
ATOM     17  C   UNL     1       1.345   8.612  21.581  0.00  0.00    +0.000 C 
BRANCH  17  19
ATOM     18  C   UNL     1      -0.600   9.498  22.910  0.00  0.00    +0.000 C 
ATOM     19  C   UNL     1      -0.113   8.744  21.915  0.00  0.00    +0.000 C 
ENDBRANCH  17  19
ENDBRANCH   1  17
BRANCH   2  20
ATOM     20  S   UNL     1       2.350   5.844  20.186  0.00  0.00    +0.000 S 
BRANCH  20  21
ATOM     21  C   UNL     1       2.306   4.723  18.745  0.00  0.00    +0.000 C 
BRANCH  21  22
ATOM     22  C   UNL     1       3.671   4.104  18.441  0.00  0.00    +0.000 C 
ATOM     23  O   UNL     1       3.895   2.895  18.478  0.00  0.00    +0.000 OA
BRANCH  22  24
ATOM     24  C   UNL     1       4.804   5.028  18.078  0.00  0.00    +0.000 A 
ATOM     25  C   UNL     1       5.986   5.089  18.824  0.00  0.00    +0.000 A 
ATOM     26  C   UNL     1       7.012   5.967  18.450  0.00  0.00    +0.000 A 
ATOM     27  C   UNL     1       6.888   6.781  17.323  0.00  0.00    +0.000 A 
ATOM     28  C   UNL     1       5.712   6.735  16.578  0.00  0.00    +0.000 A 
ATOM     29  C   UNL     1       4.677   5.861  16.954  0.00  0.00    +0.000 A 
BRANCH  27  30
ATOM     30  O   UNL     1       7.952   7.606  17.089  0.00  0.00    +0.000 OA
ATOM     31  C   UNL     1       7.925   8.872  17.738  0.00  0.00    +0.000 C 
ENDBRANCH  27  30
ENDBRANCH  22  24
ENDBRANCH  21  22
ENDBRANCH  20  21
ENDBRANCH   2  20
TORSDOF 10
ENDMDL
MODEL 4
REMARK VINA RESULT:      -6.7      3.153      5.975
REMARK  Name = 
REMARK  12 active torsions:
REMARK  status: ('A' for Active; 'I' for Inactive)
REMARK    1  A    between atoms: C_2  and  C_3
REMARK    2  A    between atoms: C_3  and  N_4
REMARK    3  A    between atoms: C_5  and  S_6
REMARK    4  A    between atoms: S_6  and  C_7
REMARK    5  A    between atoms: C_7  and  C_8
REMARK    6  A    between atoms: C_8  and  C_10
REMARK    7  A    between atoms: C_13  and  O_14
REMARK    8  A    between atoms: O_14  and  C_15
REMARK    9  A    between atoms: C_20  and  C_21
REMARK   10  A    between atoms: C_21  and  C_22
REMARK   11  A    between atoms: C_21  and  N_23
REMARK   12  A    between atoms: C_24  and  C_26
REMARK                            x       y       z     vdW  Elec       q    Type
REMARK                         _______ _______ _______ _____ _____    ______ ____
ROOT
ATOM      1  N   UNL     1       5.057   5.955  17.869  0.00  0.00    +0.000 N 
ATOM      2  C   UNL     1       6.091   5.486  18.640  0.00  0.00    +0.000 A 
ATOM      3  N   UNL     1       5.623   5.036  19.779  0.00  0.00    +0.000 NA
ATOM      4  N   UNL     1       4.259   5.207  19.769  0.00  0.00    +0.000 NA
ATOM      5  C   UNL     1       3.910   5.734  18.608  0.00  0.00    +0.000 A 
ENDROOT
BRANCH   5   6
ATOM      6  C   UNL     1       2.508   6.024  18.148  0.00  0.00    +0.000 C 
ATOM      7  C   UNL     1       1.607   4.801  18.332  0.00  0.00    +0.000 C 
BRANCH   6   8
ATOM      8  N   UNL     1       1.993   7.142  18.921  0.00  0.00    +0.000 N 
ATOM      9  C   UNL     1       1.900   8.427  18.426  0.00  0.00    +0.000 C 
ATOM     10  O   UNL     1       2.412   8.735  17.350  0.00  0.00    +0.000 OA
ATOM     11  H   UNL     1       1.516   6.933  19.790  0.00  0.00    +0.000 HD
BRANCH   9  12
ATOM     12  C   UNL     1       1.183   9.384  19.266  0.00  0.00    +0.000 A 
ATOM     13  C   UNL     1       0.501   9.122  20.445  0.00  0.00    +0.000 A 
ATOM     14  C   UNL     1      -0.085  10.290  21.020  0.00  0.00    +0.000 A 
ATOM     15  C   UNL     1       0.175  11.414  20.268  0.00  0.00    +0.000 A 
ATOM     16  S   UNL     1       1.107  11.057  18.882  0.00  0.00    +0.000 S 
ENDBRANCH   9  12
ENDBRANCH   6   8
ENDBRANCH   5   6
BRANCH   1  17
ATOM     17  C   UNL     1       5.131   6.563  16.552  0.00  0.00    +0.000 C 
BRANCH  17  19
ATOM     18  C   UNL     1       6.225   5.085  14.832  0.00  0.00    +0.000 C 
ATOM     19  C   UNL     1       5.128   5.530  15.462  0.00  0.00    +0.000 C 
ENDBRANCH  17  19
ENDBRANCH   1  17
BRANCH   2  20
ATOM     20  S   UNL     1       7.758   5.506  18.165  0.00  0.00    +0.000 S 
BRANCH  20  21
ATOM     21  C   UNL     1       8.334   7.075  18.901  0.00  0.00    +0.000 C 
BRANCH  21  22
ATOM     22  C   UNL     1       8.138   8.269  17.965  0.00  0.00    +0.000 C 
ATOM     23  O   UNL     1       7.604   8.188  16.860  0.00  0.00    +0.000 OA
BRANCH  22  24
ATOM     24  C   UNL     1       8.629   9.618  18.422  0.00  0.00    +0.000 A 
ATOM     25  C   UNL     1       9.231   9.810  19.670  0.00  0.00    +0.000 A 
ATOM     26  C   UNL     1       9.669  11.084  20.053  0.00  0.00    +0.000 A 
ATOM     27  C   UNL     1       9.533  12.180  19.199  0.00  0.00    +0.000 A 
ATOM     28  C   UNL     1       8.928  12.002  17.957  0.00  0.00    +0.000 A 
ATOM     29  C   UNL     1       8.479  10.726  17.572  0.00  0.00    +0.000 A 
BRANCH  27  30
ATOM     30  O   UNL     1       9.980  13.366  19.710  0.00  0.00    +0.000 OA
ATOM     31  C   UNL     1      11.383  13.476  19.918  0.00  0.00    +0.000 C 
ENDBRANCH  27  30
ENDBRANCH  22  24
ENDBRANCH  21  22
ENDBRANCH  20  21
ENDBRANCH   2  20
TORSDOF 10
ENDMDL
MODEL 5
REMARK VINA RESULT:      -6.6      1.338      1.647
REMARK  Name = 
REMARK  12 active torsions:
REMARK  status: ('A' for Active; 'I' for Inactive)
REMARK    1  A    between atoms: C_2  and  C_3
REMARK    2  A    between atoms: C_3  and  N_4
REMARK    3  A    between atoms: C_5  and  S_6
REMARK    4  A    between atoms: S_6  and  C_7
REMARK    5  A    between atoms: C_7  and  C_8
REMARK    6  A    between atoms: C_8  and  C_10
REMARK    7  A    between atoms: C_13  and  O_14
REMARK    8  A    between atoms: O_14  and  C_15
REMARK    9  A    between atoms: C_20  and  C_21
REMARK   10  A    between atoms: C_21  and  C_22
REMARK   11  A    between atoms: C_21  and  N_23
REMARK   12  A    between atoms: C_24  and  C_26
REMARK                            x       y       z     vdW  Elec       q    Type
REMARK                         _______ _______ _______ _____ _____    ______ ____
ROOT
ATOM      1  N   UNL     1       1.504   8.073  19.694  0.00  0.00    +0.000 N 
ATOM      2  C   UNL     1       2.284   6.998  19.347  0.00  0.00    +0.000 A 
ATOM      3  N   UNL     1       2.969   7.282  18.265  0.00  0.00    +0.000 NA
ATOM      4  N   UNL     1       2.642   8.561  17.885  0.00  0.00    +0.000 NA
ATOM      5  C   UNL     1       1.781   9.053  18.759  0.00  0.00    +0.000 A 
ENDROOT
BRANCH   5   6
ATOM      6  C   UNL     1       1.213  10.445  18.762  0.00  0.00    +0.000 C 
ATOM      7  C   UNL     1       2.141  11.417  18.029  0.00  0.00    +0.000 C 
BRANCH   6   8
ATOM      8  N   UNL     1      -0.087  10.412  18.112  0.00  0.00    +0.000 N 
ATOM      9  C   UNL     1      -1.164  11.165  18.532  0.00  0.00    +0.000 C 
ATOM     10  O   UNL     1      -1.134  11.784  19.597  0.00  0.00    +0.000 OA
ATOM     11  H   UNL     1      -0.149   9.960  17.208  0.00  0.00    +0.000 HD
BRANCH   9  12
ATOM     12  C   UNL     1      -2.330  11.158  17.652  0.00  0.00    +0.000 A 
ATOM     13  C   UNL     1      -2.359  10.862  16.298  0.00  0.00    +0.000 A 
ATOM     14  C   UNL     1      -3.671  10.941  15.739  0.00  0.00    +0.000 A 
ATOM     15  C   UNL     1      -4.609  11.287  16.685  0.00  0.00    +0.000 A 
ATOM     16  S   UNL     1      -3.909  11.520  18.226  0.00  0.00    +0.000 S 
ENDBRANCH   9  12
ENDBRANCH   6   8
ENDBRANCH   5   6
BRANCH   1  17
ATOM     17  C   UNL     1       0.573   8.178  20.804  0.00  0.00    +0.000 C 
BRANCH  17  19
ATOM     18  C   UNL     1       1.643   9.267  22.806  0.00  0.00    +0.000 C 
ATOM     19  C   UNL     1       0.899   9.344  21.693  0.00  0.00    +0.000 C 
ENDBRANCH  17  19
ENDBRANCH   1  17
BRANCH   2  20
ATOM     20  S   UNL     1       2.333   5.499  20.215  0.00  0.00    +0.000 S 
BRANCH  20  21
ATOM     21  C   UNL     1       4.030   4.922  19.864  0.00  0.00    +0.000 C 
BRANCH  21  22
ATOM     22  C   UNL     1       4.093   3.988  18.654  0.00  0.00    +0.000 C 
ATOM     23  O   UNL     1       3.394   2.983  18.531  0.00  0.00    +0.000 OA
BRANCH  22  24
ATOM     24  C   UNL     1       5.068   4.316  17.554  0.00  0.00    +0.000 A 
ATOM     25  C   UNL     1       4.685   4.381  16.210  0.00  0.00    +0.000 A 
ATOM     26  C   UNL     1       5.628   4.687  15.221  0.00  0.00    +0.000 A 
ATOM     27  C   UNL     1       6.959   4.950  15.552  0.00  0.00    +0.000 A 
ATOM     28  C   UNL     1       7.354   4.879  16.886  0.00  0.00    +0.000 A 
ATOM     29  C   UNL     1       6.412   4.565  17.880  0.00  0.00    +0.000 A 
BRANCH  27  30
ATOM     30  O   UNL     1       7.776   5.209  14.487  0.00  0.00    +0.000 OA
ATOM     31  C   UNL     1       7.254   4.900  13.200  0.00  0.00    +0.000 C 
ENDBRANCH  27  30
ENDBRANCH  22  24
ENDBRANCH  21  22
ENDBRANCH  20  21
ENDBRANCH   2  20
TORSDOF 10
ENDMDL
MODEL 6
REMARK VINA RESULT:      -6.6      2.512      3.309
REMARK  Name = 
REMARK  12 active torsions:
REMARK  status: ('A' for Active; 'I' for Inactive)
REMARK    1  A    between atoms: C_2  and  C_3
REMARK    2  A    between atoms: C_3  and  N_4
REMARK    3  A    between atoms: C_5  and  S_6
REMARK    4  A    between atoms: S_6  and  C_7
REMARK    5  A    between atoms: C_7  and  C_8
REMARK    6  A    between atoms: C_8  and  C_10
REMARK    7  A    between atoms: C_13  and  O_14
REMARK    8  A    between atoms: O_14  and  C_15
REMARK    9  A    between atoms: C_20  and  C_21
REMARK   10  A    between atoms: C_21  and  C_22
REMARK   11  A    between atoms: C_21  and  N_23
REMARK   12  A    between atoms: C_24  and  C_26
REMARK                            x       y       z     vdW  Elec       q    Type
REMARK                         _______ _______ _______ _____ _____    ______ ____
ROOT
ATOM      1  N   UNL     1       2.401   6.157  19.795  0.00  0.00    +0.000 N 
ATOM      2  C   UNL     1       3.271   5.806  18.793  0.00  0.00    +0.000 A 
ATOM      3  N   UNL     1       3.429   6.817  17.973  0.00  0.00    +0.000 NA
ATOM      4  N   UNL     1       2.655   7.855  18.433  0.00  0.00    +0.000 NA
ATOM      5  C   UNL     1       2.055   7.472  19.547  0.00  0.00    +0.000 A 
ENDROOT
BRANCH   5   6
ATOM      6  C   UNL     1       1.169   8.319  20.417  0.00  0.00    +0.000 C 
ATOM      7  C   UNL     1       1.752   8.455  21.825  0.00  0.00    +0.000 C 
BRANCH   6   8
ATOM      8  N   UNL     1       1.040   9.630  19.802  0.00  0.00    +0.000 N 
ATOM      9  C   UNL     1       0.101  10.562  20.195  0.00  0.00    +0.000 C 
ATOM     10  O   UNL     1      -0.802  10.268  20.980  0.00  0.00    +0.000 OA
ATOM     11  H   UNL     1       1.785   9.938  19.190  0.00  0.00    +0.000 HD
BRANCH   9  12
ATOM     12  C   UNL     1       0.237  11.892  19.606  0.00  0.00    +0.000 A 
ATOM     13  C   UNL     1      -0.686  12.561  18.816  0.00  0.00    +0.000 A 
ATOM     14  C   UNL     1      -0.238  13.853  18.409  0.00  0.00    +0.000 A 
ATOM     15  C   UNL     1       1.012  14.141  18.908  0.00  0.00    +0.000 A 
ATOM     16  S   UNL     1       1.637  12.859  19.849  0.00  0.00    +0.000 S 
ENDBRANCH   9  12
ENDBRANCH   6   8
ENDBRANCH   5   6
BRANCH   1  17
ATOM     17  C   UNL     1       1.927   5.333  20.893  0.00  0.00    +0.000 C 
BRANCH  17  19
ATOM     18  C   UNL     1       1.066   2.988  20.577  0.00  0.00    +0.000 C 
ATOM     19  C   UNL     1       0.925   4.313  20.430  0.00  0.00    +0.000 C 
ENDBRANCH  17  19
ENDBRANCH   1  17
BRANCH   2  20
ATOM     20  S   UNL     1       4.026   4.253  18.646  0.00  0.00    +0.000 S 
BRANCH  20  21
ATOM     21  C   UNL     1       4.268   4.128  16.840  0.00  0.00    +0.000 C 
BRANCH  21  22
ATOM     22  C   UNL     1       5.734   4.287  16.433  0.00  0.00    +0.000 C 
ATOM     23  O   UNL     1       6.290   3.576  15.597  0.00  0.00    +0.000 OA
BRANCH  22  24
ATOM     24  C   UNL     1       6.540   5.375  17.093  0.00  0.00    +0.000 A 
ATOM     25  C   UNL     1       6.544   6.692  16.622  0.00  0.00    +0.000 A 
ATOM     26  C   UNL     1       7.312   7.670  17.268  0.00  0.00    +0.000 A 
ATOM     27  C   UNL     1       8.071   7.359  18.398  0.00  0.00    +0.000 A 
ATOM     28  C   UNL     1       8.081   6.049  18.871  0.00  0.00    +0.000 A 
ATOM     29  C   UNL     1       7.318   5.064  18.221  0.00  0.00    +0.000 A 
BRANCH  27  30
ATOM     30  O   UNL     1       8.792   8.401  18.912  0.00  0.00    +0.000 OA
ATOM     31  C   UNL     1       8.577   9.674  18.312  0.00  0.00    +0.000 C 
ENDBRANCH  27  30
ENDBRANCH  22  24
ENDBRANCH  21  22
ENDBRANCH  20  21
ENDBRANCH   2  20
TORSDOF 10
ENDMDL
MODEL 7
REMARK VINA RESULT:      -6.4      1.882      2.225
REMARK  Name = 
REMARK  12 active torsions:
REMARK  status: ('A' for Active; 'I' for Inactive)
REMARK    1  A    between atoms: C_2  and  C_3
REMARK    2  A    between atoms: C_3  and  N_4
REMARK    3  A    between atoms: C_5  and  S_6
REMARK    4  A    between atoms: S_6  and  C_7
REMARK    5  A    between atoms: C_7  and  C_8
REMARK    6  A    between atoms: C_8  and  C_10
REMARK    7  A    between atoms: C_13  and  O_14
REMARK    8  A    between atoms: O_14  and  C_15
REMARK    9  A    between atoms: C_20  and  C_21
REMARK   10  A    between atoms: C_21  and  C_22
REMARK   11  A    between atoms: C_21  and  N_23
REMARK   12  A    between atoms: C_24  and  C_26
REMARK                            x       y       z     vdW  Elec       q    Type
REMARK                         _______ _______ _______ _____ _____    ______ ____
ROOT
ATOM      1  N   UNL     1       1.678   8.435  20.195  0.00  0.00    +0.000 N 
ATOM      2  C   UNL     1       1.961   7.229  19.603  0.00  0.00    +0.000 A 
ATOM      3  N   UNL     1       2.122   7.399  18.313  0.00  0.00    +0.000 NA
ATOM      4  N   UNL     1       1.944   8.734  18.040  0.00  0.00    +0.000 NA
ATOM      5  C   UNL     1       1.705   9.368  19.175  0.00  0.00    +0.000 A 
ENDROOT
BRANCH   5   6
ATOM      6  C   UNL     1       1.519  10.850  19.344  0.00  0.00    +0.000 C 
ATOM      7  C   UNL     1       2.017  11.609  18.112  0.00  0.00    +0.000 C 
BRANCH   6   8
ATOM      8  N   UNL     1       0.105  11.114  19.553  0.00  0.00    +0.000 N 
ATOM      9  C   UNL     1      -0.377  11.888  20.588  0.00  0.00    +0.000 C 
ATOM     10  O   UNL     1       0.359  12.262  21.502  0.00  0.00    +0.000 OA
ATOM     11  H   UNL     1      -0.534  10.871  18.805  0.00  0.00    +0.000 HD
BRANCH   9  12
ATOM     12  C   UNL     1      -1.802  12.209  20.536  0.00  0.00    +0.000 A 
ATOM     13  C   UNL     1      -2.641  12.133  19.434  0.00  0.00    +0.000 A 
ATOM     14  C   UNL     1      -3.985  12.513  19.731  0.00  0.00    +0.000 A 
ATOM     15  C   UNL     1      -4.137  12.860  21.054  0.00  0.00    +0.000 A 
ATOM     16  S   UNL     1      -2.670  12.735  21.922  0.00  0.00    +0.000 S 
ENDBRANCH   9  12
ENDBRANCH   6   8
ENDBRANCH   5   6
BRANCH   1  17
ATOM     17  C   UNL     1       1.402   8.698  21.596  0.00  0.00    +0.000 C 
BRANCH  17  19
ATOM     18  C   UNL     1      -0.658   9.211  22.949  0.00  0.00    +0.000 C 
ATOM     19  C   UNL     1      -0.068   8.629  21.896  0.00  0.00    +0.000 C 
ENDBRANCH  17  19
ENDBRANCH   1  17
BRANCH   2  20
ATOM     20  S   UNL     1       2.072   5.722  20.450  0.00  0.00    +0.000 S 
BRANCH  20  21
ATOM     21  C   UNL     1       2.230   4.533  19.073  0.00  0.00    +0.000 C 
BRANCH  21  22
ATOM     22  C   UNL     1       3.585   3.824  19.062  0.00  0.00    +0.000 C 
ATOM     23  O   UNL     1       3.883   2.912  19.832  0.00  0.00    +0.000 OA
BRANCH  22  24
ATOM     24  C   UNL     1       4.612   4.270  18.055  0.00  0.00    +0.000 A 
ATOM     25  C   UNL     1       4.633   3.782  16.744  0.00  0.00    +0.000 A 
ATOM     26  C   UNL     1       5.610   4.224  15.842  0.00  0.00    +0.000 A 
ATOM     27  C   UNL     1       6.567   5.167  16.222  0.00  0.00    +0.000 A 
ATOM     28  C   UNL     1       6.561   5.653  17.528  0.00  0.00    +0.000 A 
ATOM     29  C   UNL     1       5.587   5.206  18.437  0.00  0.00    +0.000 A 
BRANCH  27  30
ATOM     30  O   UNL     1       7.475   5.489  15.252  0.00  0.00    +0.000 OA
ATOM     31  C   UNL     1       7.231   4.953  13.956  0.00  0.00    +0.000 C 
ENDBRANCH  27  30
ENDBRANCH  22  24
ENDBRANCH  21  22
ENDBRANCH  20  21
ENDBRANCH   2  20
TORSDOF 10
ENDMDL
MODEL 8
REMARK VINA RESULT:      -6.4      2.528      9.526
REMARK  Name = 
REMARK  12 active torsions:
REMARK  status: ('A' for Active; 'I' for Inactive)
REMARK    1  A    between atoms: C_2  and  C_3
REMARK    2  A    between atoms: C_3  and  N_4
REMARK    3  A    between atoms: C_5  and  S_6
REMARK    4  A    between atoms: S_6  and  C_7
REMARK    5  A    between atoms: C_7  and  C_8
REMARK    6  A    between atoms: C_8  and  C_10
REMARK    7  A    between atoms: C_13  and  O_14
REMARK    8  A    between atoms: O_14  and  C_15
REMARK    9  A    between atoms: C_20  and  C_21
REMARK   10  A    between atoms: C_21  and  C_22
REMARK   11  A    between atoms: C_21  and  N_23
REMARK   12  A    between atoms: C_24  and  C_26
REMARK                            x       y       z     vdW  Elec       q    Type
REMARK                         _______ _______ _______ _____ _____    ______ ____
ROOT
ATOM      1  N   UNL     1       1.282   8.466  19.977  0.00  0.00    +0.000 N 
ATOM      2  C   UNL     1       0.838   9.564  19.283  0.00  0.00    +0.000 A 
ATOM      3  N   UNL     1       1.426   9.613  18.112  0.00  0.00    +0.000 NA
ATOM      4  N   UNL     1       2.272   8.535  18.022  0.00  0.00    +0.000 NA
ATOM      5  C   UNL     1       2.168   7.824  19.132  0.00  0.00    +0.000 A 
ENDROOT
BRANCH   5   6
ATOM      6  C   UNL     1       2.867   6.526  19.427  0.00  0.00    +0.000 C 
ATOM      7  C   UNL     1       1.857   5.402  19.668  0.00  0.00    +0.000 C 
BRANCH   6   8
ATOM      8  N   UNL     1       3.719   6.196  18.296  0.00  0.00    +0.000 N 
ATOM      9  C   UNL     1       4.876   5.453  18.409  0.00  0.00    +0.000 C 
ATOM     10  O   UNL     1       5.348   5.170  19.511  0.00  0.00    +0.000 OA
ATOM     11  H   UNL     1       3.352   6.362  17.366  0.00  0.00    +0.000 HD
BRANCH   9  12
ATOM     12  C   UNL     1       5.503   5.052  17.152  0.00  0.00    +0.000 A 
ATOM     13  C   UNL     1       5.034   4.122  16.237  0.00  0.00    +0.000 A 
ATOM     14  C   UNL     1       5.891   3.973  15.105  0.00  0.00    +0.000 A 
ATOM     15  C   UNL     1       6.987   4.802  15.182  0.00  0.00    +0.000 A 
ATOM     16  S   UNL     1       6.982   5.740  16.610  0.00  0.00    +0.000 S 
ENDBRANCH   9  12
ENDBRANCH   6   8
ENDBRANCH   5   6
BRANCH   1  17
ATOM     17  C   UNL     1       0.913   8.050  21.318  0.00  0.00    +0.000 C 
BRANCH  17  19
ATOM     18  C   UNL     1       0.275   9.462  23.302  0.00  0.00    +0.000 C 
ATOM     19  C   UNL     1       1.132   9.147  22.321  0.00  0.00    +0.000 C 
ENDBRANCH  17  19
ENDBRANCH   1  17
BRANCH   2  20
ATOM     20  S   UNL     1      -0.316  10.707  19.888  0.00  0.00    +0.000 S 
BRANCH  20  21
ATOM     21  C   UNL     1      -0.795  11.592  18.364  0.00  0.00    +0.000 C 
BRANCH  21  22
ATOM     22  C   UNL     1      -2.001  10.956  17.671  0.00  0.00    +0.000 C 
ATOM     23  O   UNL     1      -1.914  10.227  16.684  0.00  0.00    +0.000 OA
BRANCH  22  24
ATOM     24  C   UNL     1      -3.372  11.242  18.227  0.00  0.00    +0.000 A 
ATOM     25  C   UNL     1      -4.517  10.583  17.767  0.00  0.00    +0.000 A 
ATOM     26  C   UNL     1      -5.771  10.885  18.313  0.00  0.00    +0.000 A 
ATOM     27  C   UNL     1      -5.905  11.830  19.332  0.00  0.00    +0.000 A 
ATOM     28  C   UNL     1      -4.773  12.499  19.791  0.00  0.00    +0.000 A 
ATOM     29  C   UNL     1      -3.513  12.204  19.241  0.00  0.00    +0.000 A 
BRANCH  27  30
ATOM     30  O   UNL     1      -7.188  12.044  19.753  0.00  0.00    +0.000 OA
ATOM     31  C   UNL     1      -7.659  11.199  20.797  0.00  0.00    +0.000 C 
ENDBRANCH  27  30
ENDBRANCH  22  24
ENDBRANCH  21  22
ENDBRANCH  20  21
ENDBRANCH   2  20
TORSDOF 10
ENDMDL
MODEL 9
REMARK VINA RESULT:      -6.3      3.545      8.236
REMARK  Name = 
REMARK  12 active torsions:
REMARK  status: ('A' for Active; 'I' for Inactive)
REMARK    1  A    between atoms: C_2  and  C_3
REMARK    2  A    between atoms: C_3  and  N_4
REMARK    3  A    between atoms: C_5  and  S_6
REMARK    4  A    between atoms: S_6  and  C_7
REMARK    5  A    between atoms: C_7  and  C_8
REMARK    6  A    between atoms: C_8  and  C_10
REMARK    7  A    between atoms: C_13  and  O_14
REMARK    8  A    between atoms: O_14  and  C_15
REMARK    9  A    between atoms: C_20  and  C_21
REMARK   10  A    between atoms: C_21  and  C_22
REMARK   11  A    between atoms: C_21  and  N_23
REMARK   12  A    between atoms: C_24  and  C_26
REMARK                            x       y       z     vdW  Elec       q    Type
REMARK                         _______ _______ _______ _____ _____    ______ ____
ROOT
ATOM      1  N   UNL     1       1.394   8.795  19.880  0.00  0.00    +0.000 N 
ATOM      2  C   UNL     1       0.813   9.712  19.041  0.00  0.00    +0.000 A 
ATOM      3  N   UNL     1       1.122   9.430  17.798  0.00  0.00    +0.000 NA
ATOM      4  N   UNL     1       1.918   8.310  17.807  0.00  0.00    +0.000 NA
ATOM      5  C   UNL     1       2.062   7.906  19.058  0.00  0.00    +0.000 A 
ENDROOT
BRANCH   5   6
ATOM      6  C   UNL     1       2.800   6.680  19.518  0.00  0.00    +0.000 C 
ATOM      7  C   UNL     1       1.824   5.566  19.906  0.00  0.00    +0.000 C 
BRANCH   6   8
ATOM      8  N   UNL     1       3.663   6.231  18.438  0.00  0.00    +0.000 N 
ATOM      9  C   UNL     1       4.828   5.520  18.643  0.00  0.00    +0.000 C 
ATOM     10  O   UNL     1       5.295   5.373  19.773  0.00  0.00    +0.000 OA
ATOM     11  H   UNL     1       3.300   6.283  17.493  0.00  0.00    +0.000 HD
BRANCH   9  12
ATOM     12  C   UNL     1       5.468   4.984  17.444  0.00  0.00    +0.000 A 
ATOM     13  C   UNL     1       4.846   4.532  16.290  0.00  0.00    +0.000 A 
ATOM     14  C   UNL     1       5.771   4.077  15.302  0.00  0.00    +0.000 A 
ATOM     15  C   UNL     1       7.074   4.203  15.726  0.00  0.00    +0.000 A 
ATOM     16  S   UNL     1       7.175   4.855  17.302  0.00  0.00    +0.000 S 
ENDBRANCH   9  12
ENDBRANCH   6   8
ENDBRANCH   5   6
BRANCH   1  17
ATOM     17  C   UNL     1       1.335   8.750  21.330  0.00  0.00    +0.000 C 
BRANCH  17  19
ATOM     18  C   UNL     1      -0.535   9.276  22.932  0.00  0.00    +0.000 C 
ATOM     19  C   UNL     1      -0.081   8.669  21.827  0.00  0.00    +0.000 C 
ENDBRANCH  17  19
ENDBRANCH   1  17
BRANCH   2  20
ATOM     20  S   UNL     1      -0.166  11.042  19.566  0.00  0.00    +0.000 S 
BRANCH  20  21
ATOM     21  C   UNL     1       0.804  12.473  18.975  0.00  0.00    +0.000 C 
BRANCH  21  22
ATOM     22  C   UNL     1       1.826  12.954  20.006  0.00  0.00    +0.000 C 
ATOM     23  O   UNL     1       1.935  12.474  21.133  0.00  0.00    +0.000 OA
BRANCH  22  24
ATOM     24  C   UNL     1       2.747  14.082  19.619  0.00  0.00    +0.000 A 
ATOM     25  C   UNL     1       2.841  14.552  18.305  0.00  0.00    +0.000 A 
ATOM     26  C   UNL     1       3.714  15.601  17.992  0.00  0.00    +0.000 A 
ATOM     27  C   UNL     1       4.494  16.209  18.978  0.00  0.00    +0.000 A 
ATOM     28  C   UNL     1       4.416  15.742  20.289  0.00  0.00    +0.000 A 
ATOM     29  C   UNL     1       3.546  14.684  20.606  0.00  0.00    +0.000 A 
BRANCH  27  30
ATOM     30  O   UNL     1       5.320  17.201  18.530  0.00  0.00    +0.000 OA
ATOM     31  C   UNL     1       6.677  17.132  18.950  0.00  0.00    +0.000 C 
ENDBRANCH  27  30
ENDBRANCH  22  24
ENDBRANCH  21  22
ENDBRANCH  20  21
ENDBRANCH   2  20
TORSDOF 10
ENDMDL
