MODEL 1
REMARK VINA RESULT:      -8.4      0.000      0.000
REMARK  Name = 
REMARK  7 active torsions:
REMARK  status: ('A' for Active; 'I' for Inactive)
REMARK    1  A    between atoms: C_1  and  O_2
REMARK    2  A    between atoms: O_2  and  C_3
REMARK    3  A    between atoms: C_6  and  C_7
REMARK    4  A    between atoms: C_7  and  N_8
REMARK    5  A    between atoms: C_11  and  O_12
REMARK    6  A    between atoms: C_11  and  C_13
REMARK    7  A    between atoms: N_19  and  C_20
REMARK                            x       y       z     vdW  Elec       q    Type
REMARK                         _______ _______ _______ _____ _____    ______ ____
ROOT
ATOM      1  N   UNL     1       4.665   5.950  17.266  0.00  0.00    +0.000 N 
ATOM      2  C   UNL     1       4.827   5.413  18.540  0.00  0.00    +0.000 C 
ATOM      3  O   UNL     1       5.718   5.775  19.301  0.00  0.00    +0.000 OA
ATOM      4  C   UNL     1       3.395   5.066  18.811  0.00  0.00    +0.000 C 
ATOM      5  C   UNL     1       3.101   6.514  18.893  0.00  0.00    +0.000 A 
ATOM      6  C   UNL     1       2.486   6.896  20.185  0.00  0.00    +0.000 A 
ATOM      7  C   UNL     1       1.757   8.014  20.286  0.00  0.00    +0.000 A 
ATOM      8 CL   UNL     1       0.948   8.411  21.743  0.00  0.00    +0.000 Cl
ATOM      9  C   UNL     1       1.638   8.587  19.059  0.00  0.00    +0.000 A 
ATOM     10  C   UNL     1       2.492   8.087  17.809  0.00  0.00    +0.000 A 
ATOM     11  C   UNL     1       3.490   7.112  17.533  0.00  0.00    +0.000 A 
ENDROOT
BRANCH   4  12
ATOM     12  C   UNL     1       3.251   4.026  19.876  0.00  0.00    +0.000 C 
ATOM     13  C   UNL     1       4.114   2.804  19.536  0.00  0.00    +0.000 C 
ATOM     14  O   UNL     1       5.332   2.729  19.549  0.00  0.00    +0.000 OA
ATOM     15  N   UNL     1       3.257   1.829  19.096  0.00  0.00    +0.000 N 
ATOM     16  C   UNL     1       1.970   2.206  19.229  0.00  0.00    +0.000 C 
ATOM     17  N   UNL     1       0.992   1.474  18.865  0.00  0.00    +0.000 NA
ATOM     18  N   UNL     1       1.890   3.440  19.784  0.00  0.00    +0.000 N 
ATOM     19  C   UNL     1       0.668   4.224  19.842  0.00  0.00    +0.000 C 
ATOM     20  H   UNL     1       3.606   0.981  18.684  0.00  0.00    +0.000 HD
ATOM     21  H   UNL     1       1.315   0.575  18.511  0.00  0.00    +0.000 HD
ENDBRANCH   4  12
BRANCH   4  22
ATOM     22  O   UNL     1       2.458   4.725  17.756  0.00  0.00    +0.000 OA
ATOM     23  H   UNL     1       1.989   5.554  17.544  0.00  0.00    +0.000 HD
ENDBRANCH   4  22
BRANCH   1  24
ATOM     24  C   UNL     1       6.080   5.702  16.486  0.00  0.00    +0.000 C 
BRANCH  24  28
ATOM     25  C   UNL     1       6.856   3.691  12.314  0.00  0.00    +0.000 A 
ATOM     26  C   UNL     1       5.763   3.425  13.134  0.00  0.00    +0.000 A 
ATOM     27  C   UNL     1       5.523   4.132  14.394  0.00  0.00    +0.000 A 
ATOM     28  C   UNL     1       6.377   5.086  14.972  0.00  0.00    +0.000 A 
ATOM     29  C   UNL     1       7.436   5.436  14.041  0.00  0.00    +0.000 A 
ATOM     30  C   UNL     1       7.662   4.738  12.754  0.00  0.00    +0.000 A 
BRANCH  25  32
ATOM     31  C   UNL     1       6.739   1.540  11.192  0.00  0.00    +0.000 C 
ATOM     32  O   UNL     1       6.989   2.955  11.158  0.00  0.00    +0.000 OA
ENDBRANCH  25  32
ENDBRANCH  24  28
ENDBRANCH   1  24
TORSDOF 5
ENDMDL
MODEL 2
REMARK VINA RESULT:      -7.7      2.946      6.862
REMARK  Name = 
REMARK  7 active torsions:
REMARK  status: ('A' for Active; 'I' for Inactive)
REMARK    1  A    between atoms: C_1  and  O_2
REMARK    2  A    between atoms: O_2  and  C_3
REMARK    3  A    between atoms: C_6  and  C_7
REMARK    4  A    between atoms: C_7  and  N_8
REMARK    5  A    between atoms: C_11  and  O_12
REMARK    6  A    between atoms: C_11  and  C_13
REMARK    7  A    between atoms: N_19  and  C_20
REMARK                            x       y       z     vdW  Elec       q    Type
REMARK                         _______ _______ _______ _____ _____    ______ ____
ROOT
ATOM      1  N   UNL     1       3.858   6.151  18.944  0.00  0.00    +0.000 N 
ATOM      2  C   UNL     1       3.137   5.061  18.462  0.00  0.00    +0.000 C 
ATOM      3  O   UNL     1       2.108   5.187  17.806  0.00  0.00    +0.000 OA
ATOM      4  C   UNL     1       4.276   4.099  18.313  0.00  0.00    +0.000 C 
ATOM      5  C   UNL     1       4.776   4.925  17.193  0.00  0.00    +0.000 A 
ATOM      6  C   UNL     1       4.923   4.153  15.938  0.00  0.00    +0.000 A 
ATOM      7  C   UNL     1       5.752   4.572  14.974  0.00  0.00    +0.000 A 
ATOM      8 CL   UNL     1       6.017   3.632  13.567  0.00  0.00    +0.000 Cl
ATOM      9  C   UNL     1       6.423   5.674  15.405  0.00  0.00    +0.000 A 
ATOM     10  C   UNL     1       6.021   6.433  16.747  0.00  0.00    +0.000 A 
ATOM     11  C   UNL     1       5.038   6.324  17.770  0.00  0.00    +0.000 A 
ENDROOT
BRANCH   4  12
ATOM     12  C   UNL     1       3.820   2.674  18.286  0.00  0.00    +0.000 C 
ATOM     13  C   UNL     1       2.476   2.567  17.556  0.00  0.00    +0.000 C 
ATOM     14  O   UNL     1       2.265   2.715  16.362  0.00  0.00    +0.000 OA
ATOM     15  N   UNL     1       1.517   2.387  18.519  0.00  0.00    +0.000 N 
ATOM     16  C   UNL     1       2.069   2.234  19.740  0.00  0.00    +0.000 C 
ATOM     17  N   UNL     1       1.376   2.074  20.798  0.00  0.00    +0.000 NA
ATOM     18  N   UNL     1       3.421   2.280  19.661  0.00  0.00    +0.000 N 
ATOM     19  C   UNL     1       4.297   2.384  20.817  0.00  0.00    +0.000 C 
ATOM     20  H   UNL     1       0.540   2.428  18.292  0.00  0.00    +0.000 HD
ATOM     21  H   UNL     1       0.380   2.038  20.586  0.00  0.00    +0.000 HD
ENDBRANCH   4  12
BRANCH   4  22
ATOM     22  O   UNL     1       5.460   4.149  19.151  0.00  0.00    +0.000 OA
ATOM     23  H   UNL     1       5.496   5.060  19.499  0.00  0.00    +0.000 HD
ENDBRANCH   4  22
BRANCH   1  24
ATOM     24  C   UNL     1       2.816   7.012  19.863  0.00  0.00    +0.000 C 
BRANCH  24  28
ATOM     25  C   UNL     1      -0.235  10.440  18.870  0.00  0.00    +0.000 A 
ATOM     26  C   UNL     1      -0.005   9.925  20.142  0.00  0.00    +0.000 A 
ATOM     27  C   UNL     1       1.011   8.906  20.416  0.00  0.00    +0.000 A 
ATOM     28  C   UNL     1       1.811   8.269  19.453  0.00  0.00    +0.000 A 
ATOM     29  C   UNL     1       1.643   8.912  18.160  0.00  0.00    +0.000 A 
ATOM     30  C   UNL     1       0.632   9.961  17.891  0.00  0.00    +0.000 A 
BRANCH  25  32
ATOM     31  C   UNL     1      -2.162  11.264  17.641  0.00  0.00    +0.000 C 
ATOM     32  O   UNL     1      -1.226  11.385  18.726  0.00  0.00    +0.000 OA
ENDBRANCH  25  32
ENDBRANCH  24  28
ENDBRANCH   1  24
TORSDOF 5
ENDMDL
MODEL 3
REMARK VINA RESULT:      -7.5      2.931      6.876
REMARK  Name = 
REMARK  7 active torsions:
REMARK  status: ('A' for Active; 'I' for Inactive)
REMARK    1  A    between atoms: C_1  and  O_2
REMARK    2  A    between atoms: O_2  and  C_3
REMARK    3  A    between atoms: C_6  and  C_7
REMARK    4  A    between atoms: C_7  and  N_8
REMARK    5  A    between atoms: C_11  and  O_12
REMARK    6  A    between atoms: C_11  and  C_13
REMARK    7  A    between atoms: N_19  and  C_20
REMARK                            x       y       z     vdW  Elec       q    Type
REMARK                         _______ _______ _______ _____ _____    ______ ____
ROOT
ATOM      1  N   UNL     1       3.908   6.117  19.012  0.00  0.00    +0.000 N 
ATOM      2  C   UNL     1       3.168   5.043  18.525  0.00  0.00    +0.000 C 
ATOM      3  O   UNL     1       2.123   5.189  17.899  0.00  0.00    +0.000 OA
ATOM      4  C   UNL     1       4.296   4.078  18.324  0.00  0.00    +0.000 C 
ATOM      5  C   UNL     1       4.772   4.927  17.210  0.00  0.00    +0.000 A 
ATOM      6  C   UNL     1       4.882   4.182  15.935  0.00  0.00    +0.000 A 
ATOM      7  C   UNL     1       5.687   4.619  14.959  0.00  0.00    +0.000 A 
ATOM      8 CL   UNL     1       5.909   3.710  13.524  0.00  0.00    +0.000 Cl
ATOM      9  C   UNL     1       6.376   5.707  15.397  0.00  0.00    +0.000 A 
ATOM     10  C   UNL     1       6.014   6.438  16.766  0.00  0.00    +0.000 A 
ATOM     11  C   UNL     1       5.058   6.311  17.811  0.00  0.00    +0.000 A 
ENDROOT
BRANCH   4  12
ATOM     12  C   UNL     1       3.831   2.657  18.277  0.00  0.00    +0.000 C 
ATOM     13  C   UNL     1       2.480   2.570  17.557  0.00  0.00    +0.000 C 
ATOM     14  O   UNL     1       2.260   2.740  16.369  0.00  0.00    +0.000 OA
ATOM     15  N   UNL     1       1.530   2.380  18.526  0.00  0.00    +0.000 N 
ATOM     16  C   UNL     1       2.092   2.202  19.739  0.00  0.00    +0.000 C 
ATOM     17  N   UNL     1       1.407   2.029  20.801  0.00  0.00    +0.000 NA
ATOM     18  N   UNL     1       3.443   2.242  19.649  0.00  0.00    +0.000 N 
ATOM     19  C   UNL     1       4.330   2.321  20.798  0.00  0.00    +0.000 C 
ATOM     20  H   UNL     1       0.550   2.431  18.309  0.00  0.00    +0.000 HD
ATOM     21  H   UNL     1       0.409   2.003  20.598  0.00  0.00    +0.000 HD
ENDBRANCH   4  12
BRANCH   4  22
ATOM     22  O   UNL     1       5.502   4.103  19.131  0.00  0.00    +0.000 OA
ATOM     23  H   UNL     1       5.497   4.967  19.585  0.00  0.00    +0.000 HD
ENDBRANCH   4  22
BRANCH   1  24
ATOM     24  C   UNL     1       2.896   6.963  19.978  0.00  0.00    +0.000 C 
BRANCH  24  28
ATOM     25  C   UNL     1       0.154  10.584  18.785  0.00  0.00    +0.000 A 
ATOM     26  C   UNL     1       0.958   9.871  17.901  0.00  0.00    +0.000 A 
ATOM     27  C   UNL     1       1.740   8.700  18.304  0.00  0.00    +0.000 A 
ATOM     28  C   UNL     1       1.849   8.201  19.613  0.00  0.00    +0.000 A 
ATOM     29  C   UNL     1       0.906   8.879  20.486  0.00  0.00    +0.000 A 
ATOM     30  C   UNL     1       0.095  10.046  20.069  0.00  0.00    +0.000 A 
BRANCH  25  32
ATOM     31  C   UNL     1      -0.171  12.991  18.762  0.00  0.00    +0.000 C 
ATOM     32  O   UNL     1      -0.528  11.677  18.299  0.00  0.00    +0.000 OA
ENDBRANCH  25  32
ENDBRANCH  24  28
ENDBRANCH   1  24
TORSDOF 5
ENDMDL
MODEL 4
REMARK VINA RESULT:      -7.3      3.131      7.809
REMARK  Name = 
REMARK  7 active torsions:
REMARK  status: ('A' for Active; 'I' for Inactive)
REMARK    1  A    between atoms: C_1  and  O_2
REMARK    2  A    between atoms: O_2  and  C_3
REMARK    3  A    between atoms: C_6  and  C_7
REMARK    4  A    between atoms: C_7  and  N_8
REMARK    5  A    between atoms: C_11  and  O_12
REMARK    6  A    between atoms: C_11  and  C_13
REMARK    7  A    between atoms: N_19  and  C_20
REMARK                            x       y       z     vdW  Elec       q    Type
REMARK                         _______ _______ _______ _____ _____    ______ ____
ROOT
ATOM      1  N   UNL     1       3.093   6.485  17.756  0.00  0.00    +0.000 N 
ATOM      2  C   UNL     1       4.317   6.156  18.334  0.00  0.00    +0.000 C 
ATOM      3  O   UNL     1       4.532   6.272  19.536  0.00  0.00    +0.000 OA
ATOM      4  C   UNL     1       4.731   5.088  17.368  0.00  0.00    +0.000 C 
ATOM      5  C   UNL     1       3.654   4.233  17.913  0.00  0.00    +0.000 A 
ATOM      6  C   UNL     1       4.160   2.939  18.424  0.00  0.00    +0.000 A 
ATOM      7  C   UNL     1       3.343   1.884  18.532  0.00  0.00    +0.000 A 
ATOM      8 CL   UNL     1       3.939   0.352  19.015  0.00  0.00    +0.000 Cl
ATOM      9  C   UNL     1       2.123   2.206  18.027  0.00  0.00    +0.000 A 
ATOM     10  C   UNL     1       1.738   3.704  17.642  0.00  0.00    +0.000 A 
ATOM     11  C   UNL     1       2.339   4.993  17.683  0.00  0.00    +0.000 A 
ENDROOT
BRANCH   4  12
ATOM     12  C   UNL     1       6.207   4.847  17.382  0.00  0.00    +0.000 C 
ATOM     13  C   UNL     1       6.957   6.185  17.405  0.00  0.00    +0.000 C 
ATOM     14  O   UNL     1       7.023   6.983  18.326  0.00  0.00    +0.000 OA
ATOM     15  N   UNL     1       7.453   6.379  16.142  0.00  0.00    +0.000 N 
ATOM     16  C   UNL     1       7.240   5.303  15.358  0.00  0.00    +0.000 C 
ATOM     17  N   UNL     1       7.593   5.257  14.134  0.00  0.00    +0.000 NA
ATOM     18  N   UNL     1       6.613   4.324  16.053  0.00  0.00    +0.000 N 
ATOM     19  C   UNL     1       6.034   3.139  15.441  0.00  0.00    +0.000 C 
ATOM     20  H   UNL     1       7.866   7.256  15.877  0.00  0.00    +0.000 HD
ATOM     21  H   UNL     1       8.081   6.108  13.857  0.00  0.00    +0.000 HD
ENDBRANCH   4  12
BRANCH   4  22
ATOM     22  O   UNL     1       4.314   5.084  15.978  0.00  0.00    +0.000 OA
ATOM     23  H   UNL     1       3.678   5.819  15.892  0.00  0.00    +0.000 HD
ENDBRANCH   4  22
BRANCH   1  24
ATOM     24  C   UNL     1       2.820   8.052  18.135  0.00  0.00    +0.000 C 
BRANCH  24  28
ATOM     25  C   UNL     1      -0.190  10.221  21.012  0.00  0.00    +0.000 A 
ATOM     26  C   UNL     1      -0.012  10.532  19.667  0.00  0.00    +0.000 A 
ATOM     27  C   UNL     1       0.885   9.778  18.788  0.00  0.00    +0.000 A 
ATOM     28  C   UNL     1       1.725   8.725  19.187  0.00  0.00    +0.000 A 
ATOM     29  C   UNL     1       1.427   8.340  20.556  0.00  0.00    +0.000 A 
ATOM     30  C   UNL     1       0.499   9.088  21.436  0.00  0.00    +0.000 A 
BRANCH  25  32
ATOM     31  C   UNL     1      -1.188  10.768  23.158  0.00  0.00    +0.000 C 
ATOM     32  O   UNL     1      -1.050  11.007  21.747  0.00  0.00    +0.000 OA
ENDBRANCH  25  32
ENDBRANCH  24  28
ENDBRANCH   1  24
TORSDOF 5
ENDMDL
MODEL 5
REMARK VINA RESULT:      -7.2      9.263     12.802
REMARK  Name = 
REMARK  7 active torsions:
REMARK  status: ('A' for Active; 'I' for Inactive)
REMARK    1  A    between atoms: C_1  and  O_2
REMARK    2  A    between atoms: O_2  and  C_3
REMARK    3  A    between atoms: C_6  and  C_7
REMARK    4  A    between atoms: C_7  and  N_8
REMARK    5  A    between atoms: C_11  and  O_12
REMARK    6  A    between atoms: C_11  and  C_13
REMARK    7  A    between atoms: N_19  and  C_20
REMARK                            x       y       z     vdW  Elec       q    Type
REMARK                         _______ _______ _______ _____ _____    ______ ____
ROOT
ATOM      1  N   UNL     1       6.480  14.633  17.876  0.00  0.00    +0.000 N 
ATOM      2  C   UNL     1       7.041  15.264  18.983  0.00  0.00    +0.000 C 
ATOM      3  O   UNL     1       6.657  15.053  20.129  0.00  0.00    +0.000 OA
ATOM      4  C   UNL     1       8.423  15.463  18.440  0.00  0.00    +0.000 C 
ATOM      5  C   UNL     1       8.623  13.999  18.521  0.00  0.00    +0.000 A 
ATOM      6  C   UNL     1       9.796  13.631  19.347  0.00  0.00    +0.000 A 
ATOM      7  C   UNL     1      10.397  12.446  19.184  0.00  0.00    +0.000 A 
ATOM      8 CL   UNL     1      11.820  12.052  20.053  0.00  0.00    +0.000 Cl
ATOM      9  C   UNL     1       9.821  11.788  18.143  0.00  0.00    +0.000 A 
ATOM     10  C   UNL     1       8.475  12.303  17.462  0.00  0.00    +0.000 A 
ATOM     11  C   UNL     1       7.545  13.365  17.631  0.00  0.00    +0.000 A 
ENDROOT
BRANCH   4  12
ATOM     12  C   UNL     1       9.168  16.545  19.156  0.00  0.00    +0.000 C 
ATOM     13  C   UNL     1       8.410  17.872  19.035  0.00  0.00    +0.000 C 
ATOM     14  O   UNL     1       7.352  18.174  19.563  0.00  0.00    +0.000 OA
ATOM     15  N   UNL     1       9.090  18.630  18.116  0.00  0.00    +0.000 N 
ATOM     16  C   UNL     1      10.236  18.032  17.736  0.00  0.00    +0.000 C 
ATOM     17  N   UNL     1      11.027  18.536  16.872  0.00  0.00    +0.000 NA
ATOM     18  N   UNL     1      10.401  16.857  18.390  0.00  0.00    +0.000 N 
ATOM     19  C   UNL     1      11.404  15.866  18.036  0.00  0.00    +0.000 C 
ATOM     20  H   UNL     1       8.705  19.490  17.768  0.00  0.00    +0.000 HD
ATOM     21  H   UNL     1      10.697  19.446  16.555  0.00  0.00    +0.000 HD
ENDBRANCH   4  12
BRANCH   4  22
ATOM     22  O   UNL     1       8.692  15.629  17.023  0.00  0.00    +0.000 OA
ATOM     23  H   UNL     1       8.571  16.581  16.843  0.00  0.00    +0.000 HD
ENDBRANCH   4  22
BRANCH   1  24
ATOM     24  C   UNL     1       4.885  14.990  17.911  0.00  0.00    +0.000 C 
BRANCH  24  28
ATOM     25  C   UNL     1       1.470  12.744  20.221  0.00  0.00    +0.000 A 
ATOM     26  C   UNL     1       2.127  13.881  20.683  0.00  0.00    +0.000 A 
ATOM     27  C   UNL     1       3.136  14.592  19.894  0.00  0.00    +0.000 A 
ATOM     28  C   UNL     1       3.623  14.192  18.639  0.00  0.00    +0.000 A 
ATOM     29  C   UNL     1       2.834  13.084  18.127  0.00  0.00    +0.000 A 
ATOM     30  C   UNL     1       1.796  12.382  18.917  0.00  0.00    +0.000 A 
BRANCH  25  32
ATOM     31  C   UNL     1       0.552  10.718  21.198  0.00  0.00    +0.000 C 
ATOM     32  O   UNL     1       0.549  12.149  21.054  0.00  0.00    +0.000 OA
ENDBRANCH  25  32
ENDBRANCH  24  28
ENDBRANCH   1  24
TORSDOF 5
ENDMDL
MODEL 6
REMARK VINA RESULT:      -7.2      3.163      7.612
REMARK  Name = 
REMARK  7 active torsions:
REMARK  status: ('A' for Active; 'I' for Inactive)
REMARK    1  A    between atoms: C_1  and  O_2
REMARK    2  A    between atoms: O_2  and  C_3
REMARK    3  A    between atoms: C_6  and  C_7
REMARK    4  A    between atoms: C_7  and  N_8
REMARK    5  A    between atoms: C_11  and  O_12
REMARK    6  A    between atoms: C_11  and  C_13
REMARK    7  A    between atoms: N_19  and  C_20
REMARK                            x       y       z     vdW  Elec       q    Type
REMARK                         _______ _______ _______ _____ _____    ______ ____
ROOT
ATOM      1  N   UNL     1       3.185   6.586  17.865  0.00  0.00    +0.000 N 
ATOM      2  C   UNL     1       4.405   6.199  18.413  0.00  0.00    +0.000 C 
ATOM      3  O   UNL     1       4.642   6.268  19.615  0.00  0.00    +0.000 OA
ATOM      4  C   UNL     1       4.771   5.152  17.406  0.00  0.00    +0.000 C 
ATOM      5  C   UNL     1       3.675   4.313  17.939  0.00  0.00    +0.000 A 
ATOM      6  C   UNL     1       4.147   2.987  18.400  0.00  0.00    +0.000 A 
ATOM      7  C   UNL     1       3.299   1.956  18.486  0.00  0.00    +0.000 A 
ATOM      8 CL   UNL     1       3.852   0.391  18.909  0.00  0.00    +0.000 Cl
ATOM      9  C   UNL     1       2.082   2.332  18.010  0.00  0.00    +0.000 A 
ATOM     10  C   UNL     1       1.740   3.854  17.682  0.00  0.00    +0.000 A 
ATOM     11  C   UNL     1       2.382   5.121  17.755  0.00  0.00    +0.000 A 
ENDROOT
BRANCH   4  12
ATOM     12  C   UNL     1       6.239   4.864  17.389  0.00  0.00    +0.000 C 
ATOM     13  C   UNL     1       7.031   6.177  17.399  0.00  0.00    +0.000 C 
ATOM     14  O   UNL     1       7.141   6.971  18.320  0.00  0.00    +0.000 OA
ATOM     15  N   UNL     1       7.507   6.359  16.127  0.00  0.00    +0.000 N 
ATOM     16  C   UNL     1       7.244   5.293  15.345  0.00  0.00    +0.000 C 
ATOM     17  N   UNL     1       7.570   5.239  14.114  0.00  0.00    +0.000 NA
ATOM     18  N   UNL     1       6.600   4.332  16.051  0.00  0.00    +0.000 N 
ATOM     19  C   UNL     1       5.971   3.168  15.448  0.00  0.00    +0.000 C 
ATOM     20  H   UNL     1       7.941   7.223  15.854  0.00  0.00    +0.000 HD
ATOM     21  H   UNL     1       8.079   6.074  13.829  0.00  0.00    +0.000 HD
ENDBRANCH   4  12
BRANCH   4  22
ATOM     22  O   UNL     1       4.334   5.207  16.023  0.00  0.00    +0.000 OA
ATOM     23  H   UNL     1       3.564   4.609  15.967  0.00  0.00    +0.000 HD
ENDBRANCH   4  22
BRANCH   1  24
ATOM     24  C   UNL     1       2.967   8.147  18.300  0.00  0.00    +0.000 C 
BRANCH  24  28
ATOM     25  C   UNL     1      -0.838  10.597  19.551  0.00  0.00    +0.000 A 
ATOM     26  C   UNL     1      -0.431  10.377  18.239  0.00  0.00    +0.000 A 
ATOM     27  C   UNL     1       0.722   9.542  17.892  0.00  0.00    +0.000 A 
ATOM     28  C   UNL     1       1.597   8.937  18.809  0.00  0.00    +0.000 A 
ATOM     29  C   UNL     1       1.079   9.075  20.160  0.00  0.00    +0.000 A 
ATOM     30  C   UNL     1      -0.103   9.898  20.505  0.00  0.00    +0.000 A 
BRANCH  25  32
ATOM     31  C   UNL     1      -2.816  11.695  18.664  0.00  0.00    +0.000 C 
ATOM     32  O   UNL     1      -1.929  11.411  19.760  0.00  0.00    +0.000 OA
ENDBRANCH  25  32
ENDBRANCH  24  28
ENDBRANCH   1  24
TORSDOF 5
ENDMDL
MODEL 7
REMARK VINA RESULT:      -7.1      1.149      1.471
REMARK  Name = 
REMARK  7 active torsions:
REMARK  status: ('A' for Active; 'I' for Inactive)
REMARK    1  A    between atoms: C_1  and  O_2
REMARK    2  A    between atoms: O_2  and  C_3
REMARK    3  A    between atoms: C_6  and  C_7
REMARK    4  A    between atoms: C_7  and  N_8
REMARK    5  A    between atoms: C_11  and  O_12
REMARK    6  A    between atoms: C_11  and  C_13
REMARK    7  A    between atoms: N_19  and  C_20
REMARK                            x       y       z     vdW  Elec       q    Type
REMARK                         _______ _______ _______ _____ _____    ______ ____
ROOT
ATOM      1  N   UNL     1       4.168   6.115  17.418  0.00  0.00    +0.000 N 
ATOM      2  C   UNL     1       4.036   5.315  18.550  0.00  0.00    +0.000 C 
ATOM      3  O   UNL     1       4.860   5.315  19.459  0.00  0.00    +0.000 OA
ATOM      4  C   UNL     1       2.540   5.243  18.590  0.00  0.00    +0.000 C 
ATOM      5  C   UNL     1       2.521   6.674  18.962  0.00  0.00    +0.000 A 
ATOM      6  C   UNL     1       1.809   6.919  20.238  0.00  0.00    +0.000 A 
ATOM      7  C   UNL     1       1.301   8.127  20.511  0.00  0.00    +0.000 A 
ATOM      8 CL   UNL     1       0.380   8.396  21.931  0.00  0.00    +0.000 Cl
ATOM      9  C   UNL     1       1.474   8.943  19.438  0.00  0.00    +0.000 A 
ATOM     10  C   UNL     1       2.389   8.525  18.201  0.00  0.00    +0.000 A 
ATOM     11  C   UNL     1       3.211   7.429  17.818  0.00  0.00    +0.000 A 
ENDROOT
BRANCH   4  12
ATOM     12  C   UNL     1       2.046   4.070  19.376  0.00  0.00    +0.000 C 
ATOM     13  C   UNL     1       2.769   4.001  20.727  0.00  0.00    +0.000 C 
ATOM     14  O   UNL     1       2.645   4.760  21.675  0.00  0.00    +0.000 OA
ATOM     15  N   UNL     1       3.682   2.983  20.632  0.00  0.00    +0.000 N 
ATOM     16  C   UNL     1       3.554   2.314  19.469  0.00  0.00    +0.000 C 
ATOM     17  N   UNL     1       4.309   1.338  19.145  0.00  0.00    +0.000 NA
ATOM     18  N   UNL     1       2.540   2.827  18.732  0.00  0.00    +0.000 N 
ATOM     19  C   UNL     1       2.298   2.488  17.339  0.00  0.00    +0.000 C 
ATOM     20  H   UNL     1       4.371   2.838  21.349  0.00  0.00    +0.000 HD
ATOM     21  H   UNL     1       4.972   1.121  19.888  0.00  0.00    +0.000 HD
ENDBRANCH   4  12
BRANCH   4  22
ATOM     22  O   UNL     1       1.719   5.329  17.396  0.00  0.00    +0.000 OA
ATOM     23  H   UNL     1       2.336   5.239  16.646  0.00  0.00    +0.000 HD
ENDBRANCH   4  22
BRANCH   1  24
ATOM     24  C   UNL     1       5.607   5.722  16.750  0.00  0.00    +0.000 C 
BRANCH  24  28
ATOM     25  C   UNL     1       6.458   3.649  12.624  0.00  0.00    +0.000 A 
ATOM     26  C   UNL     1       5.229   3.647  13.276  0.00  0.00    +0.000 A 
ATOM     27  C   UNL     1       4.990   4.371  14.527  0.00  0.00    +0.000 A 
ATOM     28  C   UNL     1       5.958   5.076  15.261  0.00  0.00    +0.000 A 
ATOM     29  C   UNL     1       7.192   5.170  14.498  0.00  0.00    +0.000 A 
ATOM     30  C   UNL     1       7.423   4.458  13.220  0.00  0.00    +0.000 A 
BRANCH  25  32
ATOM     31  C   UNL     1       6.043   1.586  11.410  0.00  0.00    +0.000 C 
ATOM     32  O   UNL     1       6.573   2.922  11.460  0.00  0.00    +0.000 OA
ENDBRANCH  25  32
ENDBRANCH  24  28
ENDBRANCH   1  24
TORSDOF 5
ENDMDL
MODEL 8
REMARK VINA RESULT:      -7.1      5.328      8.439
REMARK  Name = 
REMARK  7 active torsions:
REMARK  status: ('A' for Active; 'I' for Inactive)
REMARK    1  A    between atoms: C_1  and  O_2
REMARK    2  A    between atoms: O_2  and  C_3
REMARK    3  A    between atoms: C_6  and  C_7
REMARK    4  A    between atoms: C_7  and  N_8
REMARK    5  A    between atoms: C_11  and  O_12
REMARK    6  A    between atoms: C_11  and  C_13
REMARK    7  A    between atoms: N_19  and  C_20
REMARK                            x       y       z     vdW  Elec       q    Type
REMARK                         _______ _______ _______ _____ _____    ______ ____
ROOT
ATOM      1  N   UNL     1       1.150   9.925  19.786  0.00  0.00    +0.000 N 
ATOM      2  C   UNL     1       0.536  11.015  19.174  0.00  0.00    +0.000 C 
ATOM      3  O   UNL     1      -0.404  10.894  18.395  0.00  0.00    +0.000 OA
ATOM      4  C   UNL     1       0.790  12.033  20.244  0.00  0.00    +0.000 C 
ATOM      5  C   UNL     1      -0.174  11.311  21.104  0.00  0.00    +0.000 A 
ATOM      6  C   UNL     1      -1.281  12.178  21.568  0.00  0.00    +0.000 A 
ATOM      7  C   UNL     1      -1.974  11.864  22.670  0.00  0.00    +0.000 A 
ATOM      8 CL   UNL     1      -3.182  12.914  23.281  0.00  0.00    +0.000 Cl
ATOM      9  C   UNL     1      -1.425  10.763  23.249  0.00  0.00    +0.000 A 
ATOM     10  C   UNL     1      -0.310   9.892  22.515  0.00  0.00    +0.000 A 
ATOM     11  C   UNL     1       0.376   9.886  21.269  0.00  0.00    +0.000 A 
ENDROOT
BRANCH   4  12
ATOM     12  C   UNL     1       0.709  13.435  19.730  0.00  0.00    +0.000 C 
ATOM     13  C   UNL     1       1.825  13.684  18.708  0.00  0.00    +0.000 C 
ATOM     14  O   UNL     1       1.920  13.218  17.584  0.00  0.00    +0.000 OA
ATOM     15  N   UNL     1       2.772  14.447  19.339  0.00  0.00    +0.000 N 
ATOM     16  C   UNL     1       2.362  14.827  20.566  0.00  0.00    +0.000 C 
ATOM     17  N   UNL     1       3.083  15.525  21.353  0.00  0.00    +0.000 NA
ATOM     18  N   UNL     1       1.114  14.361  20.817  0.00  0.00    +0.000 N 
ATOM     19  C   UNL     1       0.486  14.393  22.127  0.00  0.00    +0.000 C 
ATOM     20  H   UNL     1       3.665  14.623  18.912  0.00  0.00    +0.000 HD
ATOM     21  H   UNL     1       3.967  15.780  20.916  0.00  0.00    +0.000 HD
ENDBRANCH   4  12
BRANCH   4  22
ATOM     22  O   UNL     1       1.940  11.971  21.128  0.00  0.00    +0.000 OA
ATOM     23  H   UNL     1       2.245  12.893  21.227  0.00  0.00    +0.000 HD
ENDBRANCH   4  22
BRANCH   1  24
ATOM     24  C   UNL     1       1.664   8.956  18.573  0.00  0.00    +0.000 C 
BRANCH  24  28
ATOM     25  C   UNL     1       4.347   5.125  18.996  0.00  0.00    +0.000 A 
ATOM     26  C   UNL     1       3.281   5.446  19.832  0.00  0.00    +0.000 A 
ATOM     27  C   UNL     1       2.424   6.614  19.617  0.00  0.00    +0.000 A 
ATOM     28  C   UNL     1       2.604   7.587  18.620  0.00  0.00    +0.000 A 
ATOM     29  C   UNL     1       3.637   7.163  17.690  0.00  0.00    +0.000 A 
ATOM     30  C   UNL     1       4.486   5.967  17.895  0.00  0.00    +0.000 A 
BRANCH  25  32
ATOM     31  C   UNL     1       4.424   2.800  19.695  0.00  0.00    +0.000 C 
ATOM     32  O   UNL     1       5.094   4.010  19.302  0.00  0.00    +0.000 OA
ENDBRANCH  25  32
ENDBRANCH  24  28
ENDBRANCH   1  24
TORSDOF 5
ENDMDL
MODEL 9
REMARK VINA RESULT:      -7.0      5.384      8.649
REMARK  Name = 
REMARK  7 active torsions:
REMARK  status: ('A' for Active; 'I' for Inactive)
REMARK    1  A    between atoms: C_1  and  O_2
REMARK    2  A    between atoms: O_2  and  C_3
REMARK    3  A    between atoms: C_6  and  C_7
REMARK    4  A    between atoms: C_7  and  N_8
REMARK    5  A    between atoms: C_11  and  O_12
REMARK    6  A    between atoms: C_11  and  C_13
REMARK    7  A    between atoms: N_19  and  C_20
REMARK                            x       y       z     vdW  Elec       q    Type
REMARK                         _______ _______ _______ _____ _____    ______ ____
ROOT
ATOM      1  N   UNL     1       1.103   9.910  20.139  0.00  0.00    +0.000 N 
ATOM      2  C   UNL     1       0.606  10.952  19.360  0.00  0.00    +0.000 C 
ATOM      3  O   UNL     1      -0.259  10.784  18.506  0.00  0.00    +0.000 OA
ATOM      4  C   UNL     1       0.804  12.067  20.340  0.00  0.00    +0.000 C 
ATOM      5  C   UNL     1      -0.272  11.479  21.167  0.00  0.00    +0.000 A 
ATOM      6  C   UNL     1      -1.375  12.433  21.425  0.00  0.00    +0.000 A 
ATOM      7  C   UNL     1      -2.186  12.266  22.477  0.00  0.00    +0.000 A 
ATOM      8 CL   UNL     1      -3.395  13.421  22.852  0.00  0.00    +0.000 Cl
ATOM      9  C   UNL     1      -1.751  11.213  23.219  0.00  0.00    +0.000 A 
ATOM     10  C   UNL     1      -0.614  10.226  22.695  0.00  0.00    +0.000 A 
ATOM     11  C   UNL     1       0.188  10.061  21.532  0.00  0.00    +0.000 A 
ENDROOT
BRANCH   4  12
ATOM     12  C   UNL     1       0.842  13.408  19.679  0.00  0.00    +0.000 C 
ATOM     13  C   UNL     1       2.005  13.469  18.681  0.00  0.00    +0.000 C 
ATOM     14  O   UNL     1       2.101  12.880  17.617  0.00  0.00    +0.000 OA
ATOM     15  N   UNL     1       2.986  14.228  19.266  0.00  0.00    +0.000 N 
ATOM     16  C   UNL     1       2.566  14.764  20.429  0.00  0.00    +0.000 C 
ATOM     17  N   UNL     1       3.311  15.490  21.166  0.00  0.00    +0.000 NA
ATOM     18  N   UNL     1       1.280  14.416  20.678  0.00  0.00    +0.000 N 
ATOM     19  C   UNL     1       0.614  14.631  21.952  0.00  0.00    +0.000 C 
ATOM     20  H   UNL     1       3.902  14.294  18.858  0.00  0.00    +0.000 HD
ATOM     21  H   UNL     1       4.225  15.635  20.740  0.00  0.00    +0.000 HD
ENDBRANCH   4  12
BRANCH   4  22
ATOM     22  O   UNL     1       1.859  12.056  21.337  0.00  0.00    +0.000 OA
ATOM     23  H   UNL     1       2.635  11.662  20.895  0.00  0.00    +0.000 HD
ENDBRANCH   4  22
BRANCH   1  24
ATOM     24  C   UNL     1       1.684   8.798  19.091  0.00  0.00    +0.000 C 
BRANCH  24  28
ATOM     25  C   UNL     1       2.512   4.190  19.449  0.00  0.00    +0.000 A 
ATOM     26  C   UNL     1       2.807   4.966  18.332  0.00  0.00    +0.000 A 
ATOM     27  C   UNL     1       2.600   6.416  18.293  0.00  0.00    +0.000 A 
ATOM     28  C   UNL     1       2.017   7.186  19.312  0.00  0.00    +0.000 A 
ATOM     29  C   UNL     1       1.839   6.379  20.508  0.00  0.00    +0.000 A 
ATOM     30  C   UNL     1       2.074   4.917  20.553  0.00  0.00    +0.000 A 
BRANCH  25  32
ATOM     31  C   UNL     1       2.682   2.186  18.087  0.00  0.00    +0.000 C 
ATOM     32  O   UNL     1       2.734   2.834  19.369  0.00  0.00    +0.000 OA
ENDBRANCH  25  32
ENDBRANCH  24  28
ENDBRANCH   1  24
TORSDOF 5
ENDMDL
