MODEL 1
REMARK VINA RESULT:      -9.0      0.000      0.000
REMARK  Name = 
REMARK  5 active torsions:
REMARK  status: ('A' for Active; 'I' for Inactive)
REMARK    1  A    between atoms: C_2  and  C_3
REMARK    2  A    between atoms: C_8  and  O_9
REMARK    3  A    between atoms: O_9  and  C_10
REMARK    4  A    between atoms: C_15  and  C_16
REMARK    5  A    between atoms: C_16  and  C_17
REMARK                            x       y       z     vdW  Elec       q    Type
REMARK                         _______ _______ _______ _____ _____    ______ ____
ROOT
ATOM      1  C   UNL     1       0.986   9.570  19.638  0.00  0.00    +0.000 A 
ATOM      2  C   UNL     1       0.832   8.885  20.849  0.00  0.00    +0.000 A 
ATOM      3 BR   UNL     1      -0.115   9.646  22.308  0.00  0.00    +0.000 Br
ATOM      4  C   UNL     1       1.387   7.614  21.020  0.00  0.00    +0.000 A 
ATOM      5  C   UNL     1       2.109   7.020  19.983  0.00  0.00    +0.000 A 
ATOM      6  C   UNL     1       2.319   7.706  18.778  0.00  0.00    +0.000 A 
ATOM      7  C   UNL     1       1.773   8.988  18.635  0.00  0.00    +0.000 A 
ATOM      8  F   UNL     1       2.034   9.665  17.505  0.00  0.00    +0.000 F 
ENDROOT
BRANCH   1   9
ATOM      9  O   UNL     1       0.423  10.824  19.539  0.00  0.00    +0.000 OA
BRANCH   9  15
ATOM     10  C   UNL     1      -2.399  10.759  17.128  0.00  0.00    +0.000 A 
ATOM     11  C   UNL     1      -3.335  11.490  17.864  0.00  0.00    +0.000 A 
ATOM     12  C   UNL     1      -3.012  11.930  19.145  0.00  0.00    +0.000 A 
ATOM     13 CL   UNL     1      -4.180  12.792  20.068  0.00  0.00    +0.000 Cl
ATOM     14  C   UNL     1      -1.751  11.683  19.682  0.00  0.00    +0.000 A 
ATOM     15  C   UNL     1      -0.799  10.992  18.929  0.00  0.00    +0.000 A 
ATOM     16  C   UNL     1      -1.138  10.486  17.670  0.00  0.00    +0.000 A 
BRANCH  10  18
ATOM     17  N   UNL     1      -2.975   9.936  14.737  0.00  0.00    +0.000 NA
ATOM     18  C   UNL     1      -2.736  10.307  15.810  0.00  0.00    +0.000 C 
ENDBRANCH  10  18
ENDBRANCH   9  15
ENDBRANCH   1   9
BRANCH   6  19
ATOM     19  C   UNL     1       3.130   7.088  17.666  0.00  0.00    +0.000 C 
BRANCH  19  20
ATOM     20  C   UNL     1       3.716   5.819  18.199  0.00  0.00    +0.000 A 
ATOM     21  N   UNL     1       4.990   5.791  18.636  0.00  0.00    +0.000 NA
ATOM     22  N   UNL     1       5.176   4.502  18.990  0.00  0.00    +0.000 N 
ATOM     23  C   UNL     1       4.084   3.710  18.800  0.00  0.00    +0.000 A 
ATOM     24  N   UNL     1       4.000   2.394  19.070  0.00  0.00    +0.000 NA
ATOM     25  C   UNL     1       2.787   1.877  18.764  0.00  0.00    +0.000 A 
ATOM     26  C   UNL     1       1.724   2.584  18.206  0.00  0.00    +0.000 A 
ATOM     27  C   UNL     1       1.870   3.949  17.948  0.00  0.00    +0.000 A 
ATOM     28  C   UNL     1       3.104   4.535  18.268  0.00  0.00    +0.000 A 
ATOM     29  H   UNL     1       6.076   4.209  19.347  0.00  0.00    +0.000 HD
ENDBRANCH  19  20
ENDBRANCH   6  19
TORSDOF 5
ENDMDL
MODEL 2
REMARK VINA RESULT:      -8.8      1.709      2.103
REMARK  Name = 
REMARK  5 active torsions:
REMARK  status: ('A' for Active; 'I' for Inactive)
REMARK    1  A    between atoms: C_2  and  C_3
REMARK    2  A    between atoms: C_8  and  O_9
REMARK    3  A    between atoms: O_9  and  C_10
REMARK    4  A    between atoms: C_15  and  C_16
REMARK    5  A    between atoms: C_16  and  C_17
REMARK                            x       y       z     vdW  Elec       q    Type
REMARK                         _______ _______ _______ _____ _____    ______ ____
ROOT
ATOM      1  C   UNL     1       0.852   9.748  19.541  0.00  0.00    +0.000 A 
ATOM      2  C   UNL     1       0.707   9.179  20.812  0.00  0.00    +0.000 A 
ATOM      3 BR   UNL     1      -0.262  10.056  22.189  0.00  0.00    +0.000 Br
ATOM      4  C   UNL     1       1.286   7.941  21.105  0.00  0.00    +0.000 A 
ATOM      5  C   UNL     1       2.024   7.266  20.131  0.00  0.00    +0.000 A 
ATOM      6  C   UNL     1       2.226   7.838  18.867  0.00  0.00    +0.000 A 
ATOM      7  C   UNL     1       1.655   9.089  18.601  0.00  0.00    +0.000 A 
ATOM      8  F   UNL     1       1.906   9.661  17.411  0.00  0.00    +0.000 F 
ENDROOT
BRANCH   1   9
ATOM      9  O   UNL     1       0.264  10.975  19.322  0.00  0.00    +0.000 OA
BRANCH   9  15
ATOM     10  C   UNL     1      -3.341  11.760  18.908  0.00  0.00    +0.000 A 
ATOM     11  C   UNL     1      -3.589  11.045  17.733  0.00  0.00    +0.000 A 
ATOM     12  C   UNL     1      -2.545  10.375  17.100  0.00  0.00    +0.000 A 
ATOM     13 CL   UNL     1      -2.841   9.531  15.632  0.00  0.00    +0.000 Cl
ATOM     14  C   UNL     1      -1.265  10.379  17.651  0.00  0.00    +0.000 A 
ATOM     15  C   UNL     1      -1.026  11.055  18.849  0.00  0.00    +0.000 A 
ATOM     16  C   UNL     1      -2.052  11.789  19.453  0.00  0.00    +0.000 A 
BRANCH  10  18
ATOM     17  N   UNL     1      -5.303  13.016  20.047  0.00  0.00    +0.000 NA
ATOM     18  C   UNL     1      -4.418  12.449  19.555  0.00  0.00    +0.000 C 
ENDBRANCH  10  18
ENDBRANCH   9  15
ENDBRANCH   1   9
BRANCH   6  19
ATOM     19  C   UNL     1       3.053   7.134  17.820  0.00  0.00    +0.000 C 
BRANCH  19  20
ATOM     20  C   UNL     1       3.496   5.833  18.410  0.00  0.00    +0.000 A 
ATOM     21  N   UNL     1       4.747   5.697  18.891  0.00  0.00    +0.000 NA
ATOM     22  N   UNL     1       4.796   4.407  19.289  0.00  0.00    +0.000 N 
ATOM     23  C   UNL     1       3.639   3.719  19.084  0.00  0.00    +0.000 A 
ATOM     24  N   UNL     1       3.419   2.426  19.389  0.00  0.00    +0.000 NA
ATOM     25  C   UNL     1       2.172   2.018  19.057  0.00  0.00    +0.000 A 
ATOM     26  C   UNL     1       1.201   2.805  18.443  0.00  0.00    +0.000 A 
ATOM     27  C   UNL     1       1.486   4.141  18.150  0.00  0.00    +0.000 A 
ATOM     28  C   UNL     1       2.761   4.616  18.495  0.00  0.00    +0.000 A 
ATOM     29  H   UNL     1       5.651   4.041  19.685  0.00  0.00    +0.000 HD
ENDBRANCH  19  20
ENDBRANCH   6  19
TORSDOF 5
ENDMDL
MODEL 3
REMARK VINA RESULT:      -8.7      4.263      8.189
REMARK  Name = 
REMARK  5 active torsions:
REMARK  status: ('A' for Active; 'I' for Inactive)
REMARK    1  A    between atoms: C_2  and  C_3
REMARK    2  A    between atoms: C_8  and  O_9
REMARK    3  A    between atoms: O_9  and  C_10
REMARK    4  A    between atoms: C_15  and  C_16
REMARK    5  A    between atoms: C_16  and  C_17
REMARK                            x       y       z     vdW  Elec       q    Type
REMARK                         _______ _______ _______ _____ _____    ______ ____
ROOT
ATOM      1  C   UNL     1       2.662   5.887  18.967  0.00  0.00    +0.000 A 
ATOM      2  C   UNL     1       2.071   5.809  20.233  0.00  0.00    +0.000 A 
ATOM      3 BR   UNL     1       2.004   4.175  21.199  0.00  0.00    +0.000 Br
ATOM      4  C   UNL     1       1.500   6.941  20.821  0.00  0.00    +0.000 A 
ATOM      5  C   UNL     1       1.507   8.161  20.142  0.00  0.00    +0.000 A 
ATOM      6  C   UNL     1       2.049   8.254  18.852  0.00  0.00    +0.000 A 
ATOM      7  C   UNL     1       2.597   7.103  18.273  0.00  0.00    +0.000 A 
ATOM      8  F   UNL     1       3.054   7.184  17.012  0.00  0.00    +0.000 F 
ENDROOT
BRANCH   1   9
ATOM      9  O   UNL     1       3.198   4.732  18.441  0.00  0.00    +0.000 OA
BRANCH   9  15
ATOM     10  C   UNL     1       5.993   4.467  16.012  0.00  0.00    +0.000 A 
ATOM     11  C   UNL     1       7.053   4.801  16.860  0.00  0.00    +0.000 A 
ATOM     12  C   UNL     1       6.796   5.149  18.183  0.00  0.00    +0.000 A 
ATOM     13 CL   UNL     1       8.096   5.602  19.212  0.00  0.00    +0.000 Cl
ATOM     14  C   UNL     1       5.494   5.126  18.680  0.00  0.00    +0.000 A 
ATOM     15  C   UNL     1       4.439   4.747  17.847  0.00  0.00    +0.000 A 
ATOM     16  C   UNL     1       4.681   4.466  16.498  0.00  0.00    +0.000 A 
BRANCH  10  18
ATOM     17  N   UNL     1       6.513   3.841  13.551  0.00  0.00    +0.000 NA
ATOM     18  C   UNL     1       6.263   4.112  14.650  0.00  0.00    +0.000 C 
ENDBRANCH  10  18
ENDBRANCH   9  15
ENDBRANCH   1   9
BRANCH   6  19
ATOM     19  C   UNL     1       2.028   9.559  18.095  0.00  0.00    +0.000 C 
BRANCH  19  20
ATOM     20  C   UNL     1       0.915  10.381  18.663  0.00  0.00    +0.000 A 
ATOM     21  N   UNL     1       1.143  11.207  19.702  0.00  0.00    +0.000 NA
ATOM     22  N   UNL     1      -0.072  11.734  19.963  0.00  0.00    +0.000 N 
ATOM     23  C   UNL     1      -1.061  11.283  19.142  0.00  0.00    +0.000 A 
ATOM     24  N   UNL     1      -2.356  11.645  19.184  0.00  0.00    +0.000 NA
ATOM     25  C   UNL     1      -3.103  11.019  18.246  0.00  0.00    +0.000 A 
ATOM     26  C   UNL     1      -2.632  10.077  17.334  0.00  0.00    +0.000 A 
ATOM     27  C   UNL     1      -1.276   9.741  17.336  0.00  0.00    +0.000 A 
ATOM     28  C   UNL     1      -0.457  10.381  18.279  0.00  0.00    +0.000 A 
ATOM     29  H   UNL     1      -0.177  12.391  20.725  0.00  0.00    +0.000 HD
ENDBRANCH  19  20
ENDBRANCH   6  19
TORSDOF 5
ENDMDL
MODEL 4
REMARK VINA RESULT:      -8.7      1.671      2.606
REMARK  Name = 
REMARK  5 active torsions:
REMARK  status: ('A' for Active; 'I' for Inactive)
REMARK    1  A    between atoms: C_2  and  C_3
REMARK    2  A    between atoms: C_8  and  O_9
REMARK    3  A    between atoms: O_9  and  C_10
REMARK    4  A    between atoms: C_15  and  C_16
REMARK    5  A    between atoms: C_16  and  C_17
REMARK                            x       y       z     vdW  Elec       q    Type
REMARK                         _______ _______ _______ _____ _____    ______ ____
ROOT
ATOM      1  C   UNL     1       1.594   8.590  19.519  0.00  0.00    +0.000 A 
ATOM      2  C   UNL     1       1.374   8.108  20.815  0.00  0.00    +0.000 A 
ATOM      3 BR   UNL     1       0.827   9.259  22.223  0.00  0.00    +0.000 Br
ATOM      4  C   UNL     1       1.564   6.756  21.110  0.00  0.00    +0.000 A 
ATOM      5  C   UNL     1       1.985   5.874  20.113  0.00  0.00    +0.000 A 
ATOM      6  C   UNL     1       2.260   6.341  18.820  0.00  0.00    +0.000 A 
ATOM      7  C   UNL     1       2.083   7.704  18.550  0.00  0.00    +0.000 A 
ATOM      8  F   UNL     1       2.411   8.155  17.328  0.00  0.00    +0.000 F 
ENDROOT
BRANCH   1   9
ATOM      9  O   UNL     1       1.398   9.936  19.297  0.00  0.00    +0.000 OA
BRANCH   9  15
ATOM     10  C   UNL     1      -1.773  10.503  17.452  0.00  0.00    +0.000 A 
ATOM     11  C   UNL     1      -2.303  11.532  18.236  0.00  0.00    +0.000 A 
ATOM     12  C   UNL     1      -1.616  11.960  19.369  0.00  0.00    +0.000 A 
ATOM     13 CL   UNL     1      -2.290  13.195  20.357  0.00  0.00    +0.000 Cl
ATOM     14  C   UNL     1      -0.385  11.399  19.703  0.00  0.00    +0.000 A 
ATOM     15  C   UNL     1       0.168  10.404  18.895  0.00  0.00    +0.000 A 
ATOM     16  C   UNL     1      -0.549   9.919  17.796  0.00  0.00    +0.000 A 
BRANCH  10  18
ATOM     17  N   UNL     1      -3.067   9.679  15.362  0.00  0.00    +0.000 NA
ATOM     18  C   UNL     1      -2.486  10.064  16.288  0.00  0.00    +0.000 C 
ENDBRANCH  10  18
ENDBRANCH   9  15
ENDBRANCH   1   9
BRANCH   6  19
ATOM     19  C   UNL     1       2.751   5.403  17.745  0.00  0.00    +0.000 C 
BRANCH  19  20
ATOM     20  C   UNL     1       4.125   4.962  18.138  0.00  0.00    +0.000 A 
ATOM     21  N   UNL     1       4.308   3.777  18.751  0.00  0.00    +0.000 NA
ATOM     22  N   UNL     1       5.637   3.743  18.988  0.00  0.00    +0.000 N 
ATOM     23  C   UNL     1       6.306   4.847  18.556  0.00  0.00    +0.000 A 
ATOM     24  N   UNL     1       7.630   5.068  18.664  0.00  0.00    +0.000 NA
ATOM     25  C   UNL     1       8.002   6.264  18.151  0.00  0.00    +0.000 A 
ATOM     26  C   UNL     1       7.143   7.204  17.588  0.00  0.00    +0.000 A 
ATOM     27  C   UNL     1       5.778   6.920  17.500  0.00  0.00    +0.000 A 
ATOM     28  C   UNL     1       5.347   5.681  18.002  0.00  0.00    +0.000 A 
ATOM     29  H   UNL     1       6.038   2.944  19.461  0.00  0.00    +0.000 HD
ENDBRANCH  19  20
ENDBRANCH   6  19
TORSDOF 5
ENDMDL
MODEL 5
REMARK VINA RESULT:      -8.6      4.016      8.405
REMARK  Name = 
REMARK  5 active torsions:
REMARK  status: ('A' for Active; 'I' for Inactive)
REMARK    1  A    between atoms: C_2  and  C_3
REMARK    2  A    between atoms: C_8  and  O_9
REMARK    3  A    between atoms: O_9  and  C_10
REMARK    4  A    between atoms: C_15  and  C_16
REMARK    5  A    between atoms: C_16  and  C_17
REMARK                            x       y       z     vdW  Elec       q    Type
REMARK                         _______ _______ _______ _____ _____    ______ ____
ROOT
ATOM      1  C   UNL     1       2.344   6.626  18.733  0.00  0.00    +0.000 A 
ATOM      2  C   UNL     1       1.875   6.390  20.031  0.00  0.00    +0.000 A 
ATOM      3 BR   UNL     1       1.849   4.643  20.775  0.00  0.00    +0.000 Br
ATOM      4  C   UNL     1       1.398   7.443  20.815  0.00  0.00    +0.000 A 
ATOM      5  C   UNL     1       1.378   8.743  20.305  0.00  0.00    +0.000 A 
ATOM      6  C   UNL     1       1.796   8.998  18.991  0.00  0.00    +0.000 A 
ATOM      7  C   UNL     1       2.250   7.924  18.214  0.00  0.00    +0.000 A 
ATOM      8  F   UNL     1       2.587   8.165  16.936  0.00  0.00    +0.000 F 
ENDROOT
BRANCH   1   9
ATOM      9  O   UNL     1       2.790   5.542  18.009  0.00  0.00    +0.000 OA
BRANCH   9  15
ATOM     10  C   UNL     1       6.438   5.198  18.609  0.00  0.00    +0.000 A 
ATOM     11  C   UNL     1       6.839   4.834  17.320  0.00  0.00    +0.000 A 
ATOM     12  C   UNL     1       5.884   4.669  16.321  0.00  0.00    +0.000 A 
ATOM     13 CL   UNL     1       6.375   4.180  14.747  0.00  0.00    +0.000 Cl
ATOM     14  C   UNL     1       4.536   4.903  16.585  0.00  0.00    +0.000 A 
ATOM     15  C   UNL     1       4.139   5.312  17.860  0.00  0.00    +0.000 A 
ATOM     16  C   UNL     1       5.083   5.410  18.887  0.00  0.00    +0.000 A 
BRANCH  10  18
ATOM     17  N   UNL     1       8.201   5.489  20.488  0.00  0.00    +0.000 NA
ATOM     18  C   UNL     1       7.425   5.365  19.634  0.00  0.00    +0.000 C 
ENDBRANCH  10  18
ENDBRANCH   9  15
ENDBRANCH   1   9
BRANCH   6  19
ATOM     19  C   UNL     1       1.743  10.392  18.418  0.00  0.00    +0.000 C 
BRANCH  19  20
ATOM     20  C   UNL     1       0.423  10.979  18.805  0.00  0.00    +0.000 A 
ATOM     21  N   UNL     1       0.345  11.869  19.813  0.00  0.00    +0.000 NA
ATOM     22  N   UNL     1      -0.976  12.135  19.901  0.00  0.00    +0.000 N 
ATOM     23  C   UNL     1      -1.740  11.458  18.999  0.00  0.00    +0.000 A 
ATOM     24  N   UNL     1      -3.077  11.539  18.871  0.00  0.00    +0.000 NA
ATOM     25  C   UNL     1      -3.556  10.737  17.891  0.00  0.00    +0.000 A 
ATOM     26  C   UNL     1      -2.790   9.887  17.097  0.00  0.00    +0.000 A 
ATOM     27  C   UNL     1      -1.405   9.845  17.275  0.00  0.00    +0.000 A 
ATOM     28  C   UNL     1      -0.860  10.675  18.266  0.00  0.00    +0.000 A 
ATOM     29  H   UNL     1      -1.308  12.780  20.605  0.00  0.00    +0.000 HD
ENDBRANCH  19  20
ENDBRANCH   6  19
TORSDOF 5
ENDMDL
MODEL 6
REMARK VINA RESULT:      -8.5      2.240      2.974
REMARK  Name = 
REMARK  5 active torsions:
REMARK  status: ('A' for Active; 'I' for Inactive)
REMARK    1  A    between atoms: C_2  and  C_3
REMARK    2  A    between atoms: C_8  and  O_9
REMARK    3  A    between atoms: O_9  and  C_10
REMARK    4  A    between atoms: C_15  and  C_16
REMARK    5  A    between atoms: C_16  and  C_17
REMARK                            x       y       z     vdW  Elec       q    Type
REMARK                         _______ _______ _______ _____ _____    ______ ____
ROOT
ATOM      1  C   UNL     1       2.108   7.859  19.236  0.00  0.00    +0.000 A 
ATOM      2  C   UNL     1       1.661   7.506  20.514  0.00  0.00    +0.000 A 
ATOM      3 BR   UNL     1       1.210   8.822  21.808  0.00  0.00    +0.000 Br
ATOM      4  C   UNL     1       1.543   6.162  20.879  0.00  0.00    +0.000 A 
ATOM      5  C   UNL     1       1.881   5.158  19.969  0.00  0.00    +0.000 A 
ATOM      6  C   UNL     1       2.378   5.486  18.700  0.00  0.00    +0.000 A 
ATOM      7  C   UNL     1       2.509   6.839  18.362  0.00  0.00    +0.000 A 
ATOM      8  F   UNL     1       3.047   7.145  17.170  0.00  0.00    +0.000 F 
ENDROOT
BRANCH   1   9
ATOM      9  O   UNL     1       2.210   9.202  18.944  0.00  0.00    +0.000 OA
BRANCH   9  15
ATOM     10  C   UNL     1      -1.087  10.356  17.688  0.00  0.00    +0.000 A 
ATOM     11  C   UNL     1      -1.091  11.644  18.231  0.00  0.00    +0.000 A 
ATOM     12  C   UNL     1      -0.028  12.059  19.030  0.00  0.00    +0.000 A 
ATOM     13 CL   UNL     1      -0.055  13.628  19.734  0.00  0.00    +0.000 Cl
ATOM     14  C   UNL     1       1.056  11.215  19.259  0.00  0.00    +0.000 A 
ATOM     15  C   UNL     1       1.083   9.945  18.679  0.00  0.00    +0.000 A 
ATOM     16  C   UNL     1      -0.011   9.495  17.934  0.00  0.00    +0.000 A 
BRANCH  10  18
ATOM     17  N   UNL     1      -3.075   9.625  16.194  0.00  0.00    +0.000 NA
ATOM     18  C   UNL     1      -2.183   9.933  16.868  0.00  0.00    +0.000 C 
ENDBRANCH  10  18
ENDBRANCH   9  15
ENDBRANCH   1   9
BRANCH   6  19
ATOM     19  C   UNL     1       2.782   4.409  17.723  0.00  0.00    +0.000 C 
BRANCH  19  20
ATOM     20  C   UNL     1       4.276   4.342  17.733  0.00  0.00    +0.000 A 
ATOM     21  N   UNL     1       4.937   4.097  18.881  0.00  0.00    +0.000 NA
ATOM     22  N   UNL     1       6.236   4.155  18.518  0.00  0.00    +0.000 N 
ATOM     23  C   UNL     1       6.432   4.425  17.197  0.00  0.00    +0.000 A 
ATOM     24  N   UNL     1       7.622   4.536  16.577  0.00  0.00    +0.000 NA
ATOM     25  C   UNL     1       7.497   4.820  15.259  0.00  0.00    +0.000 A 
ATOM     26  C   UNL     1       6.294   5.011  14.584  0.00  0.00    +0.000 A 
ATOM     27  C   UNL     1       5.089   4.883  15.280  0.00  0.00    +0.000 A 
ATOM     28  C   UNL     1       5.168   4.568  16.646  0.00  0.00    +0.000 A 
ATOM     29  H   UNL     1       6.954   4.015  19.215  0.00  0.00    +0.000 HD
ENDBRANCH  19  20
ENDBRANCH   6  19
TORSDOF 5
ENDMDL
MODEL 7
REMARK VINA RESULT:      -8.5      2.340      3.334
REMARK  Name = 
REMARK  5 active torsions:
REMARK  status: ('A' for Active; 'I' for Inactive)
REMARK    1  A    between atoms: C_2  and  C_3
REMARK    2  A    between atoms: C_8  and  O_9
REMARK    3  A    between atoms: O_9  and  C_10
REMARK    4  A    between atoms: C_15  and  C_16
REMARK    5  A    between atoms: C_16  and  C_17
REMARK                            x       y       z     vdW  Elec       q    Type
REMARK                         _______ _______ _______ _____ _____    ______ ____
ROOT
ATOM      1  C   UNL     1       1.611   8.538  19.510  0.00  0.00    +0.000 A 
ATOM      2  C   UNL     1       1.384   8.078  20.812  0.00  0.00    +0.000 A 
ATOM      3 BR   UNL     1       0.873   9.259  22.208  0.00  0.00    +0.000 Br
ATOM      4  C   UNL     1       1.540   6.724  21.123  0.00  0.00    +0.000 A 
ATOM      5  C   UNL     1       1.934   5.820  20.135  0.00  0.00    +0.000 A 
ATOM      6  C   UNL     1       2.214   6.264  18.835  0.00  0.00    +0.000 A 
ATOM      7  C   UNL     1       2.073   7.628  18.550  0.00  0.00    +0.000 A 
ATOM      8  F   UNL     1       2.406   8.056  17.321  0.00  0.00    +0.000 F 
ENDROOT
BRANCH   1   9
ATOM      9  O   UNL     1       1.449   9.886  19.273  0.00  0.00    +0.000 OA
BRANCH   9  15
ATOM     10  C   UNL     1      -1.711  11.826  19.438  0.00  0.00    +0.000 A 
ATOM     11  C   UNL     1      -2.365  11.277  18.330  0.00  0.00    +0.000 A 
ATOM     12  C   UNL     1      -1.715  10.327  17.547  0.00  0.00    +0.000 A 
ATOM     13 CL   UNL     1      -2.502   9.686  16.160  0.00  0.00    +0.000 Cl
ATOM     14  C   UNL     1      -0.435   9.890  17.882  0.00  0.00    +0.000 A 
ATOM     15  C   UNL     1       0.200  10.403  19.015  0.00  0.00    +0.000 A 
ATOM     16  C   UNL     1      -0.416  11.409  19.766  0.00  0.00    +0.000 A 
BRANCH  10  18
ATOM     17  N   UNL     1      -2.897  13.609  20.899  0.00  0.00    +0.000 NA
ATOM     18  C   UNL     1      -2.384  12.805  20.240  0.00  0.00    +0.000 C 
ENDBRANCH  10  18
ENDBRANCH   9  15
ENDBRANCH   1   9
BRANCH   6  19
ATOM     19  C   UNL     1       2.676   5.300  17.770  0.00  0.00    +0.000 C 
BRANCH  19  20
ATOM     20  C   UNL     1       4.066   4.879  18.129  0.00  0.00    +0.000 A 
ATOM     21  N   UNL     1       4.281   3.690  18.726  0.00  0.00    +0.000 NA
ATOM     22  N   UNL     1       5.615   3.676  18.933  0.00  0.00    +0.000 N 
ATOM     23  C   UNL     1       6.257   4.795  18.497  0.00  0.00    +0.000 A 
ATOM     24  N   UNL     1       7.579   5.037  18.579  0.00  0.00    +0.000 NA
ATOM     25  C   UNL     1       7.920   6.243  18.069  0.00  0.00    +0.000 A 
ATOM     26  C   UNL     1       7.034   7.174  17.533  0.00  0.00    +0.000 A 
ATOM     27  C   UNL     1       5.672   6.868  17.473  0.00  0.00    +0.000 A 
ATOM     28  C   UNL     1       5.272   5.619  17.972  0.00  0.00    +0.000 A 
ATOM     29  H   UNL     1       6.039   2.880  19.390  0.00  0.00    +0.000 HD
ENDBRANCH  19  20
ENDBRANCH   6  19
TORSDOF 5
ENDMDL
MODEL 8
REMARK VINA RESULT:      -8.4      4.214      8.414
REMARK  Name = 
REMARK  5 active torsions:
REMARK  status: ('A' for Active; 'I' for Inactive)
REMARK    1  A    between atoms: C_2  and  C_3
REMARK    2  A    between atoms: C_8  and  O_9
REMARK    3  A    between atoms: O_9  and  C_10
REMARK    4  A    between atoms: C_15  and  C_16
REMARK    5  A    between atoms: C_16  and  C_17
REMARK                            x       y       z     vdW  Elec       q    Type
REMARK                         _______ _______ _______ _____ _____    ______ ____
ROOT
ATOM      1  C   UNL     1       2.680   5.809  18.933  0.00  0.00    +0.000 A 
ATOM      2  C   UNL     1       2.130   5.672  20.213  0.00  0.00    +0.000 A 
ATOM      3 BR   UNL     1       2.103   3.997  21.108  0.00  0.00    +0.000 Br
ATOM      4  C   UNL     1       1.571   6.773  20.867  0.00  0.00    +0.000 A 
ATOM      5  C   UNL     1       1.549   8.021  20.242  0.00  0.00    +0.000 A 
ATOM      6  C   UNL     1       2.049   8.175  18.941  0.00  0.00    +0.000 A 
ATOM      7  C   UNL     1       2.585   7.054  18.295  0.00  0.00    +0.000 A 
ATOM      8  F   UNL     1       3.002   7.193  17.025  0.00  0.00    +0.000 F 
ENDROOT
BRANCH   1   9
ATOM      9  O   UNL     1       3.206   4.682  18.340  0.00  0.00    +0.000 OA
BRANCH   9  15
ATOM     10  C   UNL     1       6.036   4.465  15.948  0.00  0.00    +0.000 A 
ATOM     11  C   UNL     1       7.081   4.809  16.811  0.00  0.00    +0.000 A 
ATOM     12  C   UNL     1       6.801   5.147  18.133  0.00  0.00    +0.000 A 
ATOM     13 CL   UNL     1       8.081   5.612  19.181  0.00  0.00    +0.000 Cl
ATOM     14  C   UNL     1       5.493   5.105  18.612  0.00  0.00    +0.000 A 
ATOM     15  C   UNL     1       4.454   4.716  17.763  0.00  0.00    +0.000 A 
ATOM     16  C   UNL     1       4.718   4.445  16.417  0.00  0.00    +0.000 A 
BRANCH  10  18
ATOM     17  N   UNL     1       6.538   3.821  13.488  0.00  0.00    +0.000 NA
ATOM     18  C   UNL     1       6.330   4.120  14.589  0.00  0.00    +0.000 C 
ENDBRANCH  10  18
ENDBRANCH   9  15
ENDBRANCH   1   9
BRANCH   6  19
ATOM     19  C   UNL     1       1.997   9.511  18.242  0.00  0.00    +0.000 C 
BRANCH  19  20
ATOM     20  C   UNL     1       0.658  10.110  18.536  0.00  0.00    +0.000 A 
ATOM     21  N   UNL     1      -0.413   9.779  17.788  0.00  0.00    +0.000 NA
ATOM     22  N   UNL     1      -1.407  10.531  18.307  0.00  0.00    +0.000 N 
ATOM     23  C   UNL     1      -1.021  11.322  19.346  0.00  0.00    +0.000 A 
ATOM     24  N   UNL     1      -1.810  12.164  20.040  0.00  0.00    +0.000 NA
ATOM     25  C   UNL     1      -1.139  12.825  21.011  0.00  0.00    +0.000 A 
ATOM     26  C   UNL     1       0.222  12.700  21.282  0.00  0.00    +0.000 A 
ATOM     27  C   UNL     1       0.991  11.810  20.529  0.00  0.00    +0.000 A 
ATOM     28  C   UNL     1       0.334  11.086  19.522  0.00  0.00    +0.000 A 
ATOM     29  H   UNL     1      -2.333  10.477  17.905  0.00  0.00    +0.000 HD
ENDBRANCH  19  20
ENDBRANCH   6  19
TORSDOF 5
ENDMDL
MODEL 9
REMARK VINA RESULT:      -8.4      4.090      8.231
REMARK  Name = 
REMARK  5 active torsions:
REMARK  status: ('A' for Active; 'I' for Inactive)
REMARK    1  A    between atoms: C_2  and  C_3
REMARK    2  A    between atoms: C_8  and  O_9
REMARK    3  A    between atoms: O_9  and  C_10
REMARK    4  A    between atoms: C_15  and  C_16
REMARK    5  A    between atoms: C_16  and  C_17
REMARK                            x       y       z     vdW  Elec       q    Type
REMARK                         _______ _______ _______ _____ _____    ______ ____
ROOT
ATOM      1  C   UNL     1       2.491   6.670  18.773  0.00  0.00    +0.000 A 
ATOM      2  C   UNL     1       2.007   6.446  20.067  0.00  0.00    +0.000 A 
ATOM      3 BR   UNL     1       2.100   4.732  20.880  0.00  0.00    +0.000 Br
ATOM      4  C   UNL     1       1.426   7.486  20.797  0.00  0.00    +0.000 A 
ATOM      5  C   UNL     1       1.317   8.759  20.235  0.00  0.00    +0.000 A 
ATOM      6  C   UNL     1       1.750   8.998  18.923  0.00  0.00    +0.000 A 
ATOM      7  C   UNL     1       2.309   7.936  18.201  0.00  0.00    +0.000 A 
ATOM      8  F   UNL     1       2.661   8.154  16.923  0.00  0.00    +0.000 F 
ENDROOT
BRANCH   1   9
ATOM      9  O   UNL     1       3.043   5.599  18.104  0.00  0.00    +0.000 OA
BRANCH   9  15
ATOM     10  C   UNL     1       6.555   6.575  17.403  0.00  0.00    +0.000 A 
ATOM     11  C   UNL     1       6.812   5.719  16.328  0.00  0.00    +0.000 A 
ATOM     12  C   UNL     1       5.832   4.820  15.913  0.00  0.00    +0.000 A 
ATOM     13 CL   UNL     1       6.164   3.737  14.620  0.00  0.00    +0.000 Cl
ATOM     14  C   UNL     1       4.585   4.797  16.534  0.00  0.00    +0.000 A 
ATOM     15  C   UNL     1       4.311   5.684  17.578  0.00  0.00    +0.000 A 
ATOM     16  C   UNL     1       5.313   6.540  18.047  0.00  0.00    +0.000 A 
BRANCH  10  18
ATOM     17  N   UNL     1       8.372   8.243  18.203  0.00  0.00    +0.000 NA
ATOM     18  C   UNL     1       7.568   7.496  17.828  0.00  0.00    +0.000 C 
ENDBRANCH  10  18
ENDBRANCH   9  15
ENDBRANCH   1   9
BRANCH   6  19
ATOM     19  C   UNL     1       1.602  10.361  18.293  0.00  0.00    +0.000 C 
BRANCH  19  20
ATOM     20  C   UNL     1       0.282  10.909  18.734  0.00  0.00    +0.000 A 
ATOM     21  N   UNL     1       0.213  11.743  19.790  0.00  0.00    +0.000 NA
ATOM     22  N   UNL     1      -1.109  11.988  19.915  0.00  0.00    +0.000 N 
ATOM     23  C   UNL     1      -1.882  11.352  18.991  0.00  0.00    +0.000 A 
ATOM     24  N   UNL     1      -3.222  11.424  18.890  0.00  0.00    +0.000 NA
ATOM     25  C   UNL     1      -3.709  10.671  17.876  0.00  0.00    +0.000 A 
ATOM     26  C   UNL     1      -2.949   9.875  17.024  0.00  0.00    +0.000 A 
ATOM     27  C   UNL     1      -1.560   9.839  17.175  0.00  0.00    +0.000 A 
ATOM     28  C   UNL     1      -1.007  10.621  18.202  0.00  0.00    +0.000 A 
ATOM     29  H   UNL     1      -1.436  12.589  20.659  0.00  0.00    +0.000 HD
ENDBRANCH  19  20
ENDBRANCH   6  19
TORSDOF 5
ENDMDL
