MODEL 1
REMARK VINA RESULT:      -8.9      0.000      0.000
REMARK  Name = 
REMARK  5 active torsions:
REMARK  status: ('A' for Active; 'I' for Inactive)
REMARK    1  A    between atoms: C_2  and  C_3
REMARK    2  A    between atoms: C_3  and  N_4
REMARK    3  A    between atoms: N_16  and  C_17
REMARK    4  A    between atoms: C_22  and  S_23
REMARK    5  A    between atoms: S_23  and  N_26
REMARK                            x       y       z     vdW  Elec       q    Type
REMARK                         _______ _______ _______ _____ _____    ______ ____
ROOT
ATOM      1  O   UNL     1       1.649   8.566  17.227  0.00  0.00    +0.000 OA
ATOM      2  C   UNL     1       1.830   9.161  18.281  0.00  0.00    +0.000 C 
ATOM      3  N   UNL     1       1.960   8.574  19.546  0.00  0.00    +0.000 N 
ATOM      4  H   UNL     1       1.694   9.145  20.351  0.00  0.00    +0.000 HD
ENDROOT
BRANCH   3   5
ATOM      5  C   UNL     1       2.177   7.196  19.755  0.00  0.00    +0.000 A 
ATOM      6  C   UNL     1       1.443   6.506  20.720  0.00  0.00    +0.000 A 
ATOM      7  C   UNL     1       1.550   5.137  20.895  0.00  0.00    +0.000 A 
ATOM      8  C   UNL     1       2.173   4.418  19.891  0.00  0.00    +0.000 A 
ATOM      9 CL   UNL     1       0.999   3.394  19.055  0.00  0.00    +0.000 Cl
ATOM     10  C   UNL     1       3.111   5.039  19.080  0.00  0.00    +0.000 A 
ATOM     11  C   UNL     1       3.092   6.446  18.952  0.00  0.00    +0.000 A 
BRANCH  10  12
ATOM     12  S   UNL     1       4.298   4.006  18.252  0.00  0.00    +0.000 S 
ATOM     13  O   UNL     1       5.053   3.349  19.316  0.00  0.00    +0.000 OA
ATOM     14  O   UNL     1       3.571   3.241  17.260  0.00  0.00    +0.000 OA
BRANCH  12  15
ATOM     15  N   UNL     1       5.354   5.032  17.427  0.00  0.00    +0.000 NA
ATOM     16  C   UNL     1       5.388   5.169  15.958  0.00  0.00    +0.000 C 
ATOM     17  C   UNL     1       6.641   4.500  15.349  0.00  0.00    +0.000 C 
ATOM     18  O   UNL     1       7.860   4.593  16.103  0.00  0.00    +0.000 OA
ATOM     19  C   UNL     1       7.729   4.535  17.529  0.00  0.00    +0.000 C 
ATOM     20  C   UNL     1       6.627   5.462  18.031  0.00  0.00    +0.000 C 
ENDBRANCH  12  15
ENDBRANCH  10  12
ENDBRANCH   3   5
BRANCH   2  21
ATOM     21  C   UNL     1       1.822  10.693  18.267  0.00  0.00    +0.000 C 
BRANCH  21  22
ATOM     22  N   UNL     1       1.060  11.182  19.387  0.00  0.00    +0.000 N 
ATOM     23  C   UNL     1       1.390  12.319  20.049  0.00  0.00    +0.000 C 
ATOM     24  O   UNL     1       2.344  13.042  19.818  0.00  0.00    +0.000 OA
ATOM     25  N   UNL     1       0.422  12.580  20.979  0.00  0.00    +0.000 N 
ATOM     26  C   UNL     1      -0.747  11.751  20.796  0.00  0.00    +0.000 C 
ATOM     27  C   UNL     1      -1.041  10.878  22.018  0.00  0.00    +0.000 C 
ATOM     28  C   UNL     1      -1.515  11.718  23.202  0.00  0.00    +0.000 C 
ATOM     29  C   UNL     1      -2.704  12.602  22.831  0.00  0.00    +0.000 C 
ATOM     30  C   UNL     1      -2.437  13.451  21.588  0.00  0.00    +0.000 C 
ATOM     31  C   UNL     1      -1.962  12.599  20.407  0.00  0.00    +0.000 C 
ATOM     32  C   UNL     1      -0.250  10.872  19.629  0.00  0.00    +0.000 C 
ATOM     33  O   UNL     1      -0.936  10.075  19.003  0.00  0.00    +0.000 OA
ATOM     34  H   UNL     1       0.450  13.447  21.498  0.00  0.00    +0.000 HD
ENDBRANCH  21  22
ENDBRANCH   2  21
TORSDOF 5
ENDMDL
MODEL 2
REMARK VINA RESULT:      -8.9      6.551      9.936
REMARK  Name = 
REMARK  5 active torsions:
REMARK  status: ('A' for Active; 'I' for Inactive)
REMARK    1  A    between atoms: C_2  and  C_3
REMARK    2  A    between atoms: C_3  and  N_4
REMARK    3  A    between atoms: N_16  and  C_17
REMARK    4  A    between atoms: C_22  and  S_23
REMARK    5  A    between atoms: S_23  and  N_26
REMARK                            x       y       z     vdW  Elec       q    Type
REMARK                         _______ _______ _______ _____ _____    ______ ____
ROOT
ATOM      1  O   UNL     1       8.439   7.089  19.031  0.00  0.00    +0.000 OA
ATOM      2  C   UNL     1       7.984   7.541  17.989  0.00  0.00    +0.000 C 
ATOM      3  N   UNL     1       7.883   8.898  17.655  0.00  0.00    +0.000 N 
ATOM      4  H   UNL     1       7.147   9.158  16.996  0.00  0.00    +0.000 HD
ENDROOT
BRANCH   3   5
ATOM      5  C   UNL     1       8.542   9.931  18.353  0.00  0.00    +0.000 A 
ATOM      6  C   UNL     1       9.065   9.698  19.626  0.00  0.00    +0.000 A 
ATOM      7  C   UNL     1       9.804  10.649  20.310  0.00  0.00    +0.000 A 
ATOM      8  C   UNL     1      10.275  11.726  19.581  0.00  0.00    +0.000 A 
ATOM      9 CL   UNL     1      12.036  11.647  19.443  0.00  0.00    +0.000 Cl
ATOM     10  C   UNL     1       9.602  12.133  18.440  0.00  0.00    +0.000 A 
ATOM     11  C   UNL     1       8.762  11.216  17.768  0.00  0.00    +0.000 A 
BRANCH  10  12
ATOM     12  S   UNL     1       9.837  13.810  17.897  0.00  0.00    +0.000 S 
ATOM     13  O   UNL     1      10.871  13.745  16.866  0.00  0.00    +0.000 OA
ATOM     14  O   UNL     1       8.524  14.350  17.615  0.00  0.00    +0.000 OA
BRANCH  12  15
ATOM     15  N   UNL     1      10.468  14.669  19.206  0.00  0.00    +0.000 NA
ATOM     16  C   UNL     1       9.639  15.327  20.233  0.00  0.00    +0.000 C 
ATOM     17  C   UNL     1       9.660  16.866  20.085  0.00  0.00    +0.000 C 
ATOM     18  O   UNL     1      10.900  17.465  19.677  0.00  0.00    +0.000 OA
ATOM     19  C   UNL     1      11.685  16.717  18.738  0.00  0.00    +0.000 C 
ATOM     20  C   UNL     1      11.818  15.257  19.154  0.00  0.00    +0.000 C 
ENDBRANCH  12  15
ENDBRANCH  10  12
ENDBRANCH   3   5
BRANCH   2  21
ATOM     21  C   UNL     1       7.373   6.569  16.975  0.00  0.00    +0.000 C 
BRANCH  21  22
ATOM     22  N   UNL     1       6.034   6.228  17.381  0.00  0.00    +0.000 N 
ATOM     23  C   UNL     1       4.944   6.565  16.646  0.00  0.00    +0.000 C 
ATOM     24  O   UNL     1       4.940   7.194  15.602  0.00  0.00    +0.000 OA
ATOM     25  N   UNL     1       3.838   6.007  17.225  0.00  0.00    +0.000 N 
ATOM     26  C   UNL     1       4.183   5.043  18.245  0.00  0.00    +0.000 C 
ATOM     27  C   UNL     1       3.631   5.426  19.620  0.00  0.00    +0.000 C 
ATOM     28  C   UNL     1       2.110   5.301  19.665  0.00  0.00    +0.000 C 
ATOM     29  C   UNL     1       1.642   3.916  19.226  0.00  0.00    +0.000 C 
ATOM     30  C   UNL     1       2.217   3.506  17.870  0.00  0.00    +0.000 C 
ATOM     31  C   UNL     1       3.743   3.634  17.836  0.00  0.00    +0.000 C 
ATOM     32  C   UNL     1       5.718   5.203  18.231  0.00  0.00    +0.000 C 
ATOM     33  O   UNL     1       6.508   4.495  18.841  0.00  0.00    +0.000 OA
ATOM     34  H   UNL     1       2.945   6.069  16.755  0.00  0.00    +0.000 HD
ENDBRANCH  21  22
ENDBRANCH   2  21
TORSDOF 5
ENDMDL
MODEL 3
REMARK VINA RESULT:      -8.7      6.322     10.008
REMARK  Name = 
REMARK  5 active torsions:
REMARK  status: ('A' for Active; 'I' for Inactive)
REMARK    1  A    between atoms: C_2  and  C_3
REMARK    2  A    between atoms: C_3  and  N_4
REMARK    3  A    between atoms: N_16  and  C_17
REMARK    4  A    between atoms: C_22  and  S_23
REMARK    5  A    between atoms: S_23  and  N_26
REMARK                            x       y       z     vdW  Elec       q    Type
REMARK                         _______ _______ _______ _____ _____    ______ ____
ROOT
ATOM      1  O   UNL     1       7.117   8.767  17.321  0.00  0.00    +0.000 OA
ATOM      2  C   UNL     1       7.901   8.098  17.981  0.00  0.00    +0.000 C 
ATOM      3  N   UNL     1       8.906   8.598  18.820  0.00  0.00    +0.000 N 
ATOM      4  H   UNL     1       9.720   8.000  18.973  0.00  0.00    +0.000 HD
ENDROOT
BRANCH   3   5
ATOM      5  C   UNL     1       8.983   9.942  19.240  0.00  0.00    +0.000 A 
ATOM      6  C   UNL     1       9.175  10.247  20.588  0.00  0.00    +0.000 A 
ATOM      7  C   UNL     1       9.355  11.545  21.037  0.00  0.00    +0.000 A 
ATOM      8  C   UNL     1       9.645  12.507  20.086  0.00  0.00    +0.000 A 
ATOM      9 CL   UNL     1      11.306  13.081  20.284  0.00  0.00    +0.000 Cl
ATOM     10  C   UNL     1       9.224  12.331  18.777  0.00  0.00    +0.000 A 
ATOM     11  C   UNL     1       8.940  11.027  18.311  0.00  0.00    +0.000 A 
BRANCH  10  12
ATOM     12  S   UNL     1       9.059  13.781  17.761  0.00  0.00    +0.000 S 
ATOM     13  O   UNL     1      10.348  13.938  17.092  0.00  0.00    +0.000 OA
ATOM     14  O   UNL     1       7.832  13.631  17.008  0.00  0.00    +0.000 OA
BRANCH  12  15
ATOM     15  N   UNL     1       8.857  15.093  18.804  0.00  0.00    +0.000 NA
ATOM     16  C   UNL     1       7.549  15.534  19.326  0.00  0.00    +0.000 C 
ATOM     17  C   UNL     1       7.085  16.853  18.669  0.00  0.00    +0.000 C 
ATOM     18  O   UNL     1       8.100  17.826  18.373  0.00  0.00    +0.000 OA
ATOM     19  C   UNL     1       9.368  17.308  17.951  0.00  0.00    +0.000 C 
ATOM     20  C   UNL     1       9.847  16.182  18.861  0.00  0.00    +0.000 C 
ENDBRANCH  12  15
ENDBRANCH  10  12
ENDBRANCH   3   5
BRANCH   2  21
ATOM     21  C   UNL     1       7.875   6.575  17.826  0.00  0.00    +0.000 C 
BRANCH  21  22
ATOM     22  N   UNL     1       6.516   6.130  17.655  0.00  0.00    +0.000 N 
ATOM     23  C   UNL     1       5.973   5.907  16.432  0.00  0.00    +0.000 C 
ATOM     24  O   UNL     1       6.522   6.063  15.355  0.00  0.00    +0.000 OA
ATOM     25  N   UNL     1       4.719   5.388  16.600  0.00  0.00    +0.000 N 
ATOM     26  C   UNL     1       4.469   4.997  17.968  0.00  0.00    +0.000 C 
ATOM     27  C   UNL     1       3.287   5.750  18.583  0.00  0.00    +0.000 C 
ATOM     28  C   UNL     1       1.963   5.319  17.955  0.00  0.00    +0.000 C 
ATOM     29  C   UNL     1       1.772   3.806  18.018  0.00  0.00    +0.000 C 
ATOM     30  C   UNL     1       2.963   3.041  17.441  0.00  0.00    +0.000 C 
ATOM     31  C   UNL     1       4.285   3.480  18.077  0.00  0.00    +0.000 C 
ATOM     32  C   UNL     1       5.789   5.474  18.610  0.00  0.00    +0.000 C 
ATOM     33  O   UNL     1       6.135   5.250  19.762  0.00  0.00    +0.000 OA
ATOM     34  H   UNL     1       4.203   5.063  15.793  0.00  0.00    +0.000 HD
ENDBRANCH  21  22
ENDBRANCH   2  21
TORSDOF 5
ENDMDL
MODEL 4
REMARK VINA RESULT:      -8.7      0.834      1.609
REMARK  Name = 
REMARK  5 active torsions:
REMARK  status: ('A' for Active; 'I' for Inactive)
REMARK    1  A    between atoms: C_2  and  C_3
REMARK    2  A    between atoms: C_3  and  N_4
REMARK    3  A    between atoms: N_16  and  C_17
REMARK    4  A    between atoms: C_22  and  S_23
REMARK    5  A    between atoms: S_23  and  N_26
REMARK                            x       y       z     vdW  Elec       q    Type
REMARK                         _______ _______ _______ _____ _____    ______ ____
ROOT
ATOM      1  O   UNL     1       0.886   8.730  17.543  0.00  0.00    +0.000 OA
ATOM      2  C   UNL     1       1.416   9.343  18.460  0.00  0.00    +0.000 C 
ATOM      3  N   UNL     1       1.923   8.783  19.639  0.00  0.00    +0.000 N 
ATOM      4  H   UNL     1       1.949   9.387  20.464  0.00  0.00    +0.000 HD
ENDROOT
BRANCH   3   5
ATOM      5  C   UNL     1       2.146   7.402  19.822  0.00  0.00    +0.000 A 
ATOM      6  C   UNL     1       1.404   6.689  20.764  0.00  0.00    +0.000 A 
ATOM      7  C   UNL     1       1.516   5.316  20.912  0.00  0.00    +0.000 A 
ATOM      8  C   UNL     1       2.155   4.623  19.900  0.00  0.00    +0.000 A 
ATOM      9 CL   UNL     1       0.997   3.609  19.029  0.00  0.00    +0.000 Cl
ATOM     10  C   UNL     1       3.099   5.265  19.114  0.00  0.00    +0.000 A 
ATOM     11  C   UNL     1       3.073   6.674  19.015  0.00  0.00    +0.000 A 
BRANCH  10  12
ATOM     12  S   UNL     1       4.302   4.256  18.279  0.00  0.00    +0.000 S 
ATOM     13  O   UNL     1       5.036   3.567  19.337  0.00  0.00    +0.000 OA
ATOM     14  O   UNL     1       3.595   3.522  17.250  0.00  0.00    +0.000 OA
BRANCH  12  15
ATOM     15  N   UNL     1       5.375   5.305  17.506  0.00  0.00    +0.000 NA
ATOM     16  C   UNL     1       5.258   5.704  16.090  0.00  0.00    +0.000 C 
ATOM     17  C   UNL     1       6.343   5.036  15.216  0.00  0.00    +0.000 C 
ATOM     18  O   UNL     1       7.643   4.868  15.805  0.00  0.00    +0.000 OA
ATOM     19  C   UNL     1       7.667   4.563  17.205  0.00  0.00    +0.000 C 
ATOM     20  C   UNL     1       6.751   5.488  17.999  0.00  0.00    +0.000 C 
ENDBRANCH  12  15
ENDBRANCH  10  12
ENDBRANCH   3   5
BRANCH   2  21
ATOM     21  C   UNL     1       1.459  10.873  18.389  0.00  0.00    +0.000 C 
BRANCH  21  22
ATOM     22  N   UNL     1       0.501  11.426  19.310  0.00  0.00    +0.000 N 
ATOM     23  C   UNL     1      -0.838  11.301  19.126  0.00  0.00    +0.000 C 
ATOM     24  O   UNL     1      -1.394  10.750  18.192  0.00  0.00    +0.000 OA
ATOM     25  N   UNL     1      -1.478  11.825  20.216  0.00  0.00    +0.000 N 
ATOM     26  C   UNL     1      -0.569  12.093  21.306  0.00  0.00    +0.000 C 
ATOM     27  C   UNL     1      -0.552  13.571  21.701  0.00  0.00    +0.000 C 
ATOM     28  C   UNL     1      -1.864  13.987  22.364  0.00  0.00    +0.000 C 
ATOM     29  C   UNL     1      -2.214  13.083  23.544  0.00  0.00    +0.000 C 
ATOM     30  C   UNL     1      -2.197  11.600  23.171  0.00  0.00    +0.000 C 
ATOM     31  C   UNL     1      -0.877  11.195  22.508  0.00  0.00    +0.000 C 
ATOM     32  C   UNL     1       0.762  11.716  20.621  0.00  0.00    +0.000 C 
ATOM     33  O   UNL     1       1.848  11.644  21.179  0.00  0.00    +0.000 OA
ATOM     34  H   UNL     1      -2.480  11.725  20.299  0.00  0.00    +0.000 HD
ENDBRANCH  21  22
ENDBRANCH   2  21
TORSDOF 5
ENDMDL
MODEL 5
REMARK VINA RESULT:      -8.7      1.668      2.276
REMARK  Name = 
REMARK  5 active torsions:
REMARK  status: ('A' for Active; 'I' for Inactive)
REMARK    1  A    between atoms: C_2  and  C_3
REMARK    2  A    between atoms: C_3  and  N_4
REMARK    3  A    between atoms: N_16  and  C_17
REMARK    4  A    between atoms: C_22  and  S_23
REMARK    5  A    between atoms: S_23  and  N_26
REMARK                            x       y       z     vdW  Elec       q    Type
REMARK                         _______ _______ _______ _____ _____    ______ ____
ROOT
ATOM      1  O   UNL     1       1.458   8.557  19.624  0.00  0.00    +0.000 OA
ATOM      2  C   UNL     1       1.676   8.311  20.803  0.00  0.00    +0.000 C 
ATOM      3  N   UNL     1       1.800   7.036  21.368  0.00  0.00    +0.000 N 
ATOM      4  H   UNL     1       1.568   6.945  22.360  0.00  0.00    +0.000 HD
ENDROOT
BRANCH   3   5
ATOM      5  C   UNL     1       1.965   5.854  20.617  0.00  0.00    +0.000 A 
ATOM      6  C   UNL     1       0.912   4.947  20.491  0.00  0.00    +0.000 A 
ATOM      7  C   UNL     1       0.993   3.824  19.685  0.00  0.00    +0.000 A 
ATOM      8  C   UNL     1       2.027   3.778  18.768  0.00  0.00    +0.000 A 
ATOM      9 CL   UNL     1       1.391   3.905  17.122  0.00  0.00    +0.000 Cl
ATOM     10  C   UNL     1       3.197   4.480  19.013  0.00  0.00    +0.000 A 
ATOM     11  C   UNL     1       3.173   5.576  19.905  0.00  0.00    +0.000 A 
BRANCH  10  12
ATOM     12  S   UNL     1       4.674   3.938  18.183  0.00  0.00    +0.000 S 
ATOM     13  O   UNL     1       5.727   3.977  19.194  0.00  0.00    +0.000 OA
ATOM     14  O   UNL     1       4.341   2.712  17.488  0.00  0.00    +0.000 OA
BRANCH  12  15
ATOM     15  N   UNL     1       5.037   5.100  17.014  0.00  0.00    +0.000 NA
ATOM     16  C   UNL     1       5.302   4.786  15.597  0.00  0.00    +0.000 C 
ATOM     17  C   UNL     1       6.799   4.945  15.245  0.00  0.00    +0.000 C 
ATOM     18  O   UNL     1       7.507   6.020  15.882  0.00  0.00    +0.000 OA
ATOM     19  C   UNL     1       7.129   6.314  17.233  0.00  0.00    +0.000 C 
ATOM     20  C   UNL     1       5.615   6.403  17.387  0.00  0.00    +0.000 C 
ENDBRANCH  12  15
ENDBRANCH  10  12
ENDBRANCH   3   5
BRANCH   2  21
ATOM     21  C   UNL     1       1.729   9.477  21.795  0.00  0.00    +0.000 C 
BRANCH  21  22
ATOM     22  N   UNL     1       0.531  10.267  21.676  0.00  0.00    +0.000 N 
ATOM     23  C   UNL     1      -0.485  10.186  22.572  0.00  0.00    +0.000 C 
ATOM     24  O   UNL     1      -0.538   9.452  23.545  0.00  0.00    +0.000 OA
ATOM     25  N   UNL     1      -1.421  11.131  22.257  0.00  0.00    +0.000 N 
ATOM     26  C   UNL     1      -0.937  12.072  21.272  0.00  0.00    +0.000 C 
ATOM     27  C   UNL     1      -1.785  12.070  19.998  0.00  0.00    +0.000 C 
ATOM     28  C   UNL     1      -3.169  12.664  20.249  0.00  0.00    +0.000 C 
ATOM     29  C   UNL     1      -3.085  14.052  20.879  0.00  0.00    +0.000 C 
ATOM     30  C   UNL     1      -2.210  14.075  22.132  0.00  0.00    +0.000 C 
ATOM     31  C   UNL     1      -0.824  13.478  21.869  0.00  0.00    +0.000 C 
ATOM     32  C   UNL     1       0.444  11.445  20.986  0.00  0.00    +0.000 C 
ATOM     33  O   UNL     1       1.321  11.952  20.299  0.00  0.00    +0.000 OA
ATOM     34  H   UNL     1      -2.203  11.285  22.879  0.00  0.00    +0.000 HD
ENDBRANCH  21  22
ENDBRANCH   2  21
TORSDOF 5
ENDMDL
MODEL 6
REMARK VINA RESULT:      -8.6      6.050      9.851
REMARK  Name = 
REMARK  5 active torsions:
REMARK  status: ('A' for Active; 'I' for Inactive)
REMARK    1  A    between atoms: C_2  and  C_3
REMARK    2  A    between atoms: C_3  and  N_4
REMARK    3  A    between atoms: N_16  and  C_17
REMARK    4  A    between atoms: C_22  and  S_23
REMARK    5  A    between atoms: S_23  and  N_26
REMARK                            x       y       z     vdW  Elec       q    Type
REMARK                         _______ _______ _______ _____ _____    ______ ____
ROOT
ATOM      1  O   UNL     1       8.352   7.043  19.018  0.00  0.00    +0.000 OA
ATOM      2  C   UNL     1       7.929   7.444  17.942  0.00  0.00    +0.000 C 
ATOM      3  N   UNL     1       7.814   8.784  17.551  0.00  0.00    +0.000 N 
ATOM      4  H   UNL     1       7.099   9.003  16.854  0.00  0.00    +0.000 HD
ENDROOT
BRANCH   3   5
ATOM      5  C   UNL     1       8.425   9.857  18.232  0.00  0.00    +0.000 A 
ATOM      6  C   UNL     1       9.244   9.616  19.335  0.00  0.00    +0.000 A 
ATOM      7  C   UNL     1       9.944  10.625  19.975  0.00  0.00    +0.000 A 
ATOM      8  C   UNL     1      10.054  11.834  19.313  0.00  0.00    +0.000 A 
ATOM      9 CL   UNL     1      11.730  12.109  18.819  0.00  0.00    +0.000 Cl
ATOM     10  C   UNL     1       9.089  12.205  18.390  0.00  0.00    +0.000 A 
ATOM     11  C   UNL     1       8.291  11.208  17.785  0.00  0.00    +0.000 A 
BRANCH  10  12
ATOM     12  S   UNL     1       8.913  13.938  18.032  0.00  0.00    +0.000 S 
ATOM     13  O   UNL     1      10.100  14.301  17.261  0.00  0.00    +0.000 OA
ATOM     14  O   UNL     1       7.581  14.124  17.496  0.00  0.00    +0.000 OA
BRANCH  12  15
ATOM     15  N   UNL     1       8.986  14.757  19.506  0.00  0.00    +0.000 NA
ATOM     16  C   UNL     1       7.934  14.686  20.539  0.00  0.00    +0.000 C 
ATOM     17  C   UNL     1       7.126  16.000  20.622  0.00  0.00    +0.000 C 
ATOM     18  O   UNL     1       7.849  17.225  20.424  0.00  0.00    +0.000 OA
ATOM     19  C   UNL     1       8.911  17.183  19.462  0.00  0.00    +0.000 C 
ATOM     20  C   UNL     1       9.809  15.968  19.667  0.00  0.00    +0.000 C 
ENDBRANCH  12  15
ENDBRANCH  10  12
ENDBRANCH   3   5
BRANCH   2  21
ATOM     21  C   UNL     1       7.376   6.420  16.945  0.00  0.00    +0.000 C 
BRANCH  21  22
ATOM     22  N   UNL     1       6.032   6.063  17.316  0.00  0.00    +0.000 N 
ATOM     23  C   UNL     1       4.955   6.415  16.569  0.00  0.00    +0.000 C 
ATOM     24  O   UNL     1       4.967   7.071  15.542  0.00  0.00    +0.000 OA
ATOM     25  N   UNL     1       3.840   5.837  17.112  0.00  0.00    +0.000 N 
ATOM     26  C   UNL     1       4.170   4.848  18.113  0.00  0.00    +0.000 C 
ATOM     27  C   UNL     1       3.590   5.193  19.486  0.00  0.00    +0.000 C 
ATOM     28  C   UNL     1       2.069   5.060  19.499  0.00  0.00    +0.000 C 
ATOM     29  C   UNL     1       1.616   3.685  19.014  0.00  0.00    +0.000 C 
ATOM     30  C   UNL     1       2.218   3.313  17.659  0.00  0.00    +0.000 C 
ATOM     31  C   UNL     1       3.744   3.449  17.658  0.00  0.00    +0.000 C 
ATOM     32  C   UNL     1       5.704   5.015  18.132  0.00  0.00    +0.000 C 
ATOM     33  O   UNL     1       6.485   4.294  18.738  0.00  0.00    +0.000 OA
ATOM     34  H   UNL     1       2.956   5.908  16.627  0.00  0.00    +0.000 HD
ENDBRANCH  21  22
ENDBRANCH   2  21
TORSDOF 5
ENDMDL
MODEL 7
REMARK VINA RESULT:      -8.6      6.137      9.767
REMARK  Name = 
REMARK  5 active torsions:
REMARK  status: ('A' for Active; 'I' for Inactive)
REMARK    1  A    between atoms: C_2  and  C_3
REMARK    2  A    between atoms: C_3  and  N_4
REMARK    3  A    between atoms: N_16  and  C_17
REMARK    4  A    between atoms: C_22  and  S_23
REMARK    5  A    between atoms: S_23  and  N_26
REMARK                            x       y       z     vdW  Elec       q    Type
REMARK                         _______ _______ _______ _____ _____    ______ ____
ROOT
ATOM      1  O   UNL     1       8.493   7.226  19.088  0.00  0.00    +0.000 OA
ATOM      2  C   UNL     1       8.088   7.683  18.028  0.00  0.00    +0.000 C 
ATOM      3  N   UNL     1       8.034   9.040  17.683  0.00  0.00    +0.000 N 
ATOM      4  H   UNL     1       7.330   9.314  16.995  0.00  0.00    +0.000 HD
ENDROOT
BRANCH   3   5
ATOM      5  C   UNL     1       8.693  10.060  18.399  0.00  0.00    +0.000 A 
ATOM      6  C   UNL     1       9.017   9.879  19.744  0.00  0.00    +0.000 A 
ATOM      7  C   UNL     1       9.749  10.810  20.462  0.00  0.00    +0.000 A 
ATOM      8  C   UNL     1      10.416  11.783  19.740  0.00  0.00    +0.000 A 
ATOM      9 CL   UNL     1      12.164  11.537  19.853  0.00  0.00    +0.000 Cl
ATOM     10  C   UNL     1       9.944  12.159  18.493  0.00  0.00    +0.000 A 
ATOM     11  C   UNL     1       9.114  11.272  17.770  0.00  0.00    +0.000 A 
BRANCH  10  12
ATOM     12  S   UNL     1      10.413  13.763  17.883  0.00  0.00    +0.000 S 
ATOM     13  O   UNL     1      11.340  14.302  18.874  0.00  0.00    +0.000 OA
ATOM     14  O   UNL     1      10.804  13.589  16.500  0.00  0.00    +0.000 OA
BRANCH  12  15
ATOM     15  N   UNL     1       9.024  14.723  17.900  0.00  0.00    +0.000 NA
ATOM     16  C   UNL     1       9.029  16.179  17.663  0.00  0.00    +0.000 C 
ATOM     17  C   UNL     1       8.773  16.972  18.965  0.00  0.00    +0.000 C 
ATOM     18  O   UNL     1       7.843  16.405  19.901  0.00  0.00    +0.000 OA
ATOM     19  C   UNL     1       7.847  14.975  20.008  0.00  0.00    +0.000 C 
ATOM     20  C   UNL     1       7.819  14.308  18.638  0.00  0.00    +0.000 C 
ENDBRANCH  12  15
ENDBRANCH  10  12
ENDBRANCH   3   5
BRANCH   2  21
ATOM     21  C   UNL     1       7.489   6.720  16.997  0.00  0.00    +0.000 C 
BRANCH  21  22
ATOM     22  N   UNL     1       6.153   6.358  17.394  0.00  0.00    +0.000 N 
ATOM     23  C   UNL     1       5.067   6.648  16.636  0.00  0.00    +0.000 C 
ATOM     24  O   UNL     1       5.062   7.247  15.574  0.00  0.00    +0.000 OA
ATOM     25  N   UNL     1       3.966   6.080  17.215  0.00  0.00    +0.000 N 
ATOM     26  C   UNL     1       4.319   5.154  18.267  0.00  0.00    +0.000 C 
ATOM     27  C   UNL     1       3.739   5.562  19.622  0.00  0.00    +0.000 C 
ATOM     28  C   UNL     1       2.220   5.401  19.650  0.00  0.00    +0.000 C 
ATOM     29  C   UNL     1       1.792   3.993  19.244  0.00  0.00    +0.000 C 
ATOM     30  C   UNL     1       2.395   3.560  17.908  0.00  0.00    +0.000 C 
ATOM     31  C   UNL     1       3.919   3.724  17.892  0.00  0.00    +0.000 C 
ATOM     32  C   UNL     1       5.850   5.351  18.269  0.00  0.00    +0.000 C 
ATOM     33  O   UNL     1       6.648   4.679  18.909  0.00  0.00    +0.000 OA
ATOM     34  H   UNL     1       3.079   6.107  16.731  0.00  0.00    +0.000 HD
ENDBRANCH  21  22
ENDBRANCH   2  21
TORSDOF 5
ENDMDL
MODEL 8
REMARK VINA RESULT:      -8.6      1.960      3.100
REMARK  Name = 
REMARK  5 active torsions:
REMARK  status: ('A' for Active; 'I' for Inactive)
REMARK    1  A    between atoms: C_2  and  C_3
REMARK    2  A    between atoms: C_3  and  N_4
REMARK    3  A    between atoms: N_16  and  C_17
REMARK    4  A    between atoms: C_22  and  S_23
REMARK    5  A    between atoms: S_23  and  N_26
REMARK                            x       y       z     vdW  Elec       q    Type
REMARK                         _______ _______ _______ _____ _____    ______ ____
ROOT
ATOM      1  O   UNL     1       1.670   8.845  22.205  0.00  0.00    +0.000 OA
ATOM      2  C   UNL     1       1.105   8.891  21.120  0.00  0.00    +0.000 C 
ATOM      3  N   UNL     1       1.287   7.994  20.059  0.00  0.00    +0.000 N 
ATOM      4  H   UNL     1       1.105   8.349  19.118  0.00  0.00    +0.000 HD
ENDROOT
BRANCH   3   5
ATOM      5  C   UNL     1       1.939   6.750  20.183  0.00  0.00    +0.000 A 
ATOM      6  C   UNL     1       1.335   5.706  20.884  0.00  0.00    +0.000 A 
ATOM      7  C   UNL     1       1.889   4.439  20.950  0.00  0.00    +0.000 A 
ATOM      8  C   UNL     1       2.901   4.144  20.055  0.00  0.00    +0.000 A 
ATOM      9 CL   UNL     1       2.346   2.946  18.878  0.00  0.00    +0.000 Cl
ATOM     10  C   UNL     1       3.688   5.165  19.544  0.00  0.00    +0.000 A 
ATOM     11  C   UNL     1       3.192   6.489  19.547  0.00  0.00    +0.000 A 
BRANCH  10  12
ATOM     12  S   UNL     1       5.297   4.734  18.921  0.00  0.00    +0.000 S 
ATOM     13  O   UNL     1       6.241   5.555  19.675  0.00  0.00    +0.000 OA
ATOM     14  O   UNL     1       5.379   3.289  18.931  0.00  0.00    +0.000 OA
BRANCH  12  15
ATOM     15  N   UNL     1       5.351   5.234  17.309  0.00  0.00    +0.000 NA
ATOM     16  C   UNL     1       5.514   4.312  16.168  0.00  0.00    +0.000 C 
ATOM     17  C   UNL     1       6.923   4.420  15.542  0.00  0.00    +0.000 C 
ATOM     18  O   UNL     1       7.517   5.727  15.494  0.00  0.00    +0.000 OA
ATOM     19  C   UNL     1       7.239   6.589  16.606  0.00  0.00    +0.000 C 
ATOM     20  C   UNL     1       5.753   6.604  16.949  0.00  0.00    +0.000 C 
ENDBRANCH  12  15
ENDBRANCH  10  12
ENDBRANCH   3   5
BRANCH   2  21
ATOM     21  C   UNL     1       0.182  10.078  20.825  0.00  0.00    +0.000 C 
BRANCH  21  22
ATOM     22  N   UNL     1       0.962  11.187  20.339  0.00  0.00    +0.000 N 
ATOM     23  C   UNL     1       1.374  11.275  19.050  0.00  0.00    +0.000 C 
ATOM     24  O   UNL     1       1.174  10.459  18.166  0.00  0.00    +0.000 OA
ATOM     25  N   UNL     1       1.987  12.484  18.870  0.00  0.00    +0.000 N 
ATOM     26  C   UNL     1       1.778  13.374  19.988  0.00  0.00    +0.000 C 
ATOM     27  C   UNL     1       3.090  13.794  20.653  0.00  0.00    +0.000 C 
ATOM     28  C   UNL     1       3.903  14.719  19.749  0.00  0.00    +0.000 C 
ATOM     29  C   UNL     1       3.085  15.922  19.286  0.00  0.00    +0.000 C 
ATOM     30  C   UNL     1       1.753  15.517  18.654  0.00  0.00    +0.000 C 
ATOM     31  C   UNL     1       0.946  14.590  19.569  0.00  0.00    +0.000 C 
ATOM     32  C   UNL     1       0.996  12.425  20.920  0.00  0.00    +0.000 C 
ATOM     33  O   UNL     1       0.459  12.750  21.971  0.00  0.00    +0.000 OA
ATOM     34  H   UNL     1       2.269  12.766  17.940  0.00  0.00    +0.000 HD
ENDBRANCH  21  22
ENDBRANCH   2  21
TORSDOF 5
ENDMDL
MODEL 9
REMARK VINA RESULT:      -8.4      6.264      9.832
REMARK  Name = 
REMARK  5 active torsions:
REMARK  status: ('A' for Active; 'I' for Inactive)
REMARK    1  A    between atoms: C_2  and  C_3
REMARK    2  A    between atoms: C_3  and  N_4
REMARK    3  A    between atoms: N_16  and  C_17
REMARK    4  A    between atoms: C_22  and  S_23
REMARK    5  A    between atoms: S_23  and  N_26
REMARK                            x       y       z     vdW  Elec       q    Type
REMARK                         _______ _______ _______ _____ _____    ______ ____
ROOT
ATOM      1  O   UNL     1       8.178   6.975  18.799  0.00  0.00    +0.000 OA
ATOM      2  C   UNL     1       7.757   7.461  17.758  0.00  0.00    +0.000 C 
ATOM      3  N   UNL     1       7.692   8.827  17.455  0.00  0.00    +0.000 N 
ATOM      4  H   UNL     1       6.976   9.118  16.785  0.00  0.00    +0.000 HD
ENDROOT
BRANCH   3   5
ATOM      5  C   UNL     1       8.355   9.829  18.192  0.00  0.00    +0.000 A 
ATOM      6  C   UNL     1       8.973   9.518  19.404  0.00  0.00    +0.000 A 
ATOM      7  C   UNL     1       9.719  10.443  20.115  0.00  0.00    +0.000 A 
ATOM      8  C   UNL     1      10.094  11.597  19.451  0.00  0.00    +0.000 A 
ATOM      9 CL   UNL     1      11.843  11.610  19.191  0.00  0.00    +0.000 Cl
ATOM     10  C   UNL     1       9.328  12.063  18.394  0.00  0.00    +0.000 A 
ATOM     11  C   UNL     1       8.482  11.166  17.704  0.00  0.00    +0.000 A 
BRANCH  10  12
ATOM     12  S   UNL     1       9.458  13.788  17.979  0.00  0.00    +0.000 S 
ATOM     13  O   UNL     1      10.542  13.875  17.004  0.00  0.00    +0.000 OA
ATOM     14  O   UNL     1       8.121  14.247  17.664  0.00  0.00    +0.000 OA
BRANCH  12  15
ATOM     15  N   UNL     1       9.955  14.595  19.376  0.00  0.00    +0.000 NA
ATOM     16  C   UNL     1       9.026  15.153  20.378  0.00  0.00    +0.000 C 
ATOM     17  C   UNL     1       8.980  16.696  20.318  0.00  0.00    +0.000 C 
ATOM     18  O   UNL     1      10.213  17.375  20.033  0.00  0.00    +0.000 OA
ATOM     19  C   UNL     1      11.095  16.722  19.111  0.00  0.00    +0.000 C 
ATOM     20  C   UNL     1      11.274  15.247  19.452  0.00  0.00    +0.000 C 
ENDBRANCH  12  15
ENDBRANCH  10  12
ENDBRANCH   3   5
BRANCH   2  21
ATOM     21  C   UNL     1       7.150   6.526  16.708  0.00  0.00    +0.000 C 
BRANCH  21  22
ATOM     22  N   UNL     1       6.068   5.778  17.294  0.00  0.00    +0.000 N 
ATOM     23  C   UNL     1       6.278   4.691  18.077  0.00  0.00    +0.000 C 
ATOM     24  O   UNL     1       7.356   4.200  18.364  0.00  0.00    +0.000 OA
ATOM     25  N   UNL     1       5.074   4.272  18.574  0.00  0.00    +0.000 N 
ATOM     26  C   UNL     1       4.023   5.236  18.343  0.00  0.00    +0.000 C 
ATOM     27  C   UNL     1       2.882   4.665  17.498  0.00  0.00    +0.000 C 
ATOM     28  C   UNL     1       2.089   3.613  18.271  0.00  0.00    +0.000 C 
ATOM     29  C   UNL     1       1.595   4.148  19.613  0.00  0.00    +0.000 C 
ATOM     30  C   UNL     1       2.720   4.756  20.451  0.00  0.00    +0.000 C 
ATOM     31  C   UNL     1       3.509   5.810  19.667  0.00  0.00    +0.000 C 
ATOM     32  C   UNL     1       4.815   6.277  17.524  0.00  0.00    +0.000 C 
ATOM     33  O   UNL     1       4.398   7.377  17.188  0.00  0.00    +0.000 OA
ATOM     34  H   UNL     1       5.050   3.531  19.262  0.00  0.00    +0.000 HD
ENDBRANCH  21  22
ENDBRANCH   2  21
TORSDOF 5
ENDMDL
