MODEL 1
REMARK VINA RESULT:      -7.5      0.000      0.000
REMARK  Name = 
REMARK  13 active torsions:
REMARK  status: ('A' for Active; 'I' for Inactive)
REMARK    1  A    between atoms: C_1  and  C_2
REMARK    2  A    between atoms: C_2  and  C_3
REMARK    3  A    between atoms: C_2  and  O_4
REMARK    4  A    between atoms: C_2  and  C_5
REMARK    5  A    between atoms: C_6  and  C_7
REMARK    6  A    between atoms: C_10  and  C_11
REMARK    7  A    between atoms: N_13  and  CA_14
REMARK    8  A    between atoms: CA_14  and  C_15
REMARK    9  A    between atoms: CA_14  and  C_22
REMARK   10  A    between atoms: C_15  and  C_16
REMARK   11  A    between atoms: C_16  and  C_17
REMARK   12  A    between atoms: C_17  and  N_18
REMARK   13  A    between atoms: C_22  and  OXT_24
REMARK                            x       y       z     vdW  Elec       q    Type
REMARK                         _______ _______ _______ _____ _____    ______ ____
ROOT
ATOM      1  C   UNL     1       4.812   4.527  18.694  0.00  0.00    +0.000 C 
ATOM      2  O   UNL     1       5.724   3.960  19.299  0.00  0.00    +0.000 OA
ATOM      3  N   UNL     1       4.832   4.686  17.332  0.00  0.00    +0.000 N 
ATOM      4  H   UNL     1       4.060   5.197  16.909  0.00  0.00    +0.000 HD
ENDROOT
BRANCH   1   8
ATOM      5  C   UNL     1       2.016   6.703  20.180  0.00  0.00    +0.000 A 
ATOM      6  C   UNL     1       1.861   5.483  20.791  0.00  0.00    +0.000 A 
ATOM      7  C   UNL     1       2.812   4.535  20.296  0.00  0.00    +0.000 A 
ATOM      8  C   UNL     1       3.639   5.094  19.339  0.00  0.00    +0.000 A 
ATOM      9  S   UNL     1       3.143   6.674  18.925  0.00  0.00    +0.000 S 
BRANCH   5  11
ATOM     10  C   UNL     1       0.877   9.052  20.897  0.00  0.00    +0.000 C 
ATOM     11  C   UNL     1       1.379   7.915  20.508  0.00  0.00    +0.000 C 
BRANCH  10  13
ATOM     12  C   UNL     1      -0.439  10.189  22.679  0.00  0.00    +0.000 C 
ATOM     13  C   UNL     1       0.290  10.380  21.351  0.00  0.00    +0.000 C 
ATOM     14  C   UNL     1      -0.657  10.914  20.277  0.00  0.00    +0.000 C 
BRANCH  13  15
ATOM     15  O   UNL     1       1.358  11.304  21.529  0.00  0.00    +0.000 OA
ATOM     16  H   UNL     1       1.035  12.018  22.103  0.00  0.00    +0.000 HD
ENDBRANCH  13  15
ENDBRANCH  10  13
ENDBRANCH   5  11
ENDBRANCH   1   8
BRANCH   3  17
ATOM     17  CA  UNL     1       5.870   4.212  16.443  0.00  0.00    +0.000 C 
BRANCH  17  18
ATOM     18  C   UNL     1       7.175   4.949  16.796  0.00  0.00    +0.000 C 
ATOM     19  O   UNL     1       7.374   6.132  16.560  0.00  0.00    +0.000 OA
BRANCH  18  20
ATOM     20  OXT UNL     1       8.105   4.170  17.393  0.00  0.00    +0.000 OA
ATOM     21  HXT UNL     1       8.357   4.441  18.294  0.00  0.00    +0.000 HD
ENDBRANCH  18  20
ENDBRANCH  17  18
BRANCH  17  22
ATOM     22  C   UNL     1       5.452   4.447  14.985  0.00  0.00    +0.000 C 
BRANCH  22  23
ATOM     23  C   UNL     1       6.652   4.411  14.024  0.00  0.00    +0.000 C 
BRANCH  23  24
ATOM     24  C   UNL     1       6.244   4.088  12.589  0.00  0.00    +0.000 C 
BRANCH  24  25
ATOM     25  N   UNL     1       6.558   2.714  12.250  0.00  0.00    +0.000 N 
ATOM     26  C   UNL     1       5.709   1.935  11.521  0.00  0.00    +0.000 C 
ATOM     27  N   UNL     1       6.138   0.654  11.411  0.00  0.00    +0.000 N 
ATOM     28  O   UNL     1       4.665   2.312  11.015  0.00  0.00    +0.000 OA
ATOM     29  H   UNL     1       7.288   2.246  12.766  0.00  0.00    +0.000 HD
ATOM     30  H   UNL     1       7.114   0.426  11.519  0.00  0.00    +0.000 HD
ATOM     31  H   UNL     1       5.606   0.082  10.766  0.00  0.00    +0.000 HD
ENDBRANCH  24  25
ENDBRANCH  23  24
ENDBRANCH  22  23
ENDBRANCH  17  22
ENDBRANCH   3  17
TORSDOF 11
ENDMDL
MODEL 2
REMARK VINA RESULT:      -7.4      3.733      4.929
REMARK  Name = 
REMARK  13 active torsions:
REMARK  status: ('A' for Active; 'I' for Inactive)
REMARK    1  A    between atoms: C_1  and  C_2
REMARK    2  A    between atoms: C_2  and  C_3
REMARK    3  A    between atoms: C_2  and  O_4
REMARK    4  A    between atoms: C_2  and  C_5
REMARK    5  A    between atoms: C_6  and  C_7
REMARK    6  A    between atoms: C_10  and  C_11
REMARK    7  A    between atoms: N_13  and  CA_14
REMARK    8  A    between atoms: CA_14  and  C_15
REMARK    9  A    between atoms: CA_14  and  C_22
REMARK   10  A    between atoms: C_15  and  C_16
REMARK   11  A    between atoms: C_16  and  C_17
REMARK   12  A    between atoms: C_17  and  N_18
REMARK   13  A    between atoms: C_22  and  OXT_24
REMARK                            x       y       z     vdW  Elec       q    Type
REMARK                         _______ _______ _______ _____ _____    ______ ____
ROOT
ATOM      1  C   UNL     1       3.136   6.204  19.217  0.00  0.00    +0.000 C 
ATOM      2  O   UNL     1       2.751   5.480  20.136  0.00  0.00    +0.000 OA
ATOM      3  N   UNL     1       4.169   5.843  18.390  0.00  0.00    +0.000 N 
ATOM      4  H   UNL     1       4.453   6.511  17.677  0.00  0.00    +0.000 HD
ENDROOT
BRANCH   1   8
ATOM      5  C   UNL     1       1.106   9.457  18.965  0.00  0.00    +0.000 A 
ATOM      6  C   UNL     1       1.837   9.419  17.802  0.00  0.00    +0.000 A 
ATOM      7  C   UNL     1       2.695   8.275  17.771  0.00  0.00    +0.000 A 
ATOM      8  C   UNL     1       2.561   7.505  18.913  0.00  0.00    +0.000 A 
ATOM      9  S   UNL     1       1.557   8.262  20.067  0.00  0.00    +0.000 S 
BRANCH   5  11
ATOM     10  C   UNL     1      -0.861  11.230  19.528  0.00  0.00    +0.000 C 
ATOM     11  C   UNL     1       0.052  10.332  19.288  0.00  0.00    +0.000 C 
BRANCH  10  13
ATOM     12  C   UNL     1      -2.148  12.393  21.314  0.00  0.00    +0.000 C 
ATOM     13  C   UNL     1      -1.928  12.278  19.808  0.00  0.00    +0.000 C 
ATOM     14  C   UNL     1      -3.222  11.892  19.093  0.00  0.00    +0.000 C 
BRANCH  13  15
ATOM     15  O   UNL     1      -1.472  13.527  19.301  0.00  0.00    +0.000 OA
ATOM     16  H   UNL     1      -0.503  13.488  19.256  0.00  0.00    +0.000 HD
ENDBRANCH  13  15
ENDBRANCH  10  13
ENDBRANCH   5  11
ENDBRANCH   1   8
BRANCH   3  17
ATOM     17  CA  UNL     1       4.911   4.604  18.461  0.00  0.00    +0.000 C 
BRANCH  17  18
ATOM     18  C   UNL     1       6.404   4.949  18.610  0.00  0.00    +0.000 C 
ATOM     19  O   UNL     1       7.223   4.838  17.709  0.00  0.00    +0.000 OA
BRANCH  18  20
ATOM     20  OXT UNL     1       6.749   5.387  19.842  0.00  0.00    +0.000 OA
ATOM     21  HXT UNL     1       6.018   5.441  20.483  0.00  0.00    +0.000 HD
ENDBRANCH  18  20
ENDBRANCH  17  18
BRANCH  17  22
ATOM     22  C   UNL     1       4.638   3.762  17.206  0.00  0.00    +0.000 C 
BRANCH  22  23
ATOM     23  C   UNL     1       3.186   3.260  17.148  0.00  0.00    +0.000 C 
BRANCH  23  24
ATOM     24  C   UNL     1       2.943   2.064  18.064  0.00  0.00    +0.000 C 
BRANCH  24  25
ATOM     25  N   UNL     1       2.395   2.482  19.340  0.00  0.00    +0.000 N 
ATOM     26  C   UNL     1       1.053   2.581  19.555  0.00  0.00    +0.000 C 
ATOM     27  N   UNL     1       0.754   3.093  20.773  0.00  0.00    +0.000 N 
ATOM     28  O   UNL     1       0.185   2.260  18.759  0.00  0.00    +0.000 OA
ATOM     29  H   UNL     1       3.005   2.948  19.995  0.00  0.00    +0.000 HD
ATOM     30  H   UNL     1       1.415   3.038  21.532  0.00  0.00    +0.000 HD
ATOM     31  H   UNL     1      -0.227   3.055  21.021  0.00  0.00    +0.000 HD
ENDBRANCH  24  25
ENDBRANCH  23  24
ENDBRANCH  22  23
ENDBRANCH  17  22
ENDBRANCH   3  17
TORSDOF 11
ENDMDL
MODEL 3
REMARK VINA RESULT:      -7.1      3.328      4.432
REMARK  Name = 
REMARK  13 active torsions:
REMARK  status: ('A' for Active; 'I' for Inactive)
REMARK    1  A    between atoms: C_1  and  C_2
REMARK    2  A    between atoms: C_2  and  C_3
REMARK    3  A    between atoms: C_2  and  O_4
REMARK    4  A    between atoms: C_2  and  C_5
REMARK    5  A    between atoms: C_6  and  C_7
REMARK    6  A    between atoms: C_10  and  C_11
REMARK    7  A    between atoms: N_13  and  CA_14
REMARK    8  A    between atoms: CA_14  and  C_15
REMARK    9  A    between atoms: CA_14  and  C_22
REMARK   10  A    between atoms: C_15  and  C_16
REMARK   11  A    between atoms: C_16  and  C_17
REMARK   12  A    between atoms: C_17  and  N_18
REMARK   13  A    between atoms: C_22  and  OXT_24
REMARK                            x       y       z     vdW  Elec       q    Type
REMARK                         _______ _______ _______ _____ _____    ______ ____
ROOT
ATOM      1  C   UNL     1       2.460   5.828  18.095  0.00  0.00    +0.000 C 
ATOM      2  O   UNL     1       1.574   5.027  17.792  0.00  0.00    +0.000 OA
ATOM      3  N   UNL     1       3.772   5.448  18.224  0.00  0.00    +0.000 N 
ATOM      4  H   UNL     1       4.440   6.160  18.512  0.00  0.00    +0.000 HD
ENDROOT
BRANCH   1   8
ATOM      5  C   UNL     1       1.401   9.293  19.373  0.00  0.00    +0.000 A 
ATOM      6  C   UNL     1       1.873   9.527  18.105  0.00  0.00    +0.000 A 
ATOM      7  C   UNL     1       2.360   8.322  17.507  0.00  0.00    +0.000 A 
ATOM      8  C   UNL     1       2.224   7.238  18.357  0.00  0.00    +0.000 A 
ATOM      9  S   UNL     1       1.692   7.719  19.906  0.00  0.00    +0.000 S 
BRANCH   5  11
ATOM     10  C   UNL     1      -0.007  11.041  20.887  0.00  0.00    +0.000 C 
ATOM     11  C   UNL     1       0.707  10.188  20.209  0.00  0.00    +0.000 C 
BRANCH  10  13
ATOM     12  C   UNL     1      -0.047  13.326  21.875  0.00  0.00    +0.000 C 
ATOM     13  C   UNL     1      -0.841  12.037  21.678  0.00  0.00    +0.000 C 
ATOM     14  C   UNL     1      -1.232  11.423  23.022  0.00  0.00    +0.000 C 
BRANCH  13  15
ATOM     15  O   UNL     1      -2.022  12.321  20.937  0.00  0.00    +0.000 OA
ATOM     16  H   UNL     1      -2.391  11.474  20.638  0.00  0.00    +0.000 HD
ENDBRANCH  13  15
ENDBRANCH  10  13
ENDBRANCH   5  11
ENDBRANCH   1   8
BRANCH   3  17
ATOM     17  CA  UNL     1       4.287   4.113  18.011  0.00  0.00    +0.000 C 
BRANCH  17  18
ATOM     18  C   UNL     1       5.324   3.821  19.112  0.00  0.00    +0.000 C 
ATOM     19  O   UNL     1       6.160   4.627  19.492  0.00  0.00    +0.000 OA
BRANCH  18  20
ATOM     20  OXT UNL     1       5.240   2.575  19.632  0.00  0.00    +0.000 OA
ATOM     21  HXT UNL     1       4.362   2.326  19.971  0.00  0.00    +0.000 HD
ENDBRANCH  18  20
ENDBRANCH  17  18
BRANCH  17  22
ATOM     22  C   UNL     1       4.896   4.009  16.606  0.00  0.00    +0.000 C 
BRANCH  22  23
ATOM     23  C   UNL     1       5.382   5.370  16.081  0.00  0.00    +0.000 C 
BRANCH  23  24
ATOM     24  C   UNL     1       6.903   5.448  15.976  0.00  0.00    +0.000 C 
BRANCH  24  25
ATOM     25  N   UNL     1       7.503   5.735  17.264  0.00  0.00    +0.000 N 
ATOM     26  C   UNL     1       7.663   7.009  17.721  0.00  0.00    +0.000 C 
ATOM     27  N   UNL     1       8.343   7.065  18.892  0.00  0.00    +0.000 N 
ATOM     28  O   UNL     1       7.259   8.016  17.162  0.00  0.00    +0.000 OA
ATOM     29  H   UNL     1       8.037   5.010  17.718  0.00  0.00    +0.000 HD
ATOM     30  H   UNL     1       8.375   6.268  19.508  0.00  0.00    +0.000 HD
ATOM     31  H   UNL     1       8.363   7.978  19.329  0.00  0.00    +0.000 HD
ENDBRANCH  24  25
ENDBRANCH  23  24
ENDBRANCH  22  23
ENDBRANCH  17  22
ENDBRANCH   3  17
TORSDOF 11
ENDMDL
MODEL 4
REMARK VINA RESULT:      -7.1      1.527      1.852
REMARK  Name = 
REMARK  13 active torsions:
REMARK  status: ('A' for Active; 'I' for Inactive)
REMARK    1  A    between atoms: C_1  and  C_2
REMARK    2  A    between atoms: C_2  and  C_3
REMARK    3  A    between atoms: C_2  and  O_4
REMARK    4  A    between atoms: C_2  and  C_5
REMARK    5  A    between atoms: C_6  and  C_7
REMARK    6  A    between atoms: C_10  and  C_11
REMARK    7  A    between atoms: N_13  and  CA_14
REMARK    8  A    between atoms: CA_14  and  C_15
REMARK    9  A    between atoms: CA_14  and  C_22
REMARK   10  A    between atoms: C_15  and  C_16
REMARK   11  A    between atoms: C_16  and  C_17
REMARK   12  A    between atoms: C_17  and  N_18
REMARK   13  A    between atoms: C_22  and  OXT_24
REMARK                            x       y       z     vdW  Elec       q    Type
REMARK                         _______ _______ _______ _____ _____    ______ ____
ROOT
ATOM      1  C   UNL     1       4.159   4.925  18.953  0.00  0.00    +0.000 C 
ATOM      2  O   UNL     1       4.065   3.845  18.367  0.00  0.00    +0.000 OA
ATOM      3  N   UNL     1       5.350   5.596  19.054  0.00  0.00    +0.000 N 
ATOM      4  H   UNL     1       5.355   6.465  19.585  0.00  0.00    +0.000 HD
ENDROOT
BRANCH   1   8
ATOM      5  C   UNL     1       1.574   7.345  20.444  0.00  0.00    +0.000 A 
ATOM      6  C   UNL     1       1.316   6.147  21.063  0.00  0.00    +0.000 A 
ATOM      7  C   UNL     1       2.177   5.117  20.567  0.00  0.00    +0.000 A 
ATOM      8  C   UNL     1       3.044   5.596  19.602  0.00  0.00    +0.000 A 
ATOM      9  S   UNL     1       2.686   7.211  19.182  0.00  0.00    +0.000 S 
BRANCH   5  11
ATOM     10  C   UNL     1       0.471   9.757  20.991  0.00  0.00    +0.000 C 
ATOM     11  C   UNL     1       1.048   8.610  20.769  0.00  0.00    +0.000 C 
BRANCH  10  13
ATOM     12  C   UNL     1      -1.068  11.000  22.503  0.00  0.00    +0.000 C 
ATOM     13  C   UNL     1      -0.201  11.097  21.249  0.00  0.00    +0.000 C 
ATOM     14  C   UNL     1      -1.039  11.490  20.033  0.00  0.00    +0.000 C 
BRANCH  13  15
ATOM     15  O   UNL     1       0.812  12.075  21.451  0.00  0.00    +0.000 OA
ATOM     16  H   UNL     1       1.321  11.811  22.235  0.00  0.00    +0.000 HD
ENDBRANCH  13  15
ENDBRANCH  10  13
ENDBRANCH   5  11
ENDBRANCH   1   8
BRANCH   3  17
ATOM     17  CA  UNL     1       6.612   5.164  18.494  0.00  0.00    +0.000 C 
BRANCH  17  18
ATOM     18  C   UNL     1       7.744   5.812  19.312  0.00  0.00    +0.000 C 
ATOM     19  O   UNL     1       8.435   6.736  18.907  0.00  0.00    +0.000 OA
BRANCH  18  20
ATOM     20  OXT UNL     1       7.924   5.266  20.536  0.00  0.00    +0.000 OA
ATOM     21  HXT UNL     1       8.827   5.341  20.896  0.00  0.00    +0.000 HD
ENDBRANCH  18  20
ENDBRANCH  17  18
BRANCH  17  22
ATOM     22  C   UNL     1       6.681   5.550  17.010  0.00  0.00    +0.000 C 
BRANCH  22  23
ATOM     23  C   UNL     1       6.886   4.327  16.101  0.00  0.00    +0.000 C 
BRANCH  23  24
ATOM     24  C   UNL     1       6.838   4.685  14.618  0.00  0.00    +0.000 C 
BRANCH  24  25
ATOM     25  N   UNL     1       6.283   3.599  13.834  0.00  0.00    +0.000 N 
ATOM     26  C   UNL     1       6.535   3.466  12.501  0.00  0.00    +0.000 C 
ATOM     27  N   UNL     1       5.834   2.454  11.934  0.00  0.00    +0.000 N 
ATOM     28  O   UNL     1       7.295   4.167  11.853  0.00  0.00    +0.000 OA
ATOM     29  H   UNL     1       5.504   3.082  14.212  0.00  0.00    +0.000 HD
ATOM     30  H   UNL     1       5.491   1.689  12.492  0.00  0.00    +0.000 HD
ATOM     31  H   UNL     1       6.095   2.239  10.979  0.00  0.00    +0.000 HD
ENDBRANCH  24  25
ENDBRANCH  23  24
ENDBRANCH  22  23
ENDBRANCH  17  22
ENDBRANCH   3  17
TORSDOF 11
ENDMDL
MODEL 5
REMARK VINA RESULT:      -7.1      3.996      7.578
REMARK  Name = 
REMARK  13 active torsions:
REMARK  status: ('A' for Active; 'I' for Inactive)
REMARK    1  A    between atoms: C_1  and  C_2
REMARK    2  A    between atoms: C_2  and  C_3
REMARK    3  A    between atoms: C_2  and  O_4
REMARK    4  A    between atoms: C_2  and  C_5
REMARK    5  A    between atoms: C_6  and  C_7
REMARK    6  A    between atoms: C_10  and  C_11
REMARK    7  A    between atoms: N_13  and  CA_14
REMARK    8  A    between atoms: CA_14  and  C_15
REMARK    9  A    between atoms: CA_14  and  C_22
REMARK   10  A    between atoms: C_15  and  C_16
REMARK   11  A    between atoms: C_16  and  C_17
REMARK   12  A    between atoms: C_17  and  N_18
REMARK   13  A    between atoms: C_22  and  OXT_24
REMARK                            x       y       z     vdW  Elec       q    Type
REMARK                         _______ _______ _______ _____ _____    ______ ____
ROOT
ATOM      1  C   UNL     1       5.222   4.331  18.617  0.00  0.00    +0.000 C 
ATOM      2  O   UNL     1       5.790   3.487  19.312  0.00  0.00    +0.000 OA
ATOM      3  N   UNL     1       3.876   4.273  18.357  0.00  0.00    +0.000 N 
ATOM      4  H   UNL     1       3.487   4.986  17.744  0.00  0.00    +0.000 HD
ENDROOT
BRANCH   1   8
ATOM      5  C   UNL     1       7.236   7.467  17.687  0.00  0.00    +0.000 A 
ATOM      6  C   UNL     1       6.435   7.240  16.595  0.00  0.00    +0.000 A 
ATOM      7  C   UNL     1       5.650   6.057  16.771  0.00  0.00    +0.000 A 
ATOM      8  C   UNL     1       5.898   5.456  17.992  0.00  0.00    +0.000 A 
ATOM      9  S   UNL     1       7.188   6.213  18.814  0.00  0.00    +0.000 S 
BRANCH   5  11
ATOM     10  C   UNL     1       8.718   9.698  18.088  0.00  0.00    +0.000 C 
ATOM     11  C   UNL     1       8.024   8.604  17.952  0.00  0.00    +0.000 C 
BRANCH  10  13
ATOM     12  C   UNL     1       9.983  11.115  19.697  0.00  0.00    +0.000 C 
ATOM     13  C   UNL     1       9.528  10.975  18.246  0.00  0.00    +0.000 C 
ATOM     14  C   UNL     1       8.682  12.173  17.818  0.00  0.00    +0.000 C 
BRANCH  13  15
ATOM     15  O   UNL     1      10.671  10.889  17.401  0.00  0.00    +0.000 OA
ATOM     16  H   UNL     1      10.362  10.959  16.484  0.00  0.00    +0.000 HD
ENDBRANCH  13  15
ENDBRANCH  10  13
ENDBRANCH   5  11
ENDBRANCH   1   8
BRANCH   3  17
ATOM     17  CA  UNL     1       2.963   3.270  18.859  0.00  0.00    +0.000 C 
BRANCH  17  18
ATOM     18  C   UNL     1       3.056   2.037  17.940  0.00  0.00    +0.000 C 
ATOM     19  O   UNL     1       2.341   1.859  16.964  0.00  0.00    +0.000 OA
BRANCH  18  20
ATOM     20  OXT UNL     1       4.005   1.146  18.306  0.00  0.00    +0.000 OA
ATOM     21  HXT UNL     1       3.737   0.211  18.257  0.00  0.00    +0.000 HD
ENDBRANCH  18  20
ENDBRANCH  17  18
BRANCH  17  22
ATOM     22  C   UNL     1       1.540   3.842  18.911  0.00  0.00    +0.000 C 
BRANCH  22  23
ATOM     23  C   UNL     1       1.106   4.192  20.344  0.00  0.00    +0.000 C 
BRANCH  23  24
ATOM     24  C   UNL     1       2.058   5.174  21.021  0.00  0.00    +0.000 C 
BRANCH  24  25
ATOM     25  N   UNL     1       1.598   6.540  20.868  0.00  0.00    +0.000 N 
ATOM     26  C   UNL     1       2.081   7.362  19.893  0.00  0.00    +0.000 C 
ATOM     27  N   UNL     1       1.605   8.627  19.991  0.00  0.00    +0.000 N 
ATOM     28  O   UNL     1       2.863   7.033  19.016  0.00  0.00    +0.000 OA
ATOM     29  H   UNL     1       1.108   6.972  21.636  0.00  0.00    +0.000 HD
ATOM     30  H   UNL     1       0.738   8.816  20.469  0.00  0.00    +0.000 HD
ATOM     31  H   UNL     1       1.833   9.228  19.209  0.00  0.00    +0.000 HD
ENDBRANCH  24  25
ENDBRANCH  23  24
ENDBRANCH  22  23
ENDBRANCH  17  22
ENDBRANCH   3  17
TORSDOF 11
ENDMDL
MODEL 6
REMARK VINA RESULT:      -7.0      3.317      4.531
REMARK  Name = 
REMARK  13 active torsions:
REMARK  status: ('A' for Active; 'I' for Inactive)
REMARK    1  A    between atoms: C_1  and  C_2
REMARK    2  A    between atoms: C_2  and  C_3
REMARK    3  A    between atoms: C_2  and  O_4
REMARK    4  A    between atoms: C_2  and  C_5
REMARK    5  A    between atoms: C_6  and  C_7
REMARK    6  A    between atoms: C_10  and  C_11
REMARK    7  A    between atoms: N_13  and  CA_14
REMARK    8  A    between atoms: CA_14  and  C_15
REMARK    9  A    between atoms: CA_14  and  C_22
REMARK   10  A    between atoms: C_15  and  C_16
REMARK   11  A    between atoms: C_16  and  C_17
REMARK   12  A    between atoms: C_17  and  N_18
REMARK   13  A    between atoms: C_22  and  OXT_24
REMARK                            x       y       z     vdW  Elec       q    Type
REMARK                         _______ _______ _______ _____ _____    ______ ____
ROOT
ATOM      1  C   UNL     1       3.785   6.099  18.933  0.00  0.00    +0.000 C 
ATOM      2  O   UNL     1       4.459   5.470  19.750  0.00  0.00    +0.000 OA
ATOM      3  N   UNL     1       3.996   5.996  17.582  0.00  0.00    +0.000 N 
ATOM      4  H   UNL     1       3.422   6.575  16.972  0.00  0.00    +0.000 HD
ENDROOT
BRANCH   1   8
ATOM      5  C   UNL     1       1.253   8.962  19.328  0.00  0.00    +0.000 A 
ATOM      6  C   UNL     1       1.143   8.246  20.495  0.00  0.00    +0.000 A 
ATOM      7  C   UNL     1       2.000   7.100  20.477  0.00  0.00    +0.000 A 
ATOM      8  C   UNL     1       2.716   7.015  19.297  0.00  0.00    +0.000 A 
ATOM      9  S   UNL     1       2.214   8.196  18.172  0.00  0.00    +0.000 S 
BRANCH   5  11
ATOM     10  C   UNL     1       0.075  11.348  18.827  0.00  0.00    +0.000 C 
ATOM     11  C   UNL     1       0.693  10.220  19.038  0.00  0.00    +0.000 C 
BRANCH  10  13
ATOM     12  C   UNL     1       0.348  13.818  18.676  0.00  0.00    +0.000 C 
ATOM     13  C   UNL     1      -0.647  12.664  18.581  0.00  0.00    +0.000 C 
ATOM     14  C   UNL     1      -1.773  12.826  19.601  0.00  0.00    +0.000 C 
BRANCH  13  15
ATOM     15  O   UNL     1      -1.206  12.630  17.273  0.00  0.00    +0.000 OA
ATOM     16  H   UNL     1      -2.161  12.479  17.367  0.00  0.00    +0.000 HD
ENDBRANCH  13  15
ENDBRANCH  10  13
ENDBRANCH   5  11
ENDBRANCH   1   8
BRANCH   3  17
ATOM     17  CA  UNL     1       4.984   5.152  16.945  0.00  0.00    +0.000 C 
BRANCH  17  18
ATOM     18  C   UNL     1       5.594   5.937  15.769  0.00  0.00    +0.000 C 
ATOM     19  O   UNL     1       5.046   6.884  15.224  0.00  0.00    +0.000 OA
BRANCH  18  20
ATOM     20  OXT UNL     1       6.804   5.483  15.371  0.00  0.00    +0.000 OA
ATOM     21  HXT UNL     1       7.450   6.174  15.138  0.00  0.00    +0.000 HD
ENDBRANCH  18  20
ENDBRANCH  17  18
BRANCH  17  22
ATOM     22  C   UNL     1       4.330   3.842  16.486  0.00  0.00    +0.000 C 
BRANCH  22  23
ATOM     23  C   UNL     1       2.876   3.718  16.968  0.00  0.00    +0.000 C 
BRANCH  23  24
ATOM     24  C   UNL     1       2.614   2.411  17.711  0.00  0.00    +0.000 C 
BRANCH  24  25
ATOM     25  N   UNL     1       3.804   1.953  18.402  0.00  0.00    +0.000 N 
ATOM     26  C   UNL     1       3.964   2.105  19.747  0.00  0.00    +0.000 C 
ATOM     27  N   UNL     1       5.189   1.713  20.176  0.00  0.00    +0.000 N 
ATOM     28  O   UNL     1       3.124   2.549  20.512  0.00  0.00    +0.000 OA
ATOM     29  H   UNL     1       4.629   1.751  17.857  0.00  0.00    +0.000 HD
ATOM     30  H   UNL     1       5.735   1.055  19.643  0.00  0.00    +0.000 HD
ATOM     31  H   UNL     1       5.297   1.684  21.183  0.00  0.00    +0.000 HD
ENDBRANCH  24  25
ENDBRANCH  23  24
ENDBRANCH  22  23
ENDBRANCH  17  22
ENDBRANCH   3  17
TORSDOF 11
ENDMDL
MODEL 7
REMARK VINA RESULT:      -6.9      1.014      1.165
REMARK  Name = 
REMARK  13 active torsions:
REMARK  status: ('A' for Active; 'I' for Inactive)
REMARK    1  A    between atoms: C_1  and  C_2
REMARK    2  A    between atoms: C_2  and  C_3
REMARK    3  A    between atoms: C_2  and  O_4
REMARK    4  A    between atoms: C_2  and  C_5
REMARK    5  A    between atoms: C_6  and  C_7
REMARK    6  A    between atoms: C_10  and  C_11
REMARK    7  A    between atoms: N_13  and  CA_14
REMARK    8  A    between atoms: CA_14  and  C_15
REMARK    9  A    between atoms: CA_14  and  C_22
REMARK   10  A    between atoms: C_15  and  C_16
REMARK   11  A    between atoms: C_16  and  C_17
REMARK   12  A    between atoms: C_17  and  N_18
REMARK   13  A    between atoms: C_22  and  OXT_24
REMARK                            x       y       z     vdW  Elec       q    Type
REMARK                         _______ _______ _______ _____ _____    ______ ____
ROOT
ATOM      1  C   UNL     1       3.878   4.509  18.692  0.00  0.00    +0.000 C 
ATOM      2  O   UNL     1       3.870   3.284  18.832  0.00  0.00    +0.000 OA
ATOM      3  N   UNL     1       4.794   5.143  17.893  0.00  0.00    +0.000 N 
ATOM      4  H   UNL     1       4.759   6.160  17.857  0.00  0.00    +0.000 HD
ENDROOT
BRANCH   1   8
ATOM      5  C   UNL     1       1.770   7.432  20.024  0.00  0.00    +0.000 A 
ATOM      6  C   UNL     1       1.544   6.413  20.917  0.00  0.00    +0.000 A 
ATOM      7  C   UNL     1       2.231   5.222  20.522  0.00  0.00    +0.000 A 
ATOM      8  C   UNL     1       2.944   5.407  19.352  0.00  0.00    +0.000 A 
ATOM      9  S   UNL     1       2.630   6.935  18.660  0.00  0.00    +0.000 S 
BRANCH   5  11
ATOM     10  C   UNL     1       0.942  10.001  20.236  0.00  0.00    +0.000 C 
ATOM     11  C   UNL     1       1.399   8.784  20.152  0.00  0.00    +0.000 C 
BRANCH  10  13
ATOM     12  C   UNL     1      -1.099  11.420  20.097  0.00  0.00    +0.000 C 
ATOM     13  C   UNL     1       0.409  11.422  20.335  0.00  0.00    +0.000 C 
ATOM     14  C   UNL     1       1.123  12.307  19.314  0.00  0.00    +0.000 C 
BRANCH  13  15
ATOM     15  O   UNL     1       0.679  11.912  21.643  0.00  0.00    +0.000 OA
ATOM     16  H   UNL     1       1.642  11.904  21.766  0.00  0.00    +0.000 HD
ENDBRANCH  13  15
ENDBRANCH  10  13
ENDBRANCH   5  11
ENDBRANCH   1   8
BRANCH   3  17
ATOM     17  CA  UNL     1       5.827   4.495  17.115  0.00  0.00    +0.000 C 
BRANCH  17  18
ATOM     18  C   UNL     1       7.182   5.108  17.515  0.00  0.00    +0.000 C 
ATOM     19  O   UNL     1       7.571   6.205  17.140  0.00  0.00    +0.000 OA
BRANCH  18  20
ATOM     20  OXT UNL     1       7.927   4.321  18.323  0.00  0.00    +0.000 OA
ATOM     21  HXT UNL     1       7.421   3.782  18.958  0.00  0.00    +0.000 HD
ENDBRANCH  18  20
ENDBRANCH  17  18
BRANCH  17  22
ATOM     22  C   UNL     1       5.536   4.669  15.618  0.00  0.00    +0.000 C 
BRANCH  22  23
ATOM     23  C   UNL     1       6.426   3.770  14.745  0.00  0.00    +0.000 C 
BRANCH  23  24
ATOM     24  C   UNL     1       6.246   4.038  13.253  0.00  0.00    +0.000 C 
BRANCH  24  25
ATOM     25  N   UNL     1       6.564   2.863  12.466  0.00  0.00    +0.000 N 
ATOM     26  C   UNL     1       5.658   2.286  11.627  0.00  0.00    +0.000 C 
ATOM     27  N   UNL     1       6.116   1.137  11.071  0.00  0.00    +0.000 N 
ATOM     28  O   UNL     1       4.544   2.721  11.384  0.00  0.00    +0.000 OA
ATOM     29  H   UNL     1       7.370   2.315  12.724  0.00  0.00    +0.000 HD
ATOM     30  H   UNL     1       7.105   0.961  10.994  0.00  0.00    +0.000 HD
ATOM     31  H   UNL     1       5.527   0.754  10.343  0.00  0.00    +0.000 HD
ENDBRANCH  24  25
ENDBRANCH  23  24
ENDBRANCH  22  23
ENDBRANCH  17  22
ENDBRANCH   3  17
TORSDOF 11
ENDMDL
MODEL 8
REMARK VINA RESULT:      -6.9      3.451      4.851
REMARK  Name = 
REMARK  13 active torsions:
REMARK  status: ('A' for Active; 'I' for Inactive)
REMARK    1  A    between atoms: C_1  and  C_2
REMARK    2  A    between atoms: C_2  and  C_3
REMARK    3  A    between atoms: C_2  and  O_4
REMARK    4  A    between atoms: C_2  and  C_5
REMARK    5  A    between atoms: C_6  and  C_7
REMARK    6  A    between atoms: C_10  and  C_11
REMARK    7  A    between atoms: N_13  and  CA_14
REMARK    8  A    between atoms: CA_14  and  C_15
REMARK    9  A    between atoms: CA_14  and  C_22
REMARK   10  A    between atoms: C_15  and  C_16
REMARK   11  A    between atoms: C_16  and  C_17
REMARK   12  A    between atoms: C_17  and  N_18
REMARK   13  A    between atoms: C_22  and  OXT_24
REMARK                            x       y       z     vdW  Elec       q    Type
REMARK                         _______ _______ _______ _____ _____    ______ ____
ROOT
ATOM      1  C   UNL     1       3.607   6.055  19.080  0.00  0.00    +0.000 C 
ATOM      2  O   UNL     1       4.166   5.306  19.883  0.00  0.00    +0.000 OA
ATOM      3  N   UNL     1       3.925   6.060  17.746  0.00  0.00    +0.000 N 
ATOM      4  H   UNL     1       3.445   6.733  17.152  0.00  0.00    +0.000 HD
ENDROOT
BRANCH   1   8
ATOM      5  C   UNL     1       1.216   9.031  19.515  0.00  0.00    +0.000 A 
ATOM      6  C   UNL     1       1.018   8.267  20.639  0.00  0.00    +0.000 A 
ATOM      7  C   UNL     1       1.813   7.078  20.599  0.00  0.00    +0.000 A 
ATOM      8  C   UNL     1       2.574   7.011  19.445  0.00  0.00    +0.000 A 
ATOM      9  S   UNL     1       2.184   8.270  18.362  0.00  0.00    +0.000 S 
BRANCH   5  11
ATOM     10  C   UNL     1       0.196  11.483  18.985  0.00  0.00    +0.000 C 
ATOM     11  C   UNL     1       0.737  10.331  19.266  0.00  0.00    +0.000 C 
BRANCH  10  13
ATOM     12  C   UNL     1       0.652  13.895  18.568  0.00  0.00    +0.000 C 
ATOM     13  C   UNL     1      -0.436  12.827  18.657  0.00  0.00    +0.000 C 
ATOM     14  C   UNL     1      -1.467  13.181  19.727  0.00  0.00    +0.000 C 
BRANCH  13  15
ATOM     15  O   UNL     1      -1.092  12.718  17.398  0.00  0.00    +0.000 OA
ATOM     16  H   UNL     1      -2.043  12.834  17.553  0.00  0.00    +0.000 HD
ENDBRANCH  13  15
ENDBRANCH  10  13
ENDBRANCH   5  11
ENDBRANCH   1   8
BRANCH   3  17
ATOM     17  CA  UNL     1       4.906   5.208  17.110  0.00  0.00    +0.000 C 
BRANCH  17  18
ATOM     18  C   UNL     1       5.725   6.070  16.131  0.00  0.00    +0.000 C 
ATOM     19  O   UNL     1       5.865   5.808  14.945  0.00  0.00    +0.000 OA
BRANCH  18  20
ATOM     20  OXT UNL     1       6.293   7.159  16.697  0.00  0.00    +0.000 OA
ATOM     21  HXT UNL     1       5.947   7.398  17.576  0.00  0.00    +0.000 HD
ENDBRANCH  18  20
ENDBRANCH  17  18
BRANCH  17  22
ATOM     22  C   UNL     1       4.201   4.044  16.401  0.00  0.00    +0.000 C 
BRANCH  22  23
ATOM     23  C   UNL     1       2.846   3.706  17.043  0.00  0.00    +0.000 C 
BRANCH  23  24
ATOM     24  C   UNL     1       2.908   2.461  17.922  0.00  0.00    +0.000 C 
BRANCH  24  25
ATOM     25  N   UNL     1       2.437   2.741  19.264  0.00  0.00    +0.000 N 
ATOM     26  C   UNL     1       1.117   2.667  19.599  0.00  0.00    +0.000 C 
ATOM     27  N   UNL     1       0.876   3.074  20.869  0.00  0.00    +0.000 N 
ATOM     28  O   UNL     1       0.222   2.288  18.861  0.00  0.00    +0.000 OA
ATOM     29  H   UNL     1       3.047   3.240  19.893  0.00  0.00    +0.000 HD
ATOM     30  H   UNL     1       1.606   3.057  21.563  0.00  0.00    +0.000 HD
ATOM     31  H   UNL     1      -0.067   2.906  21.196  0.00  0.00    +0.000 HD
ENDBRANCH  24  25
ENDBRANCH  23  24
ENDBRANCH  22  23
ENDBRANCH  17  22
ENDBRANCH   3  17
TORSDOF 11
ENDMDL
MODEL 9
REMARK VINA RESULT:      -6.9      3.306      9.604
REMARK  Name = 
REMARK  13 active torsions:
REMARK  status: ('A' for Active; 'I' for Inactive)
REMARK    1  A    between atoms: C_1  and  C_2
REMARK    2  A    between atoms: C_2  and  C_3
REMARK    3  A    between atoms: C_2  and  O_4
REMARK    4  A    between atoms: C_2  and  C_5
REMARK    5  A    between atoms: C_6  and  C_7
REMARK    6  A    between atoms: C_10  and  C_11
REMARK    7  A    between atoms: N_13  and  CA_14
REMARK    8  A    between atoms: CA_14  and  C_15
REMARK    9  A    between atoms: CA_14  and  C_22
REMARK   10  A    between atoms: C_15  and  C_16
REMARK   11  A    between atoms: C_16  and  C_17
REMARK   12  A    between atoms: C_17  and  N_18
REMARK   13  A    between atoms: C_22  and  OXT_24
REMARK                            x       y       z     vdW  Elec       q    Type
REMARK                         _______ _______ _______ _____ _____    ______ ____
ROOT
ATOM      1  C   UNL     1       4.393   3.906  19.602  0.00  0.00    +0.000 C 
ATOM      2  O   UNL     1       4.647   2.988  20.384  0.00  0.00    +0.000 OA
ATOM      3  N   UNL     1       3.340   4.762  19.804  0.00  0.00    +0.000 N 
ATOM      4  H   UNL     1       3.172   5.472  19.094  0.00  0.00    +0.000 HD
ENDROOT
BRANCH   1   8
ATOM      5  C   UNL     1       5.840   4.219  16.057  0.00  0.00    +0.000 A 
ATOM      6  C   UNL     1       6.888   4.543  16.883  0.00  0.00    +0.000 A 
ATOM      7  C   UNL     1       6.486   4.522  18.256  0.00  0.00    +0.000 A 
ATOM      8  C   UNL     1       5.153   4.177  18.393  0.00  0.00    +0.000 A 
ATOM      9  S   UNL     1       4.374   4.068  16.878  0.00  0.00    +0.000 S 
BRANCH   5  11
ATOM     10  C   UNL     1       5.905   3.647  13.411  0.00  0.00    +0.000 C 
ATOM     11  C   UNL     1       5.883   3.983  14.670  0.00  0.00    +0.000 C 
BRANCH  10  13
ATOM     12  C   UNL     1       4.556   3.499  11.323  0.00  0.00    +0.000 C 
ATOM     13  C   UNL     1       5.931   3.254  11.942  0.00  0.00    +0.000 C 
ATOM     14  C   UNL     1       6.336   1.786  11.813  0.00  0.00    +0.000 C 
BRANCH  13  15
ATOM     15  O   UNL     1       6.896   4.063  11.279  0.00  0.00    +0.000 OA
ATOM     16  H   UNL     1       7.537   4.359  11.946  0.00  0.00    +0.000 HD
ENDBRANCH  13  15
ENDBRANCH  10  13
ENDBRANCH   5  11
ENDBRANCH   1   8
BRANCH   3  17
ATOM     17  CA  UNL     1       2.429   4.728  20.926  0.00  0.00    +0.000 C 
BRANCH  17  18
ATOM     18  C   UNL     1       1.633   3.411  20.855  0.00  0.00    +0.000 C 
ATOM     19  O   UNL     1       0.812   3.157  19.986  0.00  0.00    +0.000 OA
BRANCH  18  20
ATOM     20  OXT UNL     1       1.914   2.542  21.853  0.00  0.00    +0.000 OA
ATOM     21  HXT UNL     1       1.142   2.219  22.351  0.00  0.00    +0.000 HD
ENDBRANCH  18  20
ENDBRANCH  17  18
BRANCH  17  22
ATOM     22  C   UNL     1       1.511   5.957  20.888  0.00  0.00    +0.000 C 
BRANCH  22  23
ATOM     23  C   UNL     1       2.138   7.127  20.111  0.00  0.00    +0.000 C 
BRANCH  23  24
ATOM     24  C   UNL     1       1.302   8.401  20.195  0.00  0.00    +0.000 C 
BRANCH  24  25
ATOM     25  N   UNL     1       0.505   8.426  21.406  0.00  0.00    +0.000 N 
ATOM     26  C   UNL     1       0.514   9.492  22.257  0.00  0.00    +0.000 C 
ATOM     27  N   UNL     1      -0.210   9.271  23.381  0.00  0.00    +0.000 N 
ATOM     28  O   UNL     1       1.104  10.543  22.066  0.00  0.00    +0.000 OA
ATOM     29  H   UNL     1       0.136   7.556  21.758  0.00  0.00    +0.000 HD
ATOM     30  H   UNL     1      -0.947   8.583  23.392  0.00  0.00    +0.000 HD
ATOM     31  H   UNL     1      -0.338  10.083  23.970  0.00  0.00    +0.000 HD
ENDBRANCH  24  25
ENDBRANCH  23  24
ENDBRANCH  22  23
ENDBRANCH  17  22
ENDBRANCH   3  17
TORSDOF 11
ENDMDL
