MODEL 1
REMARK VINA RESULT:      -7.2      0.000      0.000
REMARK  Name = 
REMARK  11 active torsions:
REMARK  status: ('A' for Active; 'I' for Inactive)
REMARK    1  A    between atoms: C_1  and  C_2
REMARK    2  A    between atoms: C_6  and  C_7
REMARK    3  A    between atoms: C_8  and  N_9
REMARK    4  A    between atoms: C_10  and  C_12
REMARK    5  A    between atoms: C_12  and  C_13
REMARK    6  A    between atoms: C_12  and  N_14
REMARK    7  A    between atoms: C_15  and  C_17
REMARK    8  A    between atoms: C_19  and  C_20
REMARK    9  A    between atoms: C_19  and  C_21
REMARK   10  A    between atoms: C_24  and  C_25
REMARK   11  A    between atoms: C_24  and  C_26
REMARK                            x       y       z     vdW  Elec       q    Type
REMARK                         _______ _______ _______ _____ _____    ______ ____
ROOT
ATOM      1  C   UNL     1       1.551   9.022  21.249  0.00  0.00    +0.000 C 
ATOM      2  C   UNL     1       1.811   9.236  22.739  0.00  0.00    +0.000 C 
ENDROOT
BRANCH   1   4
ATOM      3  N   UNL     1      -0.083  10.523  20.161  0.00  0.00    +0.000 N 
ATOM      4  C   UNL     1       0.078   9.348  20.887  0.00  0.00    +0.000 C 
ATOM      5  O   UNL     1      -0.845   8.597  21.220  0.00  0.00    +0.000 OA
ATOM      6  H   UNL     1       0.677  11.188  20.238  0.00  0.00    +0.000 HD
BRANCH   3  14
ATOM      7  C   UNL     1      -1.250   9.847  17.509  0.00  0.00    +0.000 C 
ATOM      8  C   UNL     1      -1.916  10.738  18.522  0.00  0.00    +0.000 A 
ATOM      9  C   UNL     1      -3.116  11.372  18.138  0.00  0.00    +0.000 A 
ATOM     10  C   UNL     1      -3.751  12.282  18.976  0.00  0.00    +0.000 A 
ATOM     11  C   UNL     1      -3.195  12.577  20.215  0.00  0.00    +0.000 A 
ATOM     12  C   UNL     1      -1.991  11.976  20.626  0.00  0.00    +0.000 A 
ATOM     13  C   UNL     1      -1.476  12.302  22.003  0.00  0.00    +0.000 C 
ATOM     14  C   UNL     1      -1.347  11.043  19.778  0.00  0.00    +0.000 A 
ENDBRANCH   3  14
ENDBRANCH   1   4
BRANCH   1  15
ATOM     15  N   UNL     1       1.854   7.637  20.914  0.00  0.00    +0.000 N 
ATOM     16  C   UNL     1       2.243   7.251  19.653  0.00  0.00    +0.000 C 
ATOM     17  O   UNL     1       2.413   8.059  18.747  0.00  0.00    +0.000 OA
ATOM     18  H   UNL     1       1.520   6.914  21.538  0.00  0.00    +0.000 HD
BRANCH  16  19
ATOM     19  C   UNL     1       2.403   5.788  19.485  0.00  0.00    +0.000 C 
ATOM     20  C   UNL     1       1.610   4.844  20.017  0.00  0.00    +0.000 C 
ATOM     21  C   UNL     1       2.038   3.459  19.600  0.00  0.00    +0.000 C 
ATOM     22  C   UNL     1       0.802   2.647  19.136  0.00  0.00    +0.000 C 
ATOM     23  C   UNL     1       2.632   2.697  20.805  0.00  0.00    +0.000 C 
ATOM     24  N   UNL     1       3.157   3.681  18.618  0.00  0.00    +0.000 NA
ATOM     25  O   UNL     1       2.727   3.363  17.323  0.00  0.00    +0.000 OA
ATOM     26  C   UNL     1       3.532   5.154  18.701  0.00  0.00    +0.000 C 
ATOM     27  C   UNL     1       4.845   5.201  19.518  0.00  0.00    +0.000 C 
ATOM     28  C   UNL     1       3.815   5.883  17.363  0.00  0.00    +0.000 C 
ENDBRANCH  16  19
ENDBRANCH   1  15
TORSDOF 4
ENDMDL
MODEL 2
REMARK VINA RESULT:      -7.2      0.279      1.730
REMARK  Name = 
REMARK  11 active torsions:
REMARK  status: ('A' for Active; 'I' for Inactive)
REMARK    1  A    between atoms: C_1  and  C_2
REMARK    2  A    between atoms: C_6  and  C_7
REMARK    3  A    between atoms: C_8  and  N_9
REMARK    4  A    between atoms: C_10  and  C_12
REMARK    5  A    between atoms: C_12  and  C_13
REMARK    6  A    between atoms: C_12  and  N_14
REMARK    7  A    between atoms: C_15  and  C_17
REMARK    8  A    between atoms: C_19  and  C_20
REMARK    9  A    between atoms: C_19  and  C_21
REMARK   10  A    between atoms: C_24  and  C_25
REMARK   11  A    between atoms: C_24  and  C_26
REMARK                            x       y       z     vdW  Elec       q    Type
REMARK                         _______ _______ _______ _____ _____    ______ ____
ROOT
ATOM      1  C   UNL     1       1.473   8.989  21.156  0.00  0.00    +0.000 C 
ATOM      2  C   UNL     1       1.720   9.257  22.640  0.00  0.00    +0.000 C 
ENDROOT
BRANCH   1   4
ATOM      3  N   UNL     1      -0.088  10.467  19.938  0.00  0.00    +0.000 N 
ATOM      4  C   UNL     1       0.017   9.350  20.759  0.00  0.00    +0.000 C 
ATOM      5  O   UNL     1      -0.939   8.671  21.146  0.00  0.00    +0.000 OA
ATOM      6  H   UNL     1       0.701  11.102  19.965  0.00  0.00    +0.000 HD
BRANCH   3  14
ATOM      7  C   UNL     1      -1.583  12.377  21.663  0.00  0.00    +0.000 C 
ATOM      8  C   UNL     1      -2.053  11.914  20.310  0.00  0.00    +0.000 A 
ATOM      9  C   UNL     1      -3.332  12.334  19.891  0.00  0.00    +0.000 A 
ATOM     10  C   UNL     1      -3.884  11.882  18.697  0.00  0.00    +0.000 A 
ATOM     11  C   UNL     1      -3.166  10.998  17.901  0.00  0.00    +0.000 A 
ATOM     12  C   UNL     1      -1.894  10.546  18.294  0.00  0.00    +0.000 A 
ATOM     13  C   UNL     1      -1.152   9.631  17.356  0.00  0.00    +0.000 C 
ATOM     14  C   UNL     1      -1.326  11.010  19.505  0.00  0.00    +0.000 A 
ENDBRANCH   3  14
ENDBRANCH   1   4
BRANCH   1  15
ATOM     15  N   UNL     1       1.732   7.582  20.884  0.00  0.00    +0.000 N 
ATOM     16  C   UNL     1       2.213   7.141  19.674  0.00  0.00    +0.000 C 
ATOM     17  O   UNL     1       2.507   7.913  18.769  0.00  0.00    +0.000 OA
ATOM     18  H   UNL     1       1.305   6.895  21.492  0.00  0.00    +0.000 HD
BRANCH  16  19
ATOM     19  C   UNL     1       2.310   5.667  19.557  0.00  0.00    +0.000 C 
ATOM     20  C   UNL     1       1.470   4.777  20.110  0.00  0.00    +0.000 C 
ATOM     21  C   UNL     1       1.842   3.361  19.745  0.00  0.00    +0.000 C 
ATOM     22  C   UNL     1       0.577   2.589  19.291  0.00  0.00    +0.000 C 
ATOM     23  C   UNL     1       2.387   2.615  20.982  0.00  0.00    +0.000 C 
ATOM     24  N   UNL     1       2.981   3.501  18.771  0.00  0.00    +0.000 NA
ATOM     25  O   UNL     1       2.553   3.159  17.482  0.00  0.00    +0.000 OA
ATOM     26  C   UNL     1       3.419   4.958  18.810  0.00  0.00    +0.000 C 
ATOM     27  C   UNL     1       4.724   4.976  19.643  0.00  0.00    +0.000 C 
ATOM     28  C   UNL     1       3.750   5.628  17.453  0.00  0.00    +0.000 C 
ENDBRANCH  16  19
ENDBRANCH   1  15
TORSDOF 4
ENDMDL
MODEL 3
REMARK VINA RESULT:      -6.9      0.956      1.123
REMARK  Name = 
REMARK  11 active torsions:
REMARK  status: ('A' for Active; 'I' for Inactive)
REMARK    1  A    between atoms: C_1  and  C_2
REMARK    2  A    between atoms: C_6  and  C_7
REMARK    3  A    between atoms: C_8  and  N_9
REMARK    4  A    between atoms: C_10  and  C_12
REMARK    5  A    between atoms: C_12  and  C_13
REMARK    6  A    between atoms: C_12  and  N_14
REMARK    7  A    between atoms: C_15  and  C_17
REMARK    8  A    between atoms: C_19  and  C_20
REMARK    9  A    between atoms: C_19  and  C_21
REMARK   10  A    between atoms: C_24  and  C_25
REMARK   11  A    between atoms: C_24  and  C_26
REMARK                            x       y       z     vdW  Elec       q    Type
REMARK                         _______ _______ _______ _____ _____    ______ ____
ROOT
ATOM      1  C   UNL     1       1.522   8.905  21.133  0.00  0.00    +0.000 C 
ATOM      2  C   UNL     1       1.890   9.327  22.555  0.00  0.00    +0.000 C 
ENDROOT
BRANCH   1   4
ATOM      3  N   UNL     1      -0.102  10.430  20.065  0.00  0.00    +0.000 N 
ATOM      4  C   UNL     1       0.048   9.264  20.807  0.00  0.00    +0.000 C 
ATOM      5  O   UNL     1      -0.884   8.545  21.180  0.00  0.00    +0.000 OA
ATOM      6  H   UNL     1       0.677  11.076  20.109  0.00  0.00    +0.000 HD
BRANCH   3  14
ATOM      7  C   UNL     1      -1.338   9.784  17.436  0.00  0.00    +0.000 C 
ATOM      8  C   UNL     1      -1.964  10.687  18.465  0.00  0.00    +0.000 A 
ATOM      9  C   UNL     1      -3.157  11.348  18.107  0.00  0.00    +0.000 A 
ATOM     10  C   UNL     1      -3.755  12.269  18.959  0.00  0.00    +0.000 A 
ATOM     11  C   UNL     1      -3.168  12.550  20.187  0.00  0.00    +0.000 A 
ATOM     12  C   UNL     1      -1.969  11.922  20.571  0.00  0.00    +0.000 A 
ATOM     13  C   UNL     1      -1.419  12.235  21.938  0.00  0.00    +0.000 C 
ATOM     14  C   UNL     1      -1.362  10.978  19.709  0.00  0.00    +0.000 A 
ENDBRANCH   3  14
ENDBRANCH   1   4
BRANCH   1  15
ATOM     15  N   UNL     1       1.728   7.469  21.002  0.00  0.00    +0.000 N 
ATOM     16  C   UNL     1       2.270   6.901  19.873  0.00  0.00    +0.000 C 
ATOM     17  O   UNL     1       2.665   7.575  18.929  0.00  0.00    +0.000 OA
ATOM     18  H   UNL     1       1.225   6.858  21.633  0.00  0.00    +0.000 HD
BRANCH  16  19
ATOM     19  C   UNL     1       2.299   5.420  19.890  0.00  0.00    +0.000 C 
ATOM     20  C   UNL     1       2.377   4.647  20.985  0.00  0.00    +0.000 C 
ATOM     21  C   UNL     1       2.337   3.180  20.634  0.00  0.00    +0.000 C 
ATOM     22  C   UNL     1       1.330   2.449  21.558  0.00  0.00    +0.000 C 
ATOM     23  C   UNL     1       3.714   2.531  20.890  0.00  0.00    +0.000 C 
ATOM     24  N   UNL     1       2.098   3.146  19.148  0.00  0.00    +0.000 NA
ATOM     25  O   UNL     1       0.796   2.702  18.883  0.00  0.00    +0.000 OA
ATOM     26  C   UNL     1       2.283   4.568  18.638  0.00  0.00    +0.000 C 
ATOM     27  C   UNL     1       3.673   4.587  17.958  0.00  0.00    +0.000 C 
ATOM     28  C   UNL     1       1.267   5.074  17.584  0.00  0.00    +0.000 C 
ENDBRANCH  16  19
ENDBRANCH   1  15
TORSDOF 4
ENDMDL
MODEL 4
REMARK VINA RESULT:      -6.8      2.029      2.732
REMARK  Name = 
REMARK  11 active torsions:
REMARK  status: ('A' for Active; 'I' for Inactive)
REMARK    1  A    between atoms: C_1  and  C_2
REMARK    2  A    between atoms: C_6  and  C_7
REMARK    3  A    between atoms: C_8  and  N_9
REMARK    4  A    between atoms: C_10  and  C_12
REMARK    5  A    between atoms: C_12  and  C_13
REMARK    6  A    between atoms: C_12  and  N_14
REMARK    7  A    between atoms: C_15  and  C_17
REMARK    8  A    between atoms: C_19  and  C_20
REMARK    9  A    between atoms: C_19  and  C_21
REMARK   10  A    between atoms: C_24  and  C_25
REMARK   11  A    between atoms: C_24  and  C_26
REMARK                            x       y       z     vdW  Elec       q    Type
REMARK                         _______ _______ _______ _____ _____    ______ ____
ROOT
ATOM      1  C   UNL     1       1.552   9.138  17.899  0.00  0.00    +0.000 C 
ATOM      2  C   UNL     1       2.884   9.887  17.898  0.00  0.00    +0.000 C 
ENDROOT
BRANCH   1   4
ATOM      3  N   UNL     1       0.959  10.306  19.994  0.00  0.00    +0.000 N 
ATOM      4  C   UNL     1       0.493   9.883  18.754  0.00  0.00    +0.000 C 
ATOM      5  O   UNL     1      -0.650  10.078  18.331  0.00  0.00    +0.000 OA
ATOM      6  H   UNL     1       1.774   9.815  20.343  0.00  0.00    +0.000 HD
BRANCH   3  14
ATOM      7  C   UNL     1       0.627  13.263  19.952  0.00  0.00    +0.000 C 
ATOM      8  C   UNL     1      -0.023  12.354  20.961  0.00  0.00    +0.000 A 
ATOM      9  C   UNL     1      -0.743  12.961  22.010  0.00  0.00    +0.000 A 
ATOM     10  C   UNL     1      -1.298  12.205  23.036  0.00  0.00    +0.000 A 
ATOM     11  C   UNL     1      -1.140  10.824  23.033  0.00  0.00    +0.000 A 
ATOM     12  C   UNL     1      -0.415  10.185  22.011  0.00  0.00    +0.000 A 
ATOM     13  C   UNL     1      -0.331   8.681  22.043  0.00  0.00    +0.000 C 
ATOM     14  C   UNL     1       0.145  10.952  20.961  0.00  0.00    +0.000 A 
ENDBRANCH   3  14
ENDBRANCH   1   4
BRANCH   1  15
ATOM     15  N   UNL     1       1.769   7.798  18.428  0.00  0.00    +0.000 N 
ATOM     16  C   UNL     1       2.788   6.987  17.988  0.00  0.00    +0.000 C 
ATOM     17  O   UNL     1       3.612   7.365  17.164  0.00  0.00    +0.000 OA
ATOM     18  H   UNL     1       1.007   7.356  18.928  0.00  0.00    +0.000 HD
BRANCH  16  19
ATOM     19  C   UNL     1       2.778   5.625  18.570  0.00  0.00    +0.000 C 
ATOM     20  C   UNL     1       1.828   5.119  19.374  0.00  0.00    +0.000 C 
ATOM     21  C   UNL     1       2.117   3.684  19.740  0.00  0.00    +0.000 C 
ATOM     22  C   UNL     1       0.836   2.831  19.555  0.00  0.00    +0.000 C 
ATOM     23  C   UNL     1       2.498   3.580  21.233  0.00  0.00    +0.000 C 
ATOM     24  N   UNL     1       3.339   3.321  18.941  0.00  0.00    +0.000 NA
ATOM     25  O   UNL     1       2.992   2.434  17.913  0.00  0.00    +0.000 OA
ATOM     26  C   UNL     1       3.886   4.615  18.357  0.00  0.00    +0.000 C 
ATOM     27  C   UNL     1       5.115   4.975  19.225  0.00  0.00    +0.000 C 
ATOM     28  C   UNL     1       4.379   4.569  16.888  0.00  0.00    +0.000 C 
ENDBRANCH  16  19
ENDBRANCH   1  15
TORSDOF 4
ENDMDL
MODEL 5
REMARK VINA RESULT:      -6.8      4.729      8.748
REMARK  Name = 
REMARK  11 active torsions:
REMARK  status: ('A' for Active; 'I' for Inactive)
REMARK    1  A    between atoms: C_1  and  C_2
REMARK    2  A    between atoms: C_6  and  C_7
REMARK    3  A    between atoms: C_8  and  N_9
REMARK    4  A    between atoms: C_10  and  C_12
REMARK    5  A    between atoms: C_12  and  C_13
REMARK    6  A    between atoms: C_12  and  N_14
REMARK    7  A    between atoms: C_15  and  C_17
REMARK    8  A    between atoms: C_19  and  C_20
REMARK    9  A    between atoms: C_19  and  C_21
REMARK   10  A    between atoms: C_24  and  C_25
REMARK   11  A    between atoms: C_24  and  C_26
REMARK                            x       y       z     vdW  Elec       q    Type
REMARK                         _______ _______ _______ _____ _____    ______ ____
ROOT
ATOM      1  C   UNL     1       6.792   6.021  17.610  0.00  0.00    +0.000 C 
ATOM      2  C   UNL     1       6.780   7.499  17.218  0.00  0.00    +0.000 C 
ENDROOT
BRANCH   1   4
ATOM      3  N   UNL     1       6.539   5.505  15.206  0.00  0.00    +0.000 N 
ATOM      4  C   UNL     1       7.153   5.125  16.395  0.00  0.00    +0.000 C 
ATOM      5  O   UNL     1       7.931   4.174  16.510  0.00  0.00    +0.000 OA
ATOM      6  H   UNL     1       5.703   6.068  15.310  0.00  0.00    +0.000 HD
BRANCH   3  14
ATOM      7  C   UNL     1       8.754   6.151  13.326  0.00  0.00    +0.000 C 
ATOM      8  C   UNL     1       7.720   5.085  13.080  0.00  0.00    +0.000 A 
ATOM      9  C   UNL     1       7.748   4.433  11.830  0.00  0.00    +0.000 A 
ATOM     10  C   UNL     1       6.777   3.501  11.481  0.00  0.00    +0.000 A 
ATOM     11  C   UNL     1       5.756   3.206  12.377  0.00  0.00    +0.000 A 
ATOM     12  C   UNL     1       5.687   3.848  13.626  0.00  0.00    +0.000 A 
ATOM     13  C   UNL     1       4.585   3.439  14.567  0.00  0.00    +0.000 C 
ATOM     14  C   UNL     1       6.679   4.791  13.987  0.00  0.00    +0.000 A 
ENDBRANCH   3  14
ENDBRANCH   1   4
BRANCH   1  15
ATOM     15  N   UNL     1       5.478   5.662  18.124  0.00  0.00    +0.000 N 
ATOM     16  C   UNL     1       5.304   4.723  19.113  0.00  0.00    +0.000 C 
ATOM     17  O   UNL     1       6.250   4.171  19.662  0.00  0.00    +0.000 OA
ATOM     18  H   UNL     1       4.668   5.906  17.568  0.00  0.00    +0.000 HD
BRANCH  16  19
ATOM     19  C   UNL     1       3.887   4.420  19.424  0.00  0.00    +0.000 C 
ATOM     20  C   UNL     1       3.430   3.289  19.986  0.00  0.00    +0.000 C 
ATOM     21  C   UNL     1       1.937   3.341  20.202  0.00  0.00    +0.000 C 
ATOM     22  C   UNL     1       1.601   2.864  21.638  0.00  0.00    +0.000 C 
ATOM     23  C   UNL     1       1.224   2.365  19.241  0.00  0.00    +0.000 C 
ATOM     24  N   UNL     1       1.538   4.735  19.800  0.00  0.00    +0.000 NA
ATOM     25  O   UNL     1       1.195   5.480  20.936  0.00  0.00    +0.000 OA
ATOM     26  C   UNL     1       2.742   5.357  19.106  0.00  0.00    +0.000 C 
ATOM     27  C   UNL     1       2.416   5.313  17.594  0.00  0.00    +0.000 C 
ATOM     28  C   UNL     1       3.064   6.833  19.449  0.00  0.00    +0.000 C 
ENDBRANCH  16  19
ENDBRANCH   1  15
TORSDOF 4
ENDMDL
MODEL 6
REMARK VINA RESULT:      -6.7      2.082      2.720
REMARK  Name = 
REMARK  11 active torsions:
REMARK  status: ('A' for Active; 'I' for Inactive)
REMARK    1  A    between atoms: C_1  and  C_2
REMARK    2  A    between atoms: C_6  and  C_7
REMARK    3  A    between atoms: C_8  and  N_9
REMARK    4  A    between atoms: C_10  and  C_12
REMARK    5  A    between atoms: C_12  and  C_13
REMARK    6  A    between atoms: C_12  and  N_14
REMARK    7  A    between atoms: C_15  and  C_17
REMARK    8  A    between atoms: C_19  and  C_20
REMARK    9  A    between atoms: C_19  and  C_21
REMARK   10  A    between atoms: C_24  and  C_25
REMARK   11  A    between atoms: C_24  and  C_26
REMARK                            x       y       z     vdW  Elec       q    Type
REMARK                         _______ _______ _______ _____ _____    ______ ____
ROOT
ATOM      1  C   UNL     1       1.481   9.044  17.922  0.00  0.00    +0.000 C 
ATOM      2  C   UNL     1       2.832   9.751  17.812  0.00  0.00    +0.000 C 
ENDROOT
BRANCH   1   4
ATOM      3  N   UNL     1       1.075  10.198  20.069  0.00  0.00    +0.000 N 
ATOM      4  C   UNL     1       0.515   9.825  18.851  0.00  0.00    +0.000 C 
ATOM      5  O   UNL     1      -0.639  10.088  18.500  0.00  0.00    +0.000 OA
ATOM      6  H   UNL     1       1.881   9.658  20.359  0.00  0.00    +0.000 HD
BRANCH   3  14
ATOM      7  C   UNL     1      -0.415   8.642  22.122  0.00  0.00    +0.000 C 
ATOM      8  C   UNL     1      -0.363  10.146  22.075  0.00  0.00    +0.000 A 
ATOM      9  C   UNL     1      -1.160  10.851  23.000  0.00  0.00    +0.000 A 
ATOM     10  C   UNL     1      -1.244  12.239  22.969  0.00  0.00    +0.000 A 
ATOM     11  C   UNL     1      -0.533  12.948  22.008  0.00  0.00    +0.000 A 
ATOM     12  C   UNL     1       0.260  12.277  21.059  0.00  0.00    +0.000 A 
ATOM     13  C   UNL     1       1.045  13.113  20.082  0.00  0.00    +0.000 C 
ATOM     14  C   UNL     1       0.354  10.865  21.093  0.00  0.00    +0.000 A 
ENDBRANCH   3  14
ENDBRANCH   1   4
BRANCH   1  15
ATOM     15  N   UNL     1       1.697   7.700  18.441  0.00  0.00    +0.000 N 
ATOM     16  C   UNL     1       2.794   6.945  18.101  0.00  0.00    +0.000 C 
ATOM     17  O   UNL     1       3.688   7.379  17.384  0.00  0.00    +0.000 OA
ATOM     18  H   UNL     1       0.904   7.213  18.841  0.00  0.00    +0.000 HD
BRANCH  16  19
ATOM     19  C   UNL     1       2.780   5.568  18.647  0.00  0.00    +0.000 C 
ATOM     20  C   UNL     1       1.841   5.052  19.457  0.00  0.00    +0.000 C 
ATOM     21  C   UNL     1       2.119   3.605  19.779  0.00  0.00    +0.000 C 
ATOM     22  C   UNL     1       0.825   2.772  19.600  0.00  0.00    +0.000 C 
ATOM     23  C   UNL     1       2.531   3.456  21.260  0.00  0.00    +0.000 C 
ATOM     24  N   UNL     1       3.320   3.248  18.945  0.00  0.00    +0.000 NA
ATOM     25  O   UNL     1       2.940   2.393  17.902  0.00  0.00    +0.000 OA
ATOM     26  C   UNL     1       3.870   4.551  18.383  0.00  0.00    +0.000 C 
ATOM     27  C   UNL     1       5.122   4.873  19.234  0.00  0.00    +0.000 C 
ATOM     28  C   UNL     1       4.331   4.539  16.903  0.00  0.00    +0.000 C 
ENDBRANCH  16  19
ENDBRANCH   1  15
TORSDOF 4
ENDMDL
MODEL 7
REMARK VINA RESULT:      -6.6      4.475      9.186
REMARK  Name = 
REMARK  11 active torsions:
REMARK  status: ('A' for Active; 'I' for Inactive)
REMARK    1  A    between atoms: C_1  and  C_2
REMARK    2  A    between atoms: C_6  and  C_7
REMARK    3  A    between atoms: C_8  and  N_9
REMARK    4  A    between atoms: C_10  and  C_12
REMARK    5  A    between atoms: C_12  and  C_13
REMARK    6  A    between atoms: C_12  and  N_14
REMARK    7  A    between atoms: C_15  and  C_17
REMARK    8  A    between atoms: C_19  and  C_20
REMARK    9  A    between atoms: C_19  and  C_21
REMARK   10  A    between atoms: C_24  and  C_25
REMARK   11  A    between atoms: C_24  and  C_26
REMARK                            x       y       z     vdW  Elec       q    Type
REMARK                         _______ _______ _______ _____ _____    ______ ____
ROOT
ATOM      1  C   UNL     1      -1.986  13.641  22.372  0.00  0.00    +0.000 C 
ATOM      2  C   UNL     1      -1.760  15.113  22.030  0.00  0.00    +0.000 C 
ENDROOT
BRANCH   1   4
ATOM      3  N   UNL     1      -1.162  11.512  21.426  0.00  0.00    +0.000 N 
ATOM      4  C   UNL     1      -0.795  12.768  21.898  0.00  0.00    +0.000 C 
ATOM      5  O   UNL     1       0.365  13.190  21.939  0.00  0.00    +0.000 OA
ATOM      6  H   UNL     1      -2.064  11.176  21.743  0.00  0.00    +0.000 HD
BRANCH   3  14
ATOM      7  C   UNL     1      -0.163  11.496  18.623  0.00  0.00    +0.000 C 
ATOM      8  C   UNL     1       0.252  10.502  19.674  0.00  0.00    +0.000 A 
ATOM      9  C   UNL     1       1.083   9.437  19.266  0.00  0.00    +0.000 A 
ATOM     10  C   UNL     1       1.441   8.424  20.147  0.00  0.00    +0.000 A 
ATOM     11  C   UNL     1       0.972   8.454  21.455  0.00  0.00    +0.000 A 
ATOM     12  C   UNL     1       0.129   9.492  21.893  0.00  0.00    +0.000 A 
ATOM     13  C   UNL     1      -0.296   9.489  23.338  0.00  0.00    +0.000 C 
ATOM     14  C   UNL     1      -0.231  10.529  21.000  0.00  0.00    +0.000 A 
ENDBRANCH   3  14
ENDBRANCH   1   4
BRANCH   1  15
ATOM     15  N   UNL     1      -3.218  13.195  21.735  0.00  0.00    +0.000 N 
ATOM     16  C   UNL     1      -4.458  13.425  22.283  0.00  0.00    +0.000 C 
ATOM     17  O   UNL     1      -4.605  14.071  23.315  0.00  0.00    +0.000 OA
ATOM     18  H   UNL     1      -3.151  12.479  21.023  0.00  0.00    +0.000 HD
BRANCH  16  19
ATOM     19  C   UNL     1      -5.578  12.803  21.540  0.00  0.00    +0.000 C 
ATOM     20  C   UNL     1      -5.513  12.297  20.298  0.00  0.00    +0.000 C 
ATOM     21  C   UNL     1      -6.832  11.700  19.873  0.00  0.00    +0.000 C 
ATOM     22  C   UNL     1      -6.595  10.301  19.248  0.00  0.00    +0.000 C 
ATOM     23  C   UNL     1      -7.480  12.565  18.770  0.00  0.00    +0.000 C 
ATOM     24  N   UNL     1      -7.710  11.798  21.091  0.00  0.00    +0.000 NA
ATOM     25  O   UNL     1      -7.914  10.525  21.638  0.00  0.00    +0.000 OA
ATOM     26  C   UNL     1      -6.985  12.689  22.088  0.00  0.00    +0.000 C 
ATOM     27  C   UNL     1      -7.701  14.060  22.017  0.00  0.00    +0.000 C 
ATOM     28  C   UNL     1      -7.014  12.250  23.574  0.00  0.00    +0.000 C 
ENDBRANCH  16  19
ENDBRANCH   1  15
TORSDOF 4
ENDMDL
MODEL 8
REMARK VINA RESULT:      -6.6      3.211      9.033
REMARK  Name = 
REMARK  11 active torsions:
REMARK  status: ('A' for Active; 'I' for Inactive)
REMARK    1  A    between atoms: C_1  and  C_2
REMARK    2  A    between atoms: C_6  and  C_7
REMARK    3  A    between atoms: C_8  and  N_9
REMARK    4  A    between atoms: C_10  and  C_12
REMARK    5  A    between atoms: C_12  and  C_13
REMARK    6  A    between atoms: C_12  and  N_14
REMARK    7  A    between atoms: C_15  and  C_17
REMARK    8  A    between atoms: C_19  and  C_20
REMARK    9  A    between atoms: C_19  and  C_21
REMARK   10  A    between atoms: C_24  and  C_25
REMARK   11  A    between atoms: C_24  and  C_26
REMARK                            x       y       z     vdW  Elec       q    Type
REMARK                         _______ _______ _______ _____ _____    ______ ____
ROOT
ATOM      1  C   UNL     1      -1.111  12.318  19.544  0.00  0.00    +0.000 C 
ATOM      2  C   UNL     1      -0.836  13.043  18.226  0.00  0.00    +0.000 C 
ENDROOT
BRANCH   1   4
ATOM      3  N   UNL     1       0.526  10.541  20.057  0.00  0.00    +0.000 N 
ATOM      4  C   UNL     1      -0.695  10.826  19.457  0.00  0.00    +0.000 C 
ATOM      5  O   UNL     1      -1.419   9.990  18.907  0.00  0.00    +0.000 OA
ATOM      6  H   UNL     1       1.149  11.331  20.172  0.00  0.00    +0.000 HD
BRANCH   3  14
ATOM      7  C   UNL     1       2.050   9.616  17.674  0.00  0.00    +0.000 C 
ATOM      8  C   UNL     1       1.851   8.795  18.920  0.00  0.00    +0.000 A 
ATOM      9  C   UNL     1       2.328   7.469  18.905  0.00  0.00    +0.000 A 
ATOM     10  C   UNL     1       2.108   6.611  19.977  0.00  0.00    +0.000 A 
ATOM     11  C   UNL     1       1.403   7.065  21.085  0.00  0.00    +0.000 A 
ATOM     12  C   UNL     1       0.898   8.377  21.129  0.00  0.00    +0.000 A 
ATOM     13  C   UNL     1       0.191   8.816  22.384  0.00  0.00    +0.000 C 
ATOM     14  C   UNL     1       1.128   9.255  20.043  0.00  0.00    +0.000 A 
ENDBRANCH   3  14
ENDBRANCH   1   4
BRANCH   1  15
ATOM     15  N   UNL     1      -2.531  12.425  19.850  0.00  0.00    +0.000 N 
ATOM     16  C   UNL     1      -2.993  12.965  21.027  0.00  0.00    +0.000 C 
ATOM     17  O   UNL     1      -2.238  13.442  21.866  0.00  0.00    +0.000 OA
ATOM     18  H   UNL     1      -3.176  11.857  19.315  0.00  0.00    +0.000 HD
BRANCH  16  19
ATOM     19  C   UNL     1      -4.463  12.888  21.198  0.00  0.00    +0.000 C 
ATOM     20  C   UNL     1      -5.340  12.459  20.276  0.00  0.00    +0.000 C 
ATOM     21  C   UNL     1      -6.753  12.470  20.807  0.00  0.00    +0.000 C 
ATOM     22  C   UNL     1      -7.449  11.128  20.468  0.00  0.00    +0.000 C 
ATOM     23  C   UNL     1      -7.577  13.575  20.112  0.00  0.00    +0.000 C 
ATOM     24  N   UNL     1      -6.617  12.859  22.255  0.00  0.00    +0.000 NA
ATOM     25  O   UNL     1      -6.882  11.754  23.074  0.00  0.00    +0.000 OA
ATOM     26  C   UNL     1      -5.184  13.330  22.453  0.00  0.00    +0.000 C 
ATOM     27  C   UNL     1      -5.259  14.875  22.513  0.00  0.00    +0.000 C 
ATOM     28  C   UNL     1      -4.467  12.871  23.748  0.00  0.00    +0.000 C 
ENDBRANCH  16  19
ENDBRANCH   1  15
TORSDOF 4
ENDMDL
MODEL 9
REMARK VINA RESULT:      -6.6      3.427      9.170
REMARK  Name = 
REMARK  11 active torsions:
REMARK  status: ('A' for Active; 'I' for Inactive)
REMARK    1  A    between atoms: C_1  and  C_2
REMARK    2  A    between atoms: C_6  and  C_7
REMARK    3  A    between atoms: C_8  and  N_9
REMARK    4  A    between atoms: C_10  and  C_12
REMARK    5  A    between atoms: C_12  and  C_13
REMARK    6  A    between atoms: C_12  and  N_14
REMARK    7  A    between atoms: C_15  and  C_17
REMARK    8  A    between atoms: C_19  and  C_20
REMARK    9  A    between atoms: C_19  and  C_21
REMARK   10  A    between atoms: C_24  and  C_25
REMARK   11  A    between atoms: C_24  and  C_26
REMARK                            x       y       z     vdW  Elec       q    Type
REMARK                         _______ _______ _______ _____ _____    ______ ____
ROOT
ATOM      1  C   UNL     1      -1.023  12.794  20.220  0.00  0.00    +0.000 C 
ATOM      2  C   UNL     1      -0.753  13.683  19.007  0.00  0.00    +0.000 C 
ENDROOT
BRANCH   1   4
ATOM      3  N   UNL     1       0.455  10.821  20.389  0.00  0.00    +0.000 N 
ATOM      4  C   UNL     1      -0.751  11.303  19.891  0.00  0.00    +0.000 C 
ATOM      5  O   UNL     1      -1.564  10.629  19.250  0.00  0.00    +0.000 OA
ATOM      6  H   UNL     1       1.151  11.527  20.597  0.00  0.00    +0.000 HD
BRANCH   3  14
ATOM      7  C   UNL     1       0.080   8.694  22.436  0.00  0.00    +0.000 C 
ATOM      8  C   UNL     1       0.769   8.483  21.114  0.00  0.00    +0.000 A 
ATOM      9  C   UNL     1       1.364   7.225  20.888  0.00  0.00    +0.000 A 
ATOM     10  C   UNL     1       2.099   6.972  19.735  0.00  0.00    +0.000 A 
ATOM     11  C   UNL     1       2.254   7.975  18.786  0.00  0.00    +0.000 A 
ATOM     12  C   UNL     1       1.687   9.247  18.985  0.00  0.00    +0.000 A 
ATOM     13  C   UNL     1       1.852  10.269  17.891  0.00  0.00    +0.000 C 
ATOM     14  C   UNL     1       0.933   9.506  20.154  0.00  0.00    +0.000 A 
ENDBRANCH   3  14
ENDBRANCH   1   4
BRANCH   1  15
ATOM     15  N   UNL     1      -2.409  12.971  20.632  0.00  0.00    +0.000 N 
ATOM     16  C   UNL     1      -2.880  12.531  21.846  0.00  0.00    +0.000 C 
ATOM     17  O   UNL     1      -2.147  12.013  22.681  0.00  0.00    +0.000 OA
ATOM     18  H   UNL     1      -3.094  13.178  19.916  0.00  0.00    +0.000 HD
BRANCH  16  19
ATOM     19  C   UNL     1      -4.338  12.708  22.036  0.00  0.00    +0.000 C 
ATOM     20  C   UNL     1      -5.282  12.515  21.100  0.00  0.00    +0.000 C 
ATOM     21  C   UNL     1      -6.668  12.742  21.654  0.00  0.00    +0.000 C 
ATOM     22  C   UNL     1      -7.597  11.576  21.229  0.00  0.00    +0.000 C 
ATOM     23  C   UNL     1      -7.279  14.027  21.056  0.00  0.00    +0.000 C 
ATOM     24  N   UNL     1      -6.459  12.989  23.124  0.00  0.00    +0.000 NA
ATOM     25  O   UNL     1      -6.917  11.892  23.863  0.00  0.00    +0.000 OA
ATOM     26  C   UNL     1      -4.963  13.177  23.332  0.00  0.00    +0.000 C 
ATOM     27  C   UNL     1      -4.757  14.701  23.507  0.00  0.00    +0.000 C 
ATOM     28  C   UNL     1      -4.338  12.499  24.577  0.00  0.00    +0.000 C 
ENDBRANCH  16  19
ENDBRANCH   1  15
TORSDOF 4
ENDMDL
