MODEL 1
REMARK VINA RESULT:      -8.2      0.000      0.000
REMARK  Name = 
REMARK  8 active torsions:
REMARK  status: ('A' for Active; 'I' for Inactive)
REMARK    1  A    between atoms: C_1  and  C_2
REMARK    2  A    between atoms: N_8  and  C_9
REMARK    3  A    between atoms: N_8  and  N_20
REMARK    4  A    between atoms: C_9  and  C_10
REMARK    5  A    between atoms: C_13  and  C_14
REMARK    6  A    between atoms: N_16  and  O_17
REMARK    7  A    between atoms: N_20  and  S_21
REMARK    8  A    between atoms: S_21  and  C_24
REMARK                            x       y       z     vdW  Elec       q    Type
REMARK                         _______ _______ _______ _____ _____    ______ ____
ROOT
ATOM      1  C   UNL     1       5.107   4.604  17.197  0.00  0.00    +0.000 C 
ATOM      2  C   UNL     1       4.455   5.544  18.209  0.00  0.00    +0.000 C 
ATOM      3  C   UNL     1       3.427   4.840  19.094  0.00  0.00    +0.000 C 
ATOM      4  C   UNL     1       2.784   5.825  20.082  0.00  0.00    +0.000 C 
ATOM      5  N   UNL     1       2.219   7.039  19.455  0.00  0.00    +0.000 N 
ATOM      6  C   UNL     1       1.304   7.735  20.268  0.00  0.00    +0.000 C 
ATOM      7  O   UNL     1       0.964   7.261  21.362  0.00  0.00    +0.000 OA
ATOM      8  N   UNL     1       0.705   8.914  19.832  0.00  0.00    +0.000 N 
ATOM      9  C   UNL     1       3.084   7.647  18.451  0.00  0.00    +0.000 C 
ATOM     10  C   UNL     1       3.744   6.673  17.480  0.00  0.00    +0.000 C 
ENDROOT
BRANCH   8  11
ATOM     11  N   UNL     1      -0.299   9.607  20.840  0.00  0.00    +0.000 NA
ATOM     12  H   UNL     1      -0.904  10.256  20.328  0.00  0.00    +0.000 HD
BRANCH  11  13
ATOM     13  S   UNL     1       0.504  10.620  22.007  0.00  0.00    +0.000 S 
ATOM     14  O   UNL     1       0.772   9.865  23.206  0.00  0.00    +0.000 OA
ATOM     15  O   UNL     1       1.570  11.265  21.265  0.00  0.00    +0.000 OA
BRANCH  13  16
ATOM     16  C   UNL     1      -0.705  11.875  22.404  0.00  0.00    +0.000 A 
ATOM     17  C   UNL     1      -0.603  13.121  21.793  0.00  0.00    +0.000 A 
ATOM     18  C   UNL     1      -1.648  14.043  21.933  0.00  0.00    +0.000 A 
ATOM     19  C   UNL     1      -2.803  13.733  22.672  0.00  0.00    +0.000 A 
ATOM     20  C   UNL     1      -3.894  14.620  22.717  0.00  0.00    +0.000 A 
ATOM     21  C   UNL     1      -5.044  14.311  23.441  0.00  0.00    +0.000 A 
ATOM     22  C   UNL     1      -5.100  13.123  24.161  0.00  0.00    +0.000 A 
ATOM     23  C   UNL     1      -4.026  12.225  24.124  0.00  0.00    +0.000 A 
ATOM     24  C   UNL     1      -2.877  12.498  23.356  0.00  0.00    +0.000 A 
ATOM     25  C   UNL     1      -1.818  11.571  23.210  0.00  0.00    +0.000 A 
ENDBRANCH  13  16
ENDBRANCH  11  13
ENDBRANCH   8  11
BRANCH   8  26
ATOM     26  C   UNL     1       0.843   9.709  18.610  0.00  0.00    +0.000 C 
BRANCH  26  27
ATOM     27  C   UNL     1      -0.423  10.340  18.062  0.00  0.00    +0.000 A 
ATOM     28  C   UNL     1      -1.382   9.616  17.341  0.00  0.00    +0.000 A 
ATOM     29  C   UNL     1      -2.665  10.141  17.155  0.00  0.00    +0.000 A 
ATOM     30  C   UNL     1      -2.997  11.389  17.692  0.00  0.00    +0.000 A 
ATOM     31  C   UNL     1      -2.001  12.187  18.261  0.00  0.00    +0.000 A 
ATOM     32  C   UNL     1      -0.722  11.661  18.446  0.00  0.00    +0.000 A 
BRANCH  30  33
ATOM     33  C   UNL     1      -4.426  11.788  17.871  0.00  0.00    +0.000 C 
ATOM     34  N   UNL     1      -4.807  12.489  18.904  0.00  0.00    +0.000 NA
ATOM     35  N   UNL     1      -5.348  11.517  16.882  0.00  0.00    +0.000 N 
ATOM     36  H   UNL     1      -4.016  12.701  19.519  0.00  0.00    +0.000 HD
ATOM     37  H   UNL     1      -5.313  10.601  16.441  0.00  0.00    +0.000 HD
BRANCH  35  38
ATOM     38  O   UNL     1      -6.643  11.931  17.225  0.00  0.00    +0.000 OA
ATOM     39  H   UNL     1      -6.980  12.282  16.365  0.00  0.00    +0.000 HD
ENDBRANCH  35  38
ENDBRANCH  30  33
ENDBRANCH  26  27
ENDBRANCH   8  26
TORSDOF 7
ENDMDL
MODEL 2
REMARK VINA RESULT:      -7.8      2.766      7.819
REMARK  Name = 
REMARK  8 active torsions:
REMARK  status: ('A' for Active; 'I' for Inactive)
REMARK    1  A    between atoms: C_1  and  C_2
REMARK    2  A    between atoms: N_8  and  C_9
REMARK    3  A    between atoms: N_8  and  N_20
REMARK    4  A    between atoms: C_9  and  C_10
REMARK    5  A    between atoms: C_13  and  C_14
REMARK    6  A    between atoms: N_16  and  O_17
REMARK    7  A    between atoms: N_20  and  S_21
REMARK    8  A    between atoms: S_21  and  C_24
REMARK                            x       y       z     vdW  Elec       q    Type
REMARK                         _______ _______ _______ _____ _____    ______ ____
ROOT
ATOM      1  C   UNL     1       2.603  17.660  19.933  0.00  0.00    +0.000 C 
ATOM      2  C   UNL     1       2.514  16.136  19.963  0.00  0.00    +0.000 C 
ATOM      3  C   UNL     1       2.034  15.544  18.639  0.00  0.00    +0.000 C 
ATOM      4  C   UNL     1       1.943  14.012  18.720  0.00  0.00    +0.000 C 
ATOM      5  N   UNL     1       1.148  13.507  19.860  0.00  0.00    +0.000 N 
ATOM      6  C   UNL     1       0.734  12.168  19.725  0.00  0.00    +0.000 C 
ATOM      7  O   UNL     1       0.958  11.555  18.672  0.00  0.00    +0.000 OA
ATOM      8  N   UNL     1       0.001  11.536  20.726  0.00  0.00    +0.000 N 
ATOM      9  C   UNL     1       1.429  14.178  21.124  0.00  0.00    +0.000 C 
ATOM     10  C   UNL     1       1.543  15.697  21.047  0.00  0.00    +0.000 C 
ENDROOT
BRANCH   8  11
ATOM     11  N   UNL     1      -0.398  10.028  20.461  0.00  0.00    +0.000 NA
ATOM     12  H   UNL     1      -1.378   9.883  20.720  0.00  0.00    +0.000 HD
BRANCH  11  13
ATOM     13  S   UNL     1       0.470   8.909  21.475  0.00  0.00    +0.000 S 
ATOM     14  O   UNL     1       1.462   9.617  22.246  0.00  0.00    +0.000 OA
ATOM     15  O   UNL     1      -0.560   8.115  22.115  0.00  0.00    +0.000 OA
BRANCH  13  16
ATOM     16  C   UNL     1       1.324   7.845  20.321  0.00  0.00    +0.000 A 
ATOM     17  C   UNL     1       1.811   8.392  19.138  0.00  0.00    +0.000 A 
ATOM     18  C   UNL     1       2.654   7.627  18.322  0.00  0.00    +0.000 A 
ATOM     19  C   UNL     1       3.026   6.318  18.678  0.00  0.00    +0.000 A 
ATOM     20  C   UNL     1       3.959   5.597  17.912  0.00  0.00    +0.000 A 
ATOM     21  C   UNL     1       4.338   4.303  18.267  0.00  0.00    +0.000 A 
ATOM     22  C   UNL     1       3.755   3.702  19.377  0.00  0.00    +0.000 A 
ATOM     23  C   UNL     1       2.829   4.406  20.156  0.00  0.00    +0.000 A 
ATOM     24  C   UNL     1       2.474   5.733  19.840  0.00  0.00    +0.000 A 
ATOM     25  C   UNL     1       1.623   6.512  20.660  0.00  0.00    +0.000 A 
ENDBRANCH  13  16
ENDBRANCH  11  13
ENDBRANCH   8  11
BRANCH   8  26
ATOM     26  C   UNL     1      -0.461  11.969  22.048  0.00  0.00    +0.000 C 
BRANCH  26  27
ATOM     27  C   UNL     1      -1.861  12.549  22.122  0.00  0.00    +0.000 A 
ATOM     28  C   UNL     1      -2.704  12.644  21.007  0.00  0.00    +0.000 A 
ATOM     29  C   UNL     1      -4.074  12.861  21.179  0.00  0.00    +0.000 A 
ATOM     30  C   UNL     1      -4.610  12.979  22.467  0.00  0.00    +0.000 A 
ATOM     31  C   UNL     1      -3.756  13.056  23.569  0.00  0.00    +0.000 A 
ATOM     32  C   UNL     1      -2.388  12.839  23.394  0.00  0.00    +0.000 A 
BRANCH  30  33
ATOM     33  C   UNL     1      -6.074  12.799  22.704  0.00  0.00    +0.000 C 
ATOM     34  N   UNL     1      -6.951  13.131  21.796  0.00  0.00    +0.000 NA
ATOM     35  N   UNL     1      -6.517  12.171  23.849  0.00  0.00    +0.000 N 
ATOM     36  H   UNL     1      -6.493  13.503  20.959  0.00  0.00    +0.000 HD
ATOM     37  H   UNL     1      -6.068  12.416  24.728  0.00  0.00    +0.000 HD
BRANCH  35  38
ATOM     38  O   UNL     1      -7.916  12.114  23.926  0.00  0.00    +0.000 OA
ATOM     39  H   UNL     1      -8.167  11.972  22.981  0.00  0.00    +0.000 HD
ENDBRANCH  35  38
ENDBRANCH  30  33
ENDBRANCH  26  27
ENDBRANCH   8  26
TORSDOF 7
ENDMDL
MODEL 3
REMARK VINA RESULT:      -7.8      2.699      7.592
REMARK  Name = 
REMARK  8 active torsions:
REMARK  status: ('A' for Active; 'I' for Inactive)
REMARK    1  A    between atoms: C_1  and  C_2
REMARK    2  A    between atoms: N_8  and  C_9
REMARK    3  A    between atoms: N_8  and  N_20
REMARK    4  A    between atoms: C_9  and  C_10
REMARK    5  A    between atoms: C_13  and  C_14
REMARK    6  A    between atoms: N_16  and  O_17
REMARK    7  A    between atoms: N_20  and  S_21
REMARK    8  A    between atoms: S_21  and  C_24
REMARK                            x       y       z     vdW  Elec       q    Type
REMARK                         _______ _______ _______ _____ _____    ______ ____
ROOT
ATOM      1  C   UNL     1      -5.533  13.862  24.164  0.00  0.00    +0.000 C 
ATOM      2  C   UNL     1      -4.202  13.843  23.414  0.00  0.00    +0.000 C 
ATOM      3  C   UNL     1      -4.031  15.040  22.480  0.00  0.00    +0.000 C 
ATOM      4  C   UNL     1      -2.689  14.971  21.735  0.00  0.00    +0.000 C 
ATOM      5  N   UNL     1      -2.447  13.694  21.031  0.00  0.00    +0.000 N 
ATOM      6  C   UNL     1      -1.441  13.760  20.047  0.00  0.00    +0.000 C 
ATOM      7  O   UNL     1      -0.917  14.850  19.772  0.00  0.00    +0.000 OA
ATOM      8  N   UNL     1      -1.074  12.635  19.314  0.00  0.00    +0.000 N 
ATOM      9  C   UNL     1      -2.781  12.510  21.813  0.00  0.00    +0.000 C 
ATOM     10  C   UNL     1      -4.101  12.580  22.574  0.00  0.00    +0.000 C 
ENDROOT
BRANCH   8  11
ATOM     11  N   UNL     1       0.074  12.835  18.245  0.00  0.00    +0.000 NA
ATOM     12  H   UNL     1      -0.073  12.195  17.460  0.00  0.00    +0.000 HD
BRANCH  11  13
ATOM     13  S   UNL     1       1.647  12.396  18.849  0.00  0.00    +0.000 S 
ATOM     14  O   UNL     1       2.669  12.909  17.970  0.00  0.00    +0.000 OA
ATOM     15  O   UNL     1       1.615  12.747  20.256  0.00  0.00    +0.000 OA
BRANCH  13  16
ATOM     16  C   UNL     1       1.675  10.612  18.745  0.00  0.00    +0.000 A 
ATOM     17  C   UNL     1       2.148  10.015  17.580  0.00  0.00    +0.000 A 
ATOM     18  C   UNL     1       2.367   8.633  17.556  0.00  0.00    +0.000 A 
ATOM     19  C   UNL     1       2.126   7.834  18.688  0.00  0.00    +0.000 A 
ATOM     20  C   UNL     1       2.453   6.466  18.691  0.00  0.00    +0.000 A 
ATOM     21  C   UNL     1       2.225   5.673  19.814  0.00  0.00    +0.000 A 
ATOM     22  C   UNL     1       1.631   6.236  20.939  0.00  0.00    +0.000 A 
ATOM     23  C   UNL     1       1.304   7.598  20.956  0.00  0.00    +0.000 A 
ATOM     24  C   UNL     1       1.576   8.424  19.847  0.00  0.00    +0.000 A 
ATOM     25  C   UNL     1       1.357   9.822  19.865  0.00  0.00    +0.000 A 
ENDBRANCH  13  16
ENDBRANCH  11  13
ENDBRANCH   8  11
BRANCH   8  26
ATOM     26  C   UNL     1      -1.507  11.236  19.353  0.00  0.00    +0.000 C 
BRANCH  26  27
ATOM     27  C   UNL     1      -2.306  10.739  18.162  0.00  0.00    +0.000 A 
ATOM     28  C   UNL     1      -3.375  11.457  17.611  0.00  0.00    +0.000 A 
ATOM     29  C   UNL     1      -3.852  11.138  16.336  0.00  0.00    +0.000 A 
ATOM     30  C   UNL     1      -3.260  10.104  15.604  0.00  0.00    +0.000 A 
ATOM     31  C   UNL     1      -2.314   9.276  16.212  0.00  0.00    +0.000 A 
ATOM     32  C   UNL     1      -1.839   9.597  17.484  0.00  0.00    +0.000 A 
BRANCH  30  33
ATOM     33  C   UNL     1      -3.455  10.006  14.126  0.00  0.00    +0.000 C 
ATOM     34  N   UNL     1      -2.436   9.894  13.316  0.00  0.00    +0.000 NA
ATOM     35  N   UNL     1      -4.726   9.918  13.600  0.00  0.00    +0.000 N 
ATOM     36  H   UNL     1      -1.553   9.883  13.834  0.00  0.00    +0.000 HD
ATOM     37  H   UNL     1      -5.442  10.528  13.987  0.00  0.00    +0.000 HD
BRANCH  35  38
ATOM     38  O   UNL     1      -4.728   9.864  12.198  0.00  0.00    +0.000 OA
ATOM     39  H   UNL     1      -4.295   8.993  12.027  0.00  0.00    +0.000 HD
ENDBRANCH  35  38
ENDBRANCH  30  33
ENDBRANCH  26  27
ENDBRANCH   8  26
TORSDOF 7
ENDMDL
MODEL 4
REMARK VINA RESULT:      -7.3      0.851      1.028
REMARK  Name = 
REMARK  8 active torsions:
REMARK  status: ('A' for Active; 'I' for Inactive)
REMARK    1  A    between atoms: C_1  and  C_2
REMARK    2  A    between atoms: N_8  and  C_9
REMARK    3  A    between atoms: N_8  and  N_20
REMARK    4  A    between atoms: C_9  and  C_10
REMARK    5  A    between atoms: C_13  and  C_14
REMARK    6  A    between atoms: N_16  and  O_17
REMARK    7  A    between atoms: N_20  and  S_21
REMARK    8  A    between atoms: S_21  and  C_24
REMARK                            x       y       z     vdW  Elec       q    Type
REMARK                         _______ _______ _______ _____ _____    ______ ____
ROOT
ATOM      1  C   UNL     1       5.315   5.778  16.161  0.00  0.00    +0.000 C 
ATOM      2  C   UNL     1       4.618   6.262  17.430  0.00  0.00    +0.000 C 
ATOM      3  C   UNL     1       3.550   5.289  17.928  0.00  0.00    +0.000 C 
ATOM      4  C   UNL     1       2.863   5.823  19.194  0.00  0.00    +0.000 C 
ATOM      5  N   UNL     1       2.330   7.197  19.066  0.00  0.00    +0.000 N 
ATOM      6  C   UNL     1       1.379   7.539  20.047  0.00  0.00    +0.000 C 
ATOM      7  O   UNL     1       0.989   6.683  20.855  0.00  0.00    +0.000 OA
ATOM      8  N   UNL     1       0.802   8.805  20.080  0.00  0.00    +0.000 N 
ATOM      9  C   UNL     1       3.240   8.131  18.415  0.00  0.00    +0.000 C 
ATOM     10  C   UNL     1       3.943   7.599  17.170  0.00  0.00    +0.000 C 
ENDROOT
BRANCH   8  11
ATOM     11  N   UNL     1      -0.246   9.071  21.236  0.00  0.00    +0.000 NA
ATOM     12  H   UNL     1      -1.104   9.463  20.837  0.00  0.00    +0.000 HD
BRANCH  11  13
ATOM     13  S   UNL     1       0.282  10.288  22.363  0.00  0.00    +0.000 S 
ATOM     14  O   UNL     1       0.376   9.722  23.686  0.00  0.00    +0.000 OA
ATOM     15  O   UNL     1       1.425  10.913  21.725  0.00  0.00    +0.000 OA
BRANCH  13  16
ATOM     16  C   UNL     1      -1.045  11.485  22.370  0.00  0.00    +0.000 A 
ATOM     17  C   UNL     1      -1.217  12.303  21.257  0.00  0.00    +0.000 A 
ATOM     18  C   UNL     1      -2.365  13.098  21.159  0.00  0.00    +0.000 A 
ATOM     19  C   UNL     1      -3.354  13.083  22.159  0.00  0.00    +0.000 A 
ATOM     20  C   UNL     1      -4.554  13.799  22.001  0.00  0.00    +0.000 A 
ATOM     21  C   UNL     1      -5.541  13.778  22.986  0.00  0.00    +0.000 A 
ATOM     22  C   UNL     1      -5.319  13.066  24.160  0.00  0.00    +0.000 A 
ATOM     23  C   UNL     1      -4.133  12.342  24.332  0.00  0.00    +0.000 A 
ATOM     24  C   UNL     1      -3.148  12.311  23.325  0.00  0.00    +0.000 A 
ATOM     25  C   UNL     1      -1.985  11.509  23.417  0.00  0.00    +0.000 A 
ENDBRANCH  13  16
ENDBRANCH  11  13
ENDBRANCH   8  11
BRANCH   8  26
ATOM     26  C   UNL     1       0.998  10.011  19.272  0.00  0.00    +0.000 C 
BRANCH  26  27
ATOM     27  C   UNL     1      -0.100  10.351  18.281  0.00  0.00    +0.000 A 
ATOM     28  C   UNL     1      -0.819   9.374  17.580  0.00  0.00    +0.000 A 
ATOM     29  C   UNL     1      -2.023   9.705  16.950  0.00  0.00    +0.000 A 
ATOM     30  C   UNL     1      -2.517  11.012  17.023  0.00  0.00    +0.000 A 
ATOM     31  C   UNL     1      -1.724  12.023  17.570  0.00  0.00    +0.000 A 
ATOM     32  C   UNL     1      -0.523  11.690  18.198  0.00  0.00    +0.000 A 
BRANCH  30  33
ATOM     33  C   UNL     1      -3.953  11.304  16.732  0.00  0.00    +0.000 C 
ATOM     34  N   UNL     1      -4.523  10.867  15.642  0.00  0.00    +0.000 NA
ATOM     35  N   UNL     1      -4.732  11.946  17.671  0.00  0.00    +0.000 N 
ATOM     36  H   UNL     1      -3.864  10.331  15.070  0.00  0.00    +0.000 HD
ATOM     37  H   UNL     1      -4.327  12.740  18.160  0.00  0.00    +0.000 HD
BRANCH  35  38
ATOM     38  O   UNL     1      -6.043  12.166  17.225  0.00  0.00    +0.000 OA
ATOM     39  H   UNL     1      -6.091  13.152  17.209  0.00  0.00    +0.000 HD
ENDBRANCH  35  38
ENDBRANCH  30  33
ENDBRANCH  26  27
ENDBRANCH   8  26
TORSDOF 7
ENDMDL
MODEL 5
REMARK VINA RESULT:      -7.3      1.172      1.573
REMARK  Name = 
REMARK  8 active torsions:
REMARK  status: ('A' for Active; 'I' for Inactive)
REMARK    1  A    between atoms: C_1  and  C_2
REMARK    2  A    between atoms: N_8  and  C_9
REMARK    3  A    between atoms: N_8  and  N_20
REMARK    4  A    between atoms: C_9  and  C_10
REMARK    5  A    between atoms: C_13  and  C_14
REMARK    6  A    between atoms: N_16  and  O_17
REMARK    7  A    between atoms: N_20  and  S_21
REMARK    8  A    between atoms: S_21  and  C_24
REMARK                            x       y       z     vdW  Elec       q    Type
REMARK                         _______ _______ _______ _____ _____    ______ ____
ROOT
ATOM      1  C   UNL     1       2.684   3.651  17.254  0.00  0.00    +0.000 C 
ATOM      2  C   UNL     1       2.852   4.838  18.199  0.00  0.00    +0.000 C 
ATOM      3  C   UNL     1       2.227   4.595  19.572  0.00  0.00    +0.000 C 
ATOM      4  C   UNL     1       2.403   5.820  20.483  0.00  0.00    +0.000 C 
ATOM      5  N   UNL     1       1.937   7.093  19.891  0.00  0.00    +0.000 N 
ATOM      6  C   UNL     1       1.728   8.122  20.830  0.00  0.00    +0.000 C 
ATOM      7  O   UNL     1       1.840   7.886  22.042  0.00  0.00    +0.000 OA
ATOM      8  N   UNL     1       1.315   9.390  20.429  0.00  0.00    +0.000 N 
ATOM      9  C   UNL     1       2.345   7.290  18.505  0.00  0.00    +0.000 C 
ATOM     10  C   UNL     1       2.194   6.071  17.601  0.00  0.00    +0.000 C 
ENDROOT
BRANCH   8  11
ATOM     11  N   UNL     1       1.122  10.463  21.576  0.00  0.00    +0.000 NA
ATOM     12  H   UNL     1       1.949  10.469  22.181  0.00  0.00    +0.000 HD
BRANCH  11  13
ATOM     13  S   UNL     1      -0.183  10.069  22.660  0.00  0.00    +0.000 S 
ATOM     14  O   UNL     1      -1.056   9.102  22.042  0.00  0.00    +0.000 OA
ATOM     15  O   UNL     1       0.460   9.803  23.933  0.00  0.00    +0.000 OA
BRANCH  13  16
ATOM     16  C   UNL     1      -1.089  11.600  22.830  0.00  0.00    +0.000 A 
ATOM     17  C   UNL     1      -0.567  12.755  22.256  0.00  0.00    +0.000 A 
ATOM     18  C   UNL     1      -1.354  13.912  22.203  0.00  0.00    +0.000 A 
ATOM     19  C   UNL     1      -2.665  13.929  22.711  0.00  0.00    +0.000 A 
ATOM     20  C   UNL     1      -3.487  15.060  22.555  0.00  0.00    +0.000 A 
ATOM     21  C   UNL     1      -4.791  15.077  23.048  0.00  0.00    +0.000 A 
ATOM     22  C   UNL     1      -5.275  13.970  23.738  0.00  0.00    +0.000 A 
ATOM     23  C   UNL     1      -4.473  12.833  23.899  0.00  0.00    +0.000 A 
ATOM     24  C   UNL     1      -3.171  12.781  23.361  0.00  0.00    +0.000 A 
ATOM     25  C   UNL     1      -2.371  11.615  23.411  0.00  0.00    +0.000 A 
ENDBRANCH  13  16
ENDBRANCH  11  13
ENDBRANCH   8  11
BRANCH   8  26
ATOM     26  C   UNL     1       1.054   9.984  19.116  0.00  0.00    +0.000 C 
BRANCH  26  27
ATOM     27  C   UNL     1      -0.401  10.143  18.719  0.00  0.00    +0.000 A 
ATOM     28  C   UNL     1      -1.271  11.035  19.359  0.00  0.00    +0.000 A 
ATOM     29  C   UNL     1      -2.482  11.391  18.756  0.00  0.00    +0.000 A 
ATOM     30  C   UNL     1      -2.826  10.862  17.508  0.00  0.00    +0.000 A 
ATOM     31  C   UNL     1      -2.049   9.846  16.947  0.00  0.00    +0.000 A 
ATOM     32  C   UNL     1      -0.841   9.493  17.550  0.00  0.00    +0.000 A 
BRANCH  30  33
ATOM     33  C   UNL     1      -3.874  11.512  16.665  0.00  0.00    +0.000 C 
ATOM     34  N   UNL     1      -3.831  11.445  15.362  0.00  0.00    +0.000 NA
ATOM     35  N   UNL     1      -4.971  12.101  17.258  0.00  0.00    +0.000 N 
ATOM     36  H   UNL     1      -3.018  10.908  15.047  0.00  0.00    +0.000 HD
ATOM     37  H   UNL     1      -4.813  12.670  18.086  0.00  0.00    +0.000 HD
BRANCH  35  38
ATOM     38  O   UNL     1      -5.837  12.689  16.325  0.00  0.00    +0.000 OA
ATOM     39  H   UNL     1      -6.492  11.966  16.170  0.00  0.00    +0.000 HD
ENDBRANCH  35  38
ENDBRANCH  30  33
ENDBRANCH  26  27
ENDBRANCH   8  26
TORSDOF 7
ENDMDL
MODEL 6
REMARK VINA RESULT:      -7.2      2.247      6.285
REMARK  Name = 
REMARK  8 active torsions:
REMARK  status: ('A' for Active; 'I' for Inactive)
REMARK    1  A    between atoms: C_1  and  C_2
REMARK    2  A    between atoms: N_8  and  C_9
REMARK    3  A    between atoms: N_8  and  N_20
REMARK    4  A    between atoms: C_9  and  C_10
REMARK    5  A    between atoms: C_13  and  C_14
REMARK    6  A    between atoms: N_16  and  O_17
REMARK    7  A    between atoms: N_20  and  S_21
REMARK    8  A    between atoms: S_21  and  C_24
REMARK                            x       y       z     vdW  Elec       q    Type
REMARK                         _______ _______ _______ _____ _____    ______ ____
ROOT
ATOM      1  C   UNL     1      -4.253  10.007  13.828  0.00  0.00    +0.000 C 
ATOM      2  C   UNL     1      -3.798  10.008  15.286  0.00  0.00    +0.000 C 
ATOM      3  C   UNL     1      -4.193  11.283  16.030  0.00  0.00    +0.000 C 
ATOM      4  C   UNL     1      -3.701  11.249  17.485  0.00  0.00    +0.000 C 
ATOM      5  N   UNL     1      -2.259  10.957  17.635  0.00  0.00    +0.000 N 
ATOM      6  C   UNL     1      -1.729  11.306  18.893  0.00  0.00    +0.000 C 
ATOM      7  O   UNL     1      -2.437  11.900  19.719  0.00  0.00    +0.000 OA
ATOM      8  N   UNL     1      -0.392  11.069  19.201  0.00  0.00    +0.000 N 
ATOM      9  C   UNL     1      -1.783   9.865  16.795  0.00  0.00    +0.000 C 
ATOM     10  C   UNL     1      -2.285   9.880  15.355  0.00  0.00    +0.000 C 
ENDROOT
BRANCH   8  11
ATOM     11  N   UNL     1       0.082  11.498  20.649  0.00  0.00    +0.000 NA
ATOM     12  H   UNL     1      -0.737  11.689  21.234  0.00  0.00    +0.000 HD
BRANCH  11  13
ATOM     13  S   UNL     1       0.959  13.002  20.657  0.00  0.00    +0.000 S 
ATOM     14  O   UNL     1       2.327  12.768  21.048  0.00  0.00    +0.000 OA
ATOM     15  O   UNL     1       0.632  13.629  19.390  0.00  0.00    +0.000 OA
BRANCH  13  16
ATOM     16  C   UNL     1       0.174  13.961  21.944  0.00  0.00    +0.000 A 
ATOM     17  C   UNL     1       0.613  15.261  22.175  0.00  0.00    +0.000 A 
ATOM     18  C   UNL     1      -0.118  16.092  23.033  0.00  0.00    +0.000 A 
ATOM     19  C   UNL     1      -1.293  15.643  23.662  0.00  0.00    +0.000 A 
ATOM     20  C   UNL     1      -2.081  16.516  24.433  0.00  0.00    +0.000 A 
ATOM     21  C   UNL     1      -3.251  16.076  25.049  0.00  0.00    +0.000 A 
ATOM     22  C   UNL     1      -3.627  14.742  24.929  0.00  0.00    +0.000 A 
ATOM     23  C   UNL     1      -2.858  13.860  24.161  0.00  0.00    +0.000 A 
ATOM     24  C   UNL     1      -1.700  14.300  23.489  0.00  0.00    +0.000 A 
ATOM     25  C   UNL     1      -0.957  13.466  22.621  0.00  0.00    +0.000 A 
ENDBRANCH  13  16
ENDBRANCH  11  13
ENDBRANCH   8  11
BRANCH   8  26
ATOM     26  C   UNL     1       0.705  10.441  18.463  0.00  0.00    +0.000 C 
BRANCH  26  27
ATOM     27  C   UNL     1       1.355   9.232  19.109  0.00  0.00    +0.000 A 
ATOM     28  C   UNL     1       1.042   8.804  20.406  0.00  0.00    +0.000 A 
ATOM     29  C   UNL     1       1.400   7.520  20.827  0.00  0.00    +0.000 A 
ATOM     30  C   UNL     1       2.066   6.655  19.953  0.00  0.00    +0.000 A 
ATOM     31  C   UNL     1       2.530   7.131  18.725  0.00  0.00    +0.000 A 
ATOM     32  C   UNL     1       2.172   8.413  18.307  0.00  0.00    +0.000 A 
BRANCH  30  33
ATOM     33  C   UNL     1       2.095   5.183  20.209  0.00  0.00    +0.000 C 
ATOM     34  N   UNL     1       1.910   4.325  19.242  0.00  0.00    +0.000 NA
ATOM     35  N   UNL     1       2.432   4.705  21.458  0.00  0.00    +0.000 N 
ATOM     36  H   UNL     1       1.758   4.803  18.349  0.00  0.00    +0.000 HD
ATOM     37  H   UNL     1       2.033   5.173  22.267  0.00  0.00    +0.000 HD
BRANCH  35  38
ATOM     38  O   UNL     1       2.380   3.305  21.531  0.00  0.00    +0.000 OA
ATOM     39  H   UNL     1       1.900   3.163  22.383  0.00  0.00    +0.000 HD
ENDBRANCH  35  38
ENDBRANCH  30  33
ENDBRANCH  26  27
ENDBRANCH   8  26
TORSDOF 7
ENDMDL
MODEL 7
REMARK VINA RESULT:      -7.1      3.489      8.910
REMARK  Name = 
REMARK  8 active torsions:
REMARK  status: ('A' for Active; 'I' for Inactive)
REMARK    1  A    between atoms: C_1  and  C_2
REMARK    2  A    between atoms: N_8  and  C_9
REMARK    3  A    between atoms: N_8  and  N_20
REMARK    4  A    between atoms: C_9  and  C_10
REMARK    5  A    between atoms: C_13  and  C_14
REMARK    6  A    between atoms: N_16  and  O_17
REMARK    7  A    between atoms: N_20  and  S_21
REMARK    8  A    between atoms: S_21  and  C_24
REMARK                            x       y       z     vdW  Elec       q    Type
REMARK                         _______ _______ _______ _____ _____    ______ ____
ROOT
ATOM      1  C   UNL     1      -5.180  15.091  22.925  0.00  0.00    +0.000 C 
ATOM      2  C   UNL     1      -4.266  13.921  22.566  0.00  0.00    +0.000 C 
ATOM      3  C   UNL     1      -3.153  13.703  23.590  0.00  0.00    +0.000 C 
ATOM      4  C   UNL     1      -2.248  12.531  23.181  0.00  0.00    +0.000 C 
ATOM      5  N   UNL     1      -1.710  12.626  21.806  0.00  0.00    +0.000 N 
ATOM      6  C   UNL     1      -0.599  11.795  21.564  0.00  0.00    +0.000 C 
ATOM      7  O   UNL     1      -0.098  11.146  22.494  0.00  0.00    +0.000 OA
ATOM      8  N   UNL     1       0.006  11.748  20.311  0.00  0.00    +0.000 N 
ATOM      9  C   UNL     1      -2.695  13.024  20.808  0.00  0.00    +0.000 C 
ATOM     10  C   UNL     1      -3.612  14.172  21.217  0.00  0.00    +0.000 C 
ENDROOT
BRANCH   8  11
ATOM     11  N   UNL     1       1.241  10.770  20.162  0.00  0.00    +0.000 NA
ATOM     12  H   UNL     1       2.108  11.315  20.141  0.00  0.00    +0.000 HD
BRANCH  11  13
ATOM     13  S   UNL     1       1.250   9.916  18.645  0.00  0.00    +0.000 S 
ATOM     14  O   UNL     1      -0.103   9.717  18.188  0.00  0.00    +0.000 OA
ATOM     15  O   UNL     1       2.228  10.613  17.833  0.00  0.00    +0.000 OA
BRANCH  13  16
ATOM     16  C   UNL     1       1.936   8.315  19.048  0.00  0.00    +0.000 A 
ATOM     17  C   UNL     1       1.622   7.740  20.276  0.00  0.00    +0.000 A 
ATOM     18  C   UNL     1       1.980   6.410  20.524  0.00  0.00    +0.000 A 
ATOM     19  C   UNL     1       2.644   5.638  19.554  0.00  0.00    +0.000 A 
ATOM     20  C   UNL     1       2.902   4.272  19.768  0.00  0.00    +0.000 A 
ATOM     21  C   UNL     1       3.551   3.501  18.805  0.00  0.00    +0.000 A 
ATOM     22  C   UNL     1       3.984   4.102  17.627  0.00  0.00    +0.000 A 
ATOM     23  C   UNL     1       3.732   5.459  17.394  0.00  0.00    +0.000 A 
ATOM     24  C   UNL     1       3.031   6.240  18.335  0.00  0.00    +0.000 A 
ATOM     25  C   UNL     1       2.666   7.585  18.091  0.00  0.00    +0.000 A 
ENDBRANCH  13  16
ENDBRANCH  11  13
ENDBRANCH   8  11
BRANCH   8  26
ATOM     26  C   UNL     1      -0.295  12.400  19.034  0.00  0.00    +0.000 C 
BRANCH  26  27
ATOM     27  C   UNL     1       0.369  13.741  18.783  0.00  0.00    +0.000 A 
ATOM     28  C   UNL     1      -0.303  14.961  18.936  0.00  0.00    +0.000 A 
ATOM     29  C   UNL     1       0.421  16.154  19.025  0.00  0.00    +0.000 A 
ATOM     30  C   UNL     1       1.819  16.133  18.968  0.00  0.00    +0.000 A 
ATOM     31  C   UNL     1       2.482  14.948  18.645  0.00  0.00    +0.000 A 
ATOM     32  C   UNL     1       1.758  13.758  18.557  0.00  0.00    +0.000 A 
BRANCH  30  33
ATOM     33  C   UNL     1       2.620  17.293  19.462  0.00  0.00    +0.000 C 
ATOM     34  N   UNL     1       2.059  18.446  19.709  0.00  0.00    +0.000 NA
ATOM     35  N   UNL     1       3.954  17.130  19.774  0.00  0.00    +0.000 N 
ATOM     36  H   UNL     1       1.053  18.414  19.522  0.00  0.00    +0.000 HD
ATOM     37  H   UNL     1       4.525  16.581  19.136  0.00  0.00    +0.000 HD
BRANCH  35  38
ATOM     38  O   UNL     1       4.560  18.323  20.192  0.00  0.00    +0.000 OA
ATOM     39  H   UNL     1       5.495  18.189  19.904  0.00  0.00    +0.000 HD
ENDBRANCH  35  38
ENDBRANCH  30  33
ENDBRANCH  26  27
ENDBRANCH   8  26
TORSDOF 7
ENDMDL
MODEL 8
REMARK VINA RESULT:      -7.0      3.402      7.698
REMARK  Name = 
REMARK  8 active torsions:
REMARK  status: ('A' for Active; 'I' for Inactive)
REMARK    1  A    between atoms: C_1  and  C_2
REMARK    2  A    between atoms: N_8  and  C_9
REMARK    3  A    between atoms: N_8  and  N_20
REMARK    4  A    between atoms: C_9  and  C_10
REMARK    5  A    between atoms: C_13  and  C_14
REMARK    6  A    between atoms: N_16  and  O_17
REMARK    7  A    between atoms: N_20  and  S_21
REMARK    8  A    between atoms: S_21  and  C_24
REMARK                            x       y       z     vdW  Elec       q    Type
REMARK                         _______ _______ _______ _____ _____    ______ ____
ROOT
ATOM      1  C   UNL     1       5.377  17.122  18.929  0.00  0.00    +0.000 C 
ATOM      2  C   UNL     1       4.787  15.735  19.173  0.00  0.00    +0.000 C 
ATOM      3  C   UNL     1       4.444  15.001  17.876  0.00  0.00    +0.000 C 
ATOM      4  C   UNL     1       3.837  13.620  18.168  0.00  0.00    +0.000 C 
ATOM      5  N   UNL     1       2.689  13.642  19.100  0.00  0.00    +0.000 N 
ATOM      6  C   UNL     1       1.897  12.478  19.066  0.00  0.00    +0.000 C 
ATOM      7  O   UNL     1       2.133  11.594  18.230  0.00  0.00    +0.000 OA
ATOM      8  N   UNL     1       0.794  12.332  19.903  0.00  0.00    +0.000 N 
ATOM      9  C   UNL     1       2.888  14.490  20.270  0.00  0.00    +0.000 C 
ATOM     10  C   UNL     1       3.511  15.854  19.990  0.00  0.00    +0.000 C 
ENDROOT
BRANCH   8  11
ATOM     11  N   UNL     1      -0.011  10.976  19.777  0.00  0.00    +0.000 NA
ATOM     12  H   UNL     1      -0.976  11.120  20.087  0.00  0.00    +0.000 HD
BRANCH  11  13
ATOM     13  S   UNL     1       0.586   9.732  20.839  0.00  0.00    +0.000 S 
ATOM     14  O   UNL     1       1.577  10.284  21.730  0.00  0.00    +0.000 OA
ATOM     15  O   UNL     1      -0.604   9.076  21.346  0.00  0.00    +0.000 OA
BRANCH  13  16
ATOM     16  C   UNL     1       1.406   8.579  19.748  0.00  0.00    +0.000 A 
ATOM     17  C   UNL     1       1.712   8.983  18.452  0.00  0.00    +0.000 A 
ATOM     18  C   UNL     1       2.529   8.174  17.654  0.00  0.00    +0.000 A 
ATOM     19  C   UNL     1       3.056   6.963  18.138  0.00  0.00    +0.000 A 
ATOM     20  C   UNL     1       3.964   6.211  17.371  0.00  0.00    +0.000 A 
ATOM     21  C   UNL     1       4.495   5.015  17.851  0.00  0.00    +0.000 A 
ATOM     22  C   UNL     1       4.092   4.538  19.094  0.00  0.00    +0.000 A 
ATOM     23  C   UNL     1       3.193   5.276  19.874  0.00  0.00    +0.000 A 
ATOM     24  C   UNL     1       2.687   6.513  19.425  0.00  0.00    +0.000 A 
ATOM     25  C   UNL     1       1.860   7.336  20.227  0.00  0.00    +0.000 A 
ENDBRANCH  13  16
ENDBRANCH  11  13
ENDBRANCH   8  11
BRANCH   8  26
ATOM     26  C   UNL     1       0.221  13.177  20.953  0.00  0.00    +0.000 C 
BRANCH  26  27
ATOM     27  C   UNL     1      -1.055  12.680  21.606  0.00  0.00    +0.000 A 
ATOM     28  C   UNL     1      -1.066  11.990  22.825  0.00  0.00    +0.000 A 
ATOM     29  C   UNL     1      -2.257  11.853  23.544  0.00  0.00    +0.000 A 
ATOM     30  C   UNL     1      -3.442  12.409  23.050  0.00  0.00    +0.000 A 
ATOM     31  C   UNL     1      -3.473  12.945  21.761  0.00  0.00    +0.000 A 
ATOM     32  C   UNL     1      -2.282  13.081  21.046  0.00  0.00    +0.000 A 
BRANCH  30  33
ATOM     33  C   UNL     1      -4.611  12.642  23.952  0.00  0.00    +0.000 C 
ATOM     34  N   UNL     1      -4.462  12.703  25.248  0.00  0.00    +0.000 NA
ATOM     35  N   UNL     1      -5.854  12.909  23.418  0.00  0.00    +0.000 N 
ATOM     36  H   UNL     1      -3.481  12.577  25.513  0.00  0.00    +0.000 HD
ATOM     37  H   UNL     1      -6.157  12.353  22.622  0.00  0.00    +0.000 HD
BRANCH  35  38
ATOM     38  O   UNL     1      -6.840  13.071  24.403  0.00  0.00    +0.000 OA
ATOM     39  H   UNL     1      -6.317  13.438  25.156  0.00  0.00    +0.000 HD
ENDBRANCH  35  38
ENDBRANCH  30  33
ENDBRANCH  26  27
ENDBRANCH   8  26
TORSDOF 7
ENDMDL
MODEL 9
REMARK VINA RESULT:      -7.0      2.503      6.194
REMARK  Name = 
REMARK  8 active torsions:
REMARK  status: ('A' for Active; 'I' for Inactive)
REMARK    1  A    between atoms: C_1  and  C_2
REMARK    2  A    between atoms: N_8  and  C_9
REMARK    3  A    between atoms: N_8  and  N_20
REMARK    4  A    between atoms: C_9  and  C_10
REMARK    5  A    between atoms: C_13  and  C_14
REMARK    6  A    between atoms: N_16  and  O_17
REMARK    7  A    between atoms: N_20  and  S_21
REMARK    8  A    between atoms: S_21  and  C_24
REMARK                            x       y       z     vdW  Elec       q    Type
REMARK                         _______ _______ _______ _____ _____    ______ ____
ROOT
ATOM      1  C   UNL     1      -4.328   9.915  14.068  0.00  0.00    +0.000 C 
ATOM      2  C   UNL     1      -3.831   9.976  15.511  0.00  0.00    +0.000 C 
ATOM      3  C   UNL     1      -4.274  11.247  16.236  0.00  0.00    +0.000 C 
ATOM      4  C   UNL     1      -3.737  11.275  17.676  0.00  0.00    +0.000 C 
ATOM      5  N   UNL     1      -2.278  11.067  17.788  0.00  0.00    +0.000 N 
ATOM      6  C   UNL     1      -1.730  11.476  19.019  0.00  0.00    +0.000 C 
ATOM      7  O   UNL     1      -2.445  12.050  19.853  0.00  0.00    +0.000 OA
ATOM      8  N   UNL     1      -0.374  11.321  19.292  0.00  0.00    +0.000 N 
ATOM      9  C   UNL     1      -1.766   9.982  16.959  0.00  0.00    +0.000 C 
ATOM     10  C   UNL     1      -2.312   9.934  15.535  0.00  0.00    +0.000 C 
ENDROOT
BRANCH   8  11
ATOM     11  N   UNL     1       0.119  11.811  20.713  0.00  0.00    +0.000 NA
ATOM     12  H   UNL     1      -0.687  11.917  21.337  0.00  0.00    +0.000 HD
BRANCH  11  13
ATOM     13  S   UNL     1       0.826  13.402  20.674  0.00  0.00    +0.000 S 
ATOM     14  O   UNL     1       2.016  13.427  21.488  0.00  0.00    +0.000 OA
ATOM     15  O   UNL     1       0.862  13.756  19.268  0.00  0.00    +0.000 OA
BRANCH  13  16
ATOM     16  C   UNL     1      -0.397  14.444  21.455  0.00  0.00    +0.000 A 
ATOM     17  C   UNL     1      -1.236  15.213  20.653  0.00  0.00    +0.000 A 
ATOM     18  C   UNL     1      -2.325  15.874  21.231  0.00  0.00    +0.000 A 
ATOM     19  C   UNL     1      -2.596  15.773  22.608  0.00  0.00    +0.000 A 
ATOM     20  C   UNL     1      -3.754  16.349  23.162  0.00  0.00    +0.000 A 
ATOM     21  C   UNL     1      -4.030  16.242  24.524  0.00  0.00    +0.000 A 
ATOM     22  C   UNL     1      -3.128  15.586  25.355  0.00  0.00    +0.000 A 
ATOM     23  C   UNL     1      -1.974  15.001  24.820  0.00  0.00    +0.000 A 
ATOM     24  C   UNL     1      -1.705  15.056  23.438  0.00  0.00    +0.000 A 
ATOM     25  C   UNL     1      -0.606  14.390  22.846  0.00  0.00    +0.000 A 
ENDBRANCH  13  16
ENDBRANCH  11  13
ENDBRANCH   8  11
BRANCH   8  26
ATOM     26  C   UNL     1       0.734  10.735  18.534  0.00  0.00    +0.000 C 
BRANCH  26  27
ATOM     27  C   UNL     1       1.380   9.495  19.123  0.00  0.00    +0.000 A 
ATOM     28  C   UNL     1       1.082   9.020  20.406  0.00  0.00    +0.000 A 
ATOM     29  C   UNL     1       1.432   7.716  20.772  0.00  0.00    +0.000 A 
ATOM     30  C   UNL     1       2.077   6.880  19.855  0.00  0.00    +0.000 A 
ATOM     31  C   UNL     1       2.529   7.401  18.640  0.00  0.00    +0.000 A 
ATOM     32  C   UNL     1       2.178   8.701  18.278  0.00  0.00    +0.000 A 
BRANCH  30  33
ATOM     33  C   UNL     1       2.095   5.399  20.052  0.00  0.00    +0.000 C 
ATOM     34  N   UNL     1       2.311   4.877  21.229  0.00  0.00    +0.000 NA
ATOM     35  N   UNL     1       1.767   4.559  19.009  0.00  0.00    +0.000 N 
ATOM     36  H   UNL     1       2.453   5.606  21.935  0.00  0.00    +0.000 HD
ATOM     37  H   UNL     1       2.147   4.774  18.091  0.00  0.00    +0.000 HD
BRANCH  35  38
ATOM     38  O   UNL     1       1.864   3.203  19.358  0.00  0.00    +0.000 OA
ATOM     39  H   UNL     1       1.932   3.251  20.342  0.00  0.00    +0.000 HD
ENDBRANCH  35  38
ENDBRANCH  30  33
ENDBRANCH  26  27
ENDBRANCH   8  26
TORSDOF 7
ENDMDL
