MODEL 1
REMARK VINA RESULT:      -7.3      0.000      0.000
REMARK  Name = 
REMARK  5 active torsions:
REMARK  status: ('A' for Active; 'I' for Inactive)
REMARK    1  A    between atoms: C_2  and  C_3
REMARK    2  A    between atoms: C_3  and  N_4
REMARK    3  A    between atoms: C_9  and  C_10
REMARK    4  A    between atoms: C_10  and  N_11
REMARK    5  A    between atoms: N_16  and  C_17
REMARK                            x       y       z     vdW  Elec       q    Type
REMARK                         _______ _______ _______ _____ _____    ______ ____
ROOT
ATOM      1  N   UNL     1       6.914   6.041  17.384  0.00  0.00    +0.000 NA
ATOM      2  C   UNL     1       7.407   4.717  16.958  0.00  0.00    +0.000 C 
ATOM      3  C   UNL     1       6.534   4.145  15.837  0.00  0.00    +0.000 C 
ATOM      4  C   UNL     1       5.051   4.135  16.189  0.00  0.00    +0.000 C 
ATOM      5  C   UNL     1       4.619   5.493  16.732  0.00  0.00    +0.000 C 
ATOM      6  C   UNL     1       5.507   5.953  17.907  0.00  0.00    +0.000 C 
ENDROOT
BRANCH   1   7
ATOM      7  C   UNL     1       7.807   6.680  18.384  0.00  0.00    +0.000 C 
BRANCH   7   9
ATOM      8  O   UNL     1       7.505   8.732  17.187  0.00  0.00    +0.000 OA
ATOM      9  C   UNL     1       8.047   8.180  18.144  0.00  0.00    +0.000 C 
ATOM     10  N   UNL     1       8.909   8.779  19.044  0.00  0.00    +0.000 N 
ATOM     11  H   UNL     1       9.285   8.152  19.751  0.00  0.00    +0.000 HD
BRANCH  10  12
ATOM     12  C   UNL     1       9.227  10.154  19.134  0.00  0.00    +0.000 A 
ATOM     13  C   UNL     1       9.269  10.856  20.336  0.00  0.00    +0.000 A 
ATOM     14  C   UNL     1       9.602  12.202  20.311  0.00  0.00    +0.000 A 
ATOM     15  N   UNL     1       9.895  12.884  19.186  0.00  0.00    +0.000 NA
ATOM     16  C   UNL     1       9.855  12.186  18.035  0.00  0.00    +0.000 A 
ATOM     17  C   UNL     1       9.533  10.837  17.957  0.00  0.00    +0.000 A 
ENDBRANCH  10  12
ENDBRANCH   7   9
ENDBRANCH   1   7
BRANCH   6  18
ATOM     18  C   UNL     1       5.319   5.067  19.175  0.00  0.00    +0.000 C 
BRANCH  18  19
ATOM     19  N   UNL     1       3.941   4.800  19.529  0.00  0.00    +0.000 N 
ATOM     20  C   UNL     1       3.345   3.586  19.683  0.00  0.00    +0.000 A 
ATOM     21  N   UNL     1       2.108   3.756  20.089  0.00  0.00    +0.000 NA
ATOM     22  C   UNL     1       2.002   5.113  20.188  0.00  0.00    +0.000 A 
ATOM     23  N   UNL     1       3.102   5.797  19.857  0.00  0.00    +0.000 NA
ENDBRANCH  18  19
ENDBRANCH   6  18
TORSDOF 5
ENDMDL
MODEL 2
REMARK VINA RESULT:      -7.3      4.572      6.385
REMARK  Name = 
REMARK  5 active torsions:
REMARK  status: ('A' for Active; 'I' for Inactive)
REMARK    1  A    between atoms: C_2  and  C_3
REMARK    2  A    between atoms: C_3  and  N_4
REMARK    3  A    between atoms: C_9  and  C_10
REMARK    4  A    between atoms: C_10  and  N_11
REMARK    5  A    between atoms: N_16  and  C_17
REMARK                            x       y       z     vdW  Elec       q    Type
REMARK                         _______ _______ _______ _____ _____    ______ ____
ROOT
ATOM      1  N   UNL     1       3.977   4.590  18.131  0.00  0.00    +0.000 NA
ATOM      2  C   UNL     1       4.114   3.780  19.357  0.00  0.00    +0.000 C 
ATOM      3  C   UNL     1       2.950   2.794  19.490  0.00  0.00    +0.000 C 
ATOM      4  C   UNL     1       1.588   3.469  19.381  0.00  0.00    +0.000 C 
ATOM      5  C   UNL     1       1.538   4.384  18.162  0.00  0.00    +0.000 C 
ATOM      6  C   UNL     1       2.706   5.392  18.151  0.00  0.00    +0.000 C 
ENDROOT
BRANCH   1   7
ATOM      7  C   UNL     1       5.151   5.472  17.904  0.00  0.00    +0.000 C 
BRANCH   7   9
ATOM      8  O   UNL     1       5.402   6.815  15.939  0.00  0.00    +0.000 OA
ATOM      9  C   UNL     1       5.497   5.688  16.421  0.00  0.00    +0.000 C 
ATOM     10  N   UNL     1       5.863   4.541  15.740  0.00  0.00    +0.000 N 
ATOM     11  H   UNL     1       5.853   3.694  16.302  0.00  0.00    +0.000 HD
BRANCH  10  12
ATOM     12  C   UNL     1       6.335   4.455  14.410  0.00  0.00    +0.000 A 
ATOM     13  C   UNL     1       7.420   5.185  13.930  0.00  0.00    +0.000 A 
ATOM     14  C   UNL     1       7.805   5.017  12.608  0.00  0.00    +0.000 A 
ATOM     15  N   UNL     1       7.193   4.179  11.748  0.00  0.00    +0.000 NA
ATOM     16  C   UNL     1       6.151   3.477  12.233  0.00  0.00    +0.000 A 
ATOM     17  C   UNL     1       5.691   3.577  13.539  0.00  0.00    +0.000 A 
ENDBRANCH  10  12
ENDBRANCH   7   9
ENDBRANCH   1   7
BRANCH   6  18
ATOM     18  C   UNL     1       2.595   6.441  19.298  0.00  0.00    +0.000 C 
BRANCH  18  19
ATOM     19  N   UNL     1       2.230   7.774  18.866  0.00  0.00    +0.000 N 
ATOM     20  C   UNL     1       2.408   8.326  17.635  0.00  0.00    +0.000 A 
ATOM     21  N   UNL     1       1.870   9.523  17.612  0.00  0.00    +0.000 NA
ATOM     22  C   UNL     1       1.351   9.650  18.868  0.00  0.00    +0.000 A 
ATOM     23  N   UNL     1       1.545   8.602  19.674  0.00  0.00    +0.000 NA
ENDBRANCH  18  19
ENDBRANCH   6  18
TORSDOF 5
ENDMDL
MODEL 3
REMARK VINA RESULT:      -7.2      3.843      6.591
REMARK  Name = 
REMARK  5 active torsions:
REMARK  status: ('A' for Active; 'I' for Inactive)
REMARK    1  A    between atoms: C_2  and  C_3
REMARK    2  A    between atoms: C_3  and  N_4
REMARK    3  A    between atoms: C_9  and  C_10
REMARK    4  A    between atoms: C_10  and  N_11
REMARK    5  A    between atoms: N_16  and  C_17
REMARK                            x       y       z     vdW  Elec       q    Type
REMARK                         _______ _______ _______ _____ _____    ______ ____
ROOT
ATOM      1  N   UNL     1       2.529   5.121  18.857  0.00  0.00    +0.000 NA
ATOM      2  C   UNL     1       1.743   4.271  17.941  0.00  0.00    +0.000 C 
ATOM      3  C   UNL     1       1.087   3.114  18.699  0.00  0.00    +0.000 C 
ATOM      4  C   UNL     1       2.081   2.315  19.534  0.00  0.00    +0.000 C 
ATOM      5  C   UNL     1       2.946   3.246  20.376  0.00  0.00    +0.000 C 
ATOM      6  C   UNL     1       3.626   4.333  19.518  0.00  0.00    +0.000 C 
ENDROOT
BRANCH   1   7
ATOM      7  C   UNL     1       3.079   6.322  18.179  0.00  0.00    +0.000 C 
BRANCH   7   9
ATOM      8  O   UNL     1       2.330   8.560  17.777  0.00  0.00    +0.000 OA
ATOM      9  C   UNL     1       2.402   7.640  18.591  0.00  0.00    +0.000 C 
ATOM     10  N   UNL     1       1.952   7.676  19.898  0.00  0.00    +0.000 N 
ATOM     11  H   UNL     1       2.130   6.828  20.430  0.00  0.00    +0.000 HD
BRANCH  10  12
ATOM     12  C   UNL     1       1.201   8.705  20.512  0.00  0.00    +0.000 A 
ATOM     13  C   UNL     1       0.525   9.693  19.801  0.00  0.00    +0.000 A 
ATOM     14  C   UNL     1      -0.190  10.651  20.505  0.00  0.00    +0.000 A 
ATOM     15  N   UNL     1      -0.278  10.685  21.849  0.00  0.00    +0.000 NA
ATOM     16  C   UNL     1       0.376   9.717  22.518  0.00  0.00    +0.000 A 
ATOM     17  C   UNL     1       1.119   8.717  21.904  0.00  0.00    +0.000 A 
ENDBRANCH  10  12
ENDBRANCH   7   9
ENDBRANCH   1   7
BRANCH   6  18
ATOM     18  C   UNL     1       4.699   3.743  18.554  0.00  0.00    +0.000 C 
BRANCH  18  19
ATOM     19  N   UNL     1       5.944   4.481  18.509  0.00  0.00    +0.000 N 
ATOM     20  C   UNL     1       6.734   4.710  17.424  0.00  0.00    +0.000 A 
ATOM     21  N   UNL     1       7.732   5.490  17.768  0.00  0.00    +0.000 NA
ATOM     22  C   UNL     1       7.492   5.729  19.091  0.00  0.00    +0.000 A 
ATOM     23  N   UNL     1       6.405   5.133  19.590  0.00  0.00    +0.000 NA
ENDBRANCH  18  19
ENDBRANCH   6  18
TORSDOF 5
ENDMDL
MODEL 4
REMARK VINA RESULT:      -7.2      4.315      6.387
REMARK  Name = 
REMARK  5 active torsions:
REMARK  status: ('A' for Active; 'I' for Inactive)
REMARK    1  A    between atoms: C_2  and  C_3
REMARK    2  A    between atoms: C_3  and  N_4
REMARK    3  A    between atoms: C_9  and  C_10
REMARK    4  A    between atoms: C_10  and  N_11
REMARK    5  A    between atoms: N_16  and  C_17
REMARK                            x       y       z     vdW  Elec       q    Type
REMARK                         _______ _______ _______ _____ _____    ______ ____
ROOT
ATOM      1  N   UNL     1       2.511   5.083  18.764  0.00  0.00    +0.000 NA
ATOM      2  C   UNL     1       1.455   4.361  18.027  0.00  0.00    +0.000 C 
ATOM      3  C   UNL     1       0.997   3.124  18.805  0.00  0.00    +0.000 C 
ATOM      4  C   UNL     1       2.155   2.218  19.210  0.00  0.00    +0.000 C 
ATOM      5  C   UNL     1       3.269   3.030  19.862  0.00  0.00    +0.000 C 
ATOM      6  C   UNL     1       3.717   4.209  18.974  0.00  0.00    +0.000 C 
ENDROOT
BRANCH   1   7
ATOM      7  C   UNL     1       2.894   6.354  18.099  0.00  0.00    +0.000 C 
BRANCH   7   9
ATOM      8  O   UNL     1       2.132   7.654  19.959  0.00  0.00    +0.000 OA
ATOM      9  C   UNL     1       2.274   7.608  18.738  0.00  0.00    +0.000 C 
ATOM     10  N   UNL     1       1.892   8.587  17.839  0.00  0.00    +0.000 N 
ATOM     11  H   UNL     1       2.062   8.355  16.864  0.00  0.00    +0.000 HD
BRANCH  10  12
ATOM     12  C   UNL     1       1.401   9.878  18.143  0.00  0.00    +0.000 A 
ATOM     13  C   UNL     1       2.208  11.010  18.214  0.00  0.00    +0.000 A 
ATOM     14  C   UNL     1       1.621  12.231  18.511  0.00  0.00    +0.000 A 
ATOM     15  N   UNL     1       0.302  12.397  18.733  0.00  0.00    +0.000 NA
ATOM     16  C   UNL     1      -0.462  11.291  18.653  0.00  0.00    +0.000 A 
ATOM     17  C   UNL     1       0.032  10.026  18.363  0.00  0.00    +0.000 A 
ENDBRANCH  10  12
ENDBRANCH   7   9
ENDBRANCH   1   7
BRANCH   6  18
ATOM     18  C   UNL     1       4.434   3.735  17.675  0.00  0.00    +0.000 C 
BRANCH  18  19
ATOM     19  N   UNL     1       5.796   4.206  17.529  0.00  0.00    +0.000 N 
ATOM     20  C   UNL     1       6.422   4.592  16.383  0.00  0.00    +0.000 A 
ATOM     21  N   UNL     1       7.625   5.032  16.671  0.00  0.00    +0.000 NA
ATOM     22  C   UNL     1       7.679   4.910  18.029  0.00  0.00    +0.000 A 
ATOM     23  N   UNL     1       6.580   4.410  18.601  0.00  0.00    +0.000 NA
ENDBRANCH  18  19
ENDBRANCH   6  18
TORSDOF 5
ENDMDL
MODEL 5
REMARK VINA RESULT:      -7.2      4.008      6.296
REMARK  Name = 
REMARK  5 active torsions:
REMARK  status: ('A' for Active; 'I' for Inactive)
REMARK    1  A    between atoms: C_2  and  C_3
REMARK    2  A    between atoms: C_3  and  N_4
REMARK    3  A    between atoms: C_9  and  C_10
REMARK    4  A    between atoms: C_10  and  N_11
REMARK    5  A    between atoms: N_16  and  C_17
REMARK                            x       y       z     vdW  Elec       q    Type
REMARK                         _______ _______ _______ _____ _____    ______ ____
ROOT
ATOM      1  N   UNL     1       2.534   5.012  18.823  0.00  0.00    +0.000 NA
ATOM      2  C   UNL     1       1.623   4.264  17.935  0.00  0.00    +0.000 C 
ATOM      3  C   UNL     1       1.081   3.016  18.637  0.00  0.00    +0.000 C 
ATOM      4  C   UNL     1       2.184   2.140  19.219  0.00  0.00    +0.000 C 
ATOM      5  C   UNL     1       3.163   2.978  20.032  0.00  0.00    +0.000 C 
ATOM      6  C   UNL     1       3.714   4.169  19.221  0.00  0.00    +0.000 C 
ENDROOT
BRANCH   1   7
ATOM      7  C   UNL     1       2.983   6.293  18.220  0.00  0.00    +0.000 C 
BRANCH   7   9
ATOM      8  O   UNL     1       2.116   7.597  20.032  0.00  0.00    +0.000 OA
ATOM      9  C   UNL     1       2.307   7.539  18.818  0.00  0.00    +0.000 C 
ATOM     10  N   UNL     1       1.934   8.495  17.891  0.00  0.00    +0.000 N 
ATOM     11  H   UNL     1       2.147   8.255  16.926  0.00  0.00    +0.000 HD
BRANCH  10  12
ATOM     12  C   UNL     1       1.398   9.776  18.157  0.00  0.00    +0.000 A 
ATOM     13  C   UNL     1       0.047  10.009  18.397  0.00  0.00    +0.000 A 
ATOM     14  C   UNL     1      -0.371  11.306  18.657  0.00  0.00    +0.000 A 
ATOM     15  N   UNL     1       0.457  12.369  18.698  0.00  0.00    +0.000 NA
ATOM     16  C   UNL     1       1.761  12.121  18.470  0.00  0.00    +0.000 A 
ATOM     17  C   UNL     1       2.275  10.860  18.200  0.00  0.00    +0.000 A 
ENDBRANCH  10  12
ENDBRANCH   7   9
ENDBRANCH   1   7
BRANCH   6  18
ATOM     18  C   UNL     1       4.635   3.714  18.050  0.00  0.00    +0.000 C 
BRANCH  18  19
ATOM     19  N   UNL     1       5.905   4.407  17.972  0.00  0.00    +0.000 N 
ATOM     20  C   UNL     1       6.581   4.777  16.851  0.00  0.00    +0.000 A 
ATOM     21  N   UNL     1       7.650   5.458  17.191  0.00  0.00    +0.000 NA
ATOM     22  C   UNL     1       7.570   5.493  18.554  0.00  0.00    +0.000 A 
ATOM     23  N   UNL     1       6.515   4.863  19.079  0.00  0.00    +0.000 NA
ENDBRANCH  18  19
ENDBRANCH   6  18
TORSDOF 5
ENDMDL
MODEL 6
REMARK VINA RESULT:      -7.1      4.175      5.688
REMARK  Name = 
REMARK  5 active torsions:
REMARK  status: ('A' for Active; 'I' for Inactive)
REMARK    1  A    between atoms: C_2  and  C_3
REMARK    2  A    between atoms: C_3  and  N_4
REMARK    3  A    between atoms: C_9  and  C_10
REMARK    4  A    between atoms: C_10  and  N_11
REMARK    5  A    between atoms: N_16  and  C_17
REMARK                            x       y       z     vdW  Elec       q    Type
REMARK                         _______ _______ _______ _____ _____    ______ ____
ROOT
ATOM      1  N   UNL     1       4.955   5.776  18.308  0.00  0.00    +0.000 NA
ATOM      2  C   UNL     1       6.387   5.459  18.474  0.00  0.00    +0.000 C 
ATOM      3  C   UNL     1       7.196   5.947  17.269  0.00  0.00    +0.000 C 
ATOM      4  C   UNL     1       6.635   5.453  15.941  0.00  0.00    +0.000 C 
ATOM      5  C   UNL     1       5.132   5.701  15.868  0.00  0.00    +0.000 C 
ATOM      6  C   UNL     1       4.391   5.109  17.085  0.00  0.00    +0.000 C 
ENDROOT
BRANCH   1   7
ATOM      7  C   UNL     1       4.158   5.428  19.512  0.00  0.00    +0.000 C 
BRANCH   7   9
ATOM      8  O   UNL     1       1.812   5.529  19.981  0.00  0.00    +0.000 OA
ATOM      9  C   UNL     1       2.803   6.150  19.598  0.00  0.00    +0.000 C 
ATOM     10  N   UNL     1       2.825   7.471  19.188  0.00  0.00    +0.000 N 
ATOM     11  H   UNL     1       3.734   7.801  18.874  0.00  0.00    +0.000 HD
BRANCH  10  12
ATOM     12  C   UNL     1       1.764   8.403  19.260  0.00  0.00    +0.000 A 
ATOM     13  C   UNL     1       1.138   8.764  20.451  0.00  0.00    +0.000 A 
ATOM     14  C   UNL     1       0.112   9.697  20.409  0.00  0.00    +0.000 A 
ATOM     15  N   UNL     1      -0.321  10.288  19.278  0.00  0.00    +0.000 NA
ATOM     16  C   UNL     1       0.302   9.931  18.139  0.00  0.00    +0.000 A 
ATOM     17  C   UNL     1       1.337   9.006  18.078  0.00  0.00    +0.000 A 
ENDBRANCH  10  12
ENDBRANCH   7   9
ENDBRANCH   1   7
BRANCH   6  18
ATOM     18  C   UNL     1       4.422   3.552  17.099  0.00  0.00    +0.000 C 
BRANCH  18  19
ATOM     19  N   UNL     1       3.288   2.929  17.751  0.00  0.00    +0.000 N 
ATOM     20  C   UNL     1       3.308   2.052  18.791  0.00  0.00    +0.000 A 
ATOM     21  N   UNL     1       2.077   1.778  19.155  0.00  0.00    +0.000 NA
ATOM     22  C   UNL     1       1.330   2.541  18.304  0.00  0.00    +0.000 A 
ATOM     23  N   UNL     1       2.029   3.266  17.425  0.00  0.00    +0.000 NA
ENDBRANCH  18  19
ENDBRANCH   6  18
TORSDOF 5
ENDMDL
MODEL 7
REMARK VINA RESULT:      -7.1      4.424      6.462
REMARK  Name = 
REMARK  5 active torsions:
REMARK  status: ('A' for Active; 'I' for Inactive)
REMARK    1  A    between atoms: C_2  and  C_3
REMARK    2  A    between atoms: C_3  and  N_4
REMARK    3  A    between atoms: C_9  and  C_10
REMARK    4  A    between atoms: C_10  and  N_11
REMARK    5  A    between atoms: N_16  and  C_17
REMARK                            x       y       z     vdW  Elec       q    Type
REMARK                         _______ _______ _______ _____ _____    ______ ____
ROOT
ATOM      1  N   UNL     1       3.119   5.140  18.625  0.00  0.00    +0.000 NA
ATOM      2  C   UNL     1       1.869   4.404  18.353  0.00  0.00    +0.000 C 
ATOM      3  C   UNL     1       1.781   3.143  19.216  0.00  0.00    +0.000 C 
ATOM      4  C   UNL     1       3.018   2.260  19.102  0.00  0.00    +0.000 C 
ATOM      5  C   UNL     1       4.286   3.089  19.275  0.00  0.00    +0.000 C 
ATOM      6  C   UNL     1       4.323   4.294  18.314  0.00  0.00    +0.000 C 
ENDROOT
BRANCH   1   7
ATOM      7  C   UNL     1       3.182   6.432  17.895  0.00  0.00    +0.000 C 
BRANCH   7   9
ATOM      8  O   UNL     1       2.238   7.532  19.801  0.00  0.00    +0.000 OA
ATOM      9  C   UNL     1       2.429   7.581  18.586  0.00  0.00    +0.000 C 
ATOM     10  N   UNL     1       1.992   8.580  17.736  0.00  0.00    +0.000 N 
ATOM     11  H   UNL     1       2.217   8.429  16.756  0.00  0.00    +0.000 HD
BRANCH  10  12
ATOM     12  C   UNL     1       1.374   9.799  18.100  0.00  0.00    +0.000 A 
ATOM     13  C   UNL     1       0.007   9.930  18.327  0.00  0.00    +0.000 A 
ATOM     14  C   UNL     1      -0.494  11.172  18.689  0.00  0.00    +0.000 A 
ATOM     15  N   UNL     1       0.267  12.273  18.842  0.00  0.00    +0.000 NA
ATOM     16  C   UNL     1       1.588  12.124  18.625  0.00  0.00    +0.000 A 
ATOM     17  C   UNL     1       2.182  10.924  18.258  0.00  0.00    +0.000 A 
ENDBRANCH  10  12
ENDBRANCH   7   9
ENDBRANCH   1   7
BRANCH   6  18
ATOM     18  C   UNL     1       4.469   3.861  16.824  0.00  0.00    +0.000 C 
BRANCH  18  19
ATOM     19  N   UNL     1       5.593   4.452  16.128  0.00  0.00    +0.000 N 
ATOM     20  C   UNL     1       6.491   5.351  16.616  0.00  0.00    +0.000 A 
ATOM     21  N   UNL     1       7.411   5.584  15.709  0.00  0.00    +0.000 NA
ATOM     22  C   UNL     1       7.034   4.775  14.676  0.00  0.00    +0.000 A 
ATOM     23  N   UNL     1       5.926   4.059  14.887  0.00  0.00    +0.000 NA
ENDBRANCH  18  19
ENDBRANCH   6  18
TORSDOF 5
ENDMDL
MODEL 8
REMARK VINA RESULT:      -7.1      4.212      5.779
REMARK  Name = 
REMARK  5 active torsions:
REMARK  status: ('A' for Active; 'I' for Inactive)
REMARK    1  A    between atoms: C_2  and  C_3
REMARK    2  A    between atoms: C_3  and  N_4
REMARK    3  A    between atoms: C_9  and  C_10
REMARK    4  A    between atoms: C_10  and  N_11
REMARK    5  A    between atoms: N_16  and  C_17
REMARK                            x       y       z     vdW  Elec       q    Type
REMARK                         _______ _______ _______ _____ _____    ______ ____
ROOT
ATOM      1  N   UNL     1       4.883   5.743  18.376  0.00  0.00    +0.000 NA
ATOM      2  C   UNL     1       6.303   5.384  18.560  0.00  0.00    +0.000 C 
ATOM      3  C   UNL     1       7.144   5.858  17.372  0.00  0.00    +0.000 C 
ATOM      4  C   UNL     1       6.588   5.391  16.031  0.00  0.00    +0.000 C 
ATOM      5  C   UNL     1       5.095   5.682  15.938  0.00  0.00    +0.000 C 
ATOM      6  C   UNL     1       4.319   5.102  17.139  0.00  0.00    +0.000 C 
ENDROOT
BRANCH   1   7
ATOM      7  C   UNL     1       4.058   5.407  19.565  0.00  0.00    +0.000 C 
BRANCH   7   9
ATOM      8  O   UNL     1       1.738   5.627  20.114  0.00  0.00    +0.000 OA
ATOM      9  C   UNL     1       2.732   6.181  19.647  0.00  0.00    +0.000 C 
ATOM     10  N   UNL     1       2.779   7.466  19.136  0.00  0.00    +0.000 N 
ATOM     11  H   UNL     1       3.685   7.739  18.762  0.00  0.00    +0.000 HD
BRANCH  10  12
ATOM     12  C   UNL     1       1.753   8.437  19.177  0.00  0.00    +0.000 A 
ATOM     13  C   UNL     1       1.278   9.102  18.049  0.00  0.00    +0.000 A 
ATOM     14  C   UNL     1       0.260  10.031  18.201  0.00  0.00    +0.000 A 
ATOM     15  N   UNL     1      -0.311  10.334  19.384  0.00  0.00    +0.000 NA
ATOM     16  C   UNL     1       0.157   9.676  20.462  0.00  0.00    +0.000 A 
ATOM     17  C   UNL     1       1.173   8.730  20.411  0.00  0.00    +0.000 A 
ENDBRANCH  10  12
ENDBRANCH   7   9
ENDBRANCH   1   7
BRANCH   6  18
ATOM     18  C   UNL     1       4.306   3.544  17.140  0.00  0.00    +0.000 C 
BRANCH  18  19
ATOM     19  N   UNL     1       3.169   2.948  17.811  0.00  0.00    +0.000 N 
ATOM     20  C   UNL     1       3.186   2.057  18.840  0.00  0.00    +0.000 A 
ATOM     21  N   UNL     1       1.956   1.817  19.230  0.00  0.00    +0.000 NA
ATOM     22  C   UNL     1       1.213   2.613  18.406  0.00  0.00    +0.000 A 
ATOM     23  N   UNL     1       1.913   3.328  17.520  0.00  0.00    +0.000 NA
ENDBRANCH  18  19
ENDBRANCH   6  18
TORSDOF 5
ENDMDL
MODEL 9
REMARK VINA RESULT:      -7.1      3.720      6.789
REMARK  Name = 
REMARK  5 active torsions:
REMARK  status: ('A' for Active; 'I' for Inactive)
REMARK    1  A    between atoms: C_2  and  C_3
REMARK    2  A    between atoms: C_3  and  N_4
REMARK    3  A    between atoms: C_9  and  C_10
REMARK    4  A    between atoms: C_10  and  N_11
REMARK    5  A    between atoms: N_16  and  C_17
REMARK                            x       y       z     vdW  Elec       q    Type
REMARK                         _______ _______ _______ _____ _____    ______ ____
ROOT
ATOM      1  N   UNL     1       3.010   4.441  19.192  0.00  0.00    +0.000 NA
ATOM      2  C   UNL     1       2.213   3.929  18.059  0.00  0.00    +0.000 C 
ATOM      3  C   UNL     1       2.049   2.410  18.151  0.00  0.00    +0.000 C 
ATOM      4  C   UNL     1       3.377   1.680  18.312  0.00  0.00    +0.000 C 
ATOM      5  C   UNL     1       4.211   2.319  19.417  0.00  0.00    +0.000 C 
ATOM      6  C   UNL     1       4.387   3.836  19.201  0.00  0.00    +0.000 C 
ENDROOT
BRANCH   1   7
ATOM      7  C   UNL     1       3.087   5.924  19.202  0.00  0.00    +0.000 C 
BRANCH   7   9
ATOM      8  O   UNL     1       1.344   5.915  20.843  0.00  0.00    +0.000 OA
ATOM      9  C   UNL     1       2.022   6.601  20.081  0.00  0.00    +0.000 C 
ATOM     10  N   UNL     1       1.904   7.967  19.896  0.00  0.00    +0.000 N 
ATOM     11  H   UNL     1       2.531   8.355  19.197  0.00  0.00    +0.000 HD
BRANCH  10  12
ATOM     12  C   UNL     1       1.094   8.860  20.636  0.00  0.00    +0.000 A 
ATOM     13  C   UNL     1       0.198   9.749  20.050  0.00  0.00    +0.000 A 
ATOM     14  C   UNL     1      -0.556  10.576  20.871  0.00  0.00    +0.000 A 
ATOM     15  N   UNL     1      -0.480  10.570  22.216  0.00  0.00    +0.000 NA
ATOM     16  C   UNL     1       0.388   9.698  22.764  0.00  0.00    +0.000 A 
ATOM     17  C   UNL     1       1.185   8.832  22.027  0.00  0.00    +0.000 A 
ENDBRANCH  10  12
ENDBRANCH   7   9
ENDBRANCH   1   7
BRANCH   6  18
ATOM     18  C   UNL     1       5.268   4.161  17.957  0.00  0.00    +0.000 C 
BRANCH  18  19
ATOM     19  N   UNL     1       6.367   5.068  18.213  0.00  0.00    +0.000 N 
ATOM     20  C   UNL     1       6.740   6.149  17.474  0.00  0.00    +0.000 A 
ATOM     21  N   UNL     1       7.730   6.767  18.075  0.00  0.00    +0.000 NA
ATOM     22  C   UNL     1       7.916   6.023  19.204  0.00  0.00    +0.000 A 
ATOM     23  N   UNL     1       7.101   4.971  19.334  0.00  0.00    +0.000 NA
ENDBRANCH  18  19
ENDBRANCH   6  18
TORSDOF 5
ENDMDL
