MODEL 1
REMARK VINA RESULT:      -7.1      0.000      0.000
REMARK  Name = 
REMARK  4 active torsions:
REMARK  status: ('A' for Active; 'I' for Inactive)
REMARK    1  A    between atoms: C_1  and  O_2
REMARK    2  A    between atoms: O_2  and  C_3
REMARK    3  A    between atoms: C_6  and  C_7
REMARK    4  A    between atoms: N_9  and  C_10
REMARK                            x       y       z     vdW  Elec       q    Type
REMARK                         _______ _______ _______ _____ _____    ______ ____
ROOT
ATOM      1  C   UNL     1       3.495   6.559  18.514  0.00  0.00    +0.000 A 
ATOM      2  C   UNL     1       4.245   6.394  17.371  0.00  0.00    +0.000 A 
ATOM      3  N   UNL     1       4.976   5.267  17.610  0.00  0.00    +0.000 N 
ATOM      4  N   UNL     1       4.676   4.748  18.817  0.00  0.00    +0.000 NA
ATOM      5  N   UNL     1       3.772   5.535  19.380  0.00  0.00    +0.000 NA
ENDROOT
BRANCH   1   9
ATOM      6  C   UNL     1       0.684   9.681  19.264  0.00  0.00    +0.000 A 
ATOM      7  C   UNL     1       1.246   9.520  17.997  0.00  0.00    +0.000 A 
ATOM      8  C   UNL     1       2.144   8.477  17.747  0.00  0.00    +0.000 A 
ATOM      9  C   UNL     1       2.517   7.598  18.771  0.00  0.00    +0.000 A 
ATOM     10  C   UNL     1       1.949   7.765  20.041  0.00  0.00    +0.000 A 
ATOM     11  C   UNL     1       1.039   8.802  20.287  0.00  0.00    +0.000 A 
BRANCH   6  13
ATOM     12  C   UNL     1      -1.443  10.596  18.804  0.00  0.00    +0.000 C 
ATOM     13  O   UNL     1      -0.161  10.747  19.403  0.00  0.00    +0.000 OA
ENDBRANCH   6  13
ENDBRANCH   1   9
BRANCH   3  14
ATOM     14  C   UNL     1       5.882   4.545  16.750  0.00  0.00    +0.000 C 
ATOM     15  C   UNL     1       5.182   3.764  15.634  0.00  0.00    +0.000 C 
ATOM     16  C   UNL     1       5.908   4.055  14.320  0.00  0.00    +0.000 C 
ATOM     17  C   UNL     1       7.146   4.876  14.634  0.00  0.00    +0.000 C 
ATOM     18  C   UNL     1       6.875   5.398  16.013  0.00  0.00    +0.000 C 
ATOM     19  O   UNL     1       7.477   6.353  16.489  0.00  0.00    +0.000 OA
ENDBRANCH   3  14
TORSDOF 3
ENDMDL
MODEL 2
REMARK VINA RESULT:      -6.9      0.350      1.159
REMARK  Name = 
REMARK  4 active torsions:
REMARK  status: ('A' for Active; 'I' for Inactive)
REMARK    1  A    between atoms: C_1  and  O_2
REMARK    2  A    between atoms: O_2  and  C_3
REMARK    3  A    between atoms: C_6  and  C_7
REMARK    4  A    between atoms: N_9  and  C_10
REMARK                            x       y       z     vdW  Elec       q    Type
REMARK                         _______ _______ _______ _____ _____    ______ ____
ROOT
ATOM      1  C   UNL     1       3.354   6.660  18.655  0.00  0.00    +0.000 A 
ATOM      2  C   UNL     1       4.085   6.436  17.509  0.00  0.00    +0.000 A 
ATOM      3  N   UNL     1       4.795   5.304  17.781  0.00  0.00    +0.000 N 
ATOM      4  N   UNL     1       4.502   4.836  19.011  0.00  0.00    +0.000 NA
ATOM      5  N   UNL     1       3.623   5.663  19.555  0.00  0.00    +0.000 NA
ENDROOT
BRANCH   1   9
ATOM      6  C   UNL     1       0.487   9.743  19.345  0.00  0.00    +0.000 A 
ATOM      7  C   UNL     1       0.898   8.911  20.385  0.00  0.00    +0.000 A 
ATOM      8  C   UNL     1       1.861   7.920  20.163  0.00  0.00    +0.000 A 
ATOM      9  C   UNL     1       2.403   7.729  18.886  0.00  0.00    +0.000 A 
ATOM     10  C   UNL     1       1.986   8.570  17.846  0.00  0.00    +0.000 A 
ATOM     11  C   UNL     1       1.032   9.569  18.073  0.00  0.00    +0.000 A 
BRANCH   6  13
ATOM     12  C   UNL     1      -1.019  11.391  18.575  0.00  0.00    +0.000 C 
ATOM     13  O   UNL     1      -0.476  10.659  19.668  0.00  0.00    +0.000 OA
ENDBRANCH   6  13
ENDBRANCH   1   9
BRANCH   3  14
ATOM     14  C   UNL     1       5.674   4.531  16.937  0.00  0.00    +0.000 C 
ATOM     15  C   UNL     1       4.981   3.933  15.709  0.00  0.00    +0.000 C 
ATOM     16  C   UNL     1       5.850   4.218  14.484  0.00  0.00    +0.000 C 
ATOM     17  C   UNL     1       7.150   4.842  14.959  0.00  0.00    +0.000 C 
ATOM     18  C   UNL     1       6.828   5.295  16.352  0.00  0.00    +0.000 C 
ATOM     19  O   UNL     1       7.503   6.124  16.950  0.00  0.00    +0.000 OA
ENDBRANCH   3  14
TORSDOF 3
ENDMDL
MODEL 3
REMARK VINA RESULT:      -6.8      1.155      1.383
REMARK  Name = 
REMARK  4 active torsions:
REMARK  status: ('A' for Active; 'I' for Inactive)
REMARK    1  A    between atoms: C_1  and  O_2
REMARK    2  A    between atoms: O_2  and  C_3
REMARK    3  A    between atoms: C_6  and  C_7
REMARK    4  A    between atoms: N_9  and  C_10
REMARK                            x       y       z     vdW  Elec       q    Type
REMARK                         _______ _______ _______ _____ _____    ______ ____
ROOT
ATOM      1  C   UNL     1       2.835   6.629  19.169  0.00  0.00    +0.000 A 
ATOM      2  C   UNL     1       3.883   6.392  18.308  0.00  0.00    +0.000 A 
ATOM      3  N   UNL     1       4.280   5.121  18.604  0.00  0.00    +0.000 N 
ATOM      4  N   UNL     1       3.506   4.590  19.572  0.00  0.00    +0.000 NA
ATOM      5  N   UNL     1       2.620   5.507  19.926  0.00  0.00    +0.000 NA
ENDROOT
BRANCH   1   9
ATOM      6  C   UNL     1       0.537  10.217  19.396  0.00  0.00    +0.000 A 
ATOM      7  C   UNL     1       1.119   9.821  18.192  0.00  0.00    +0.000 A 
ATOM      8  C   UNL     1       1.847   8.629  18.114  0.00  0.00    +0.000 A 
ATOM      9  C   UNL     1       2.029   7.830  19.249  0.00  0.00    +0.000 A 
ATOM     10  C   UNL     1       1.441   8.233  20.456  0.00  0.00    +0.000 A 
ATOM     11  C   UNL     1       0.701   9.421  20.530  0.00  0.00    +0.000 A 
BRANCH   6  13
ATOM     12  C   UNL     1      -1.338  11.419  18.613  0.00  0.00    +0.000 C 
ATOM     13  O   UNL     1      -0.130  11.410  19.364  0.00  0.00    +0.000 OA
ENDBRANCH   6  13
ENDBRANCH   1   9
BRANCH   3  14
ATOM     14  C   UNL     1       5.279   4.288  17.980  0.00  0.00    +0.000 C 
ATOM     15  C   UNL     1       5.148   4.206  16.456  0.00  0.00    +0.000 C 
ATOM     16  C   UNL     1       6.532   4.429  15.846  0.00  0.00    +0.000 C 
ATOM     17  C   UNL     1       7.545   4.486  16.975  0.00  0.00    +0.000 C 
ATOM     18  C   UNL     1       6.699   4.733  18.188  0.00  0.00    +0.000 C 
ATOM     19  O   UNL     1       7.159   5.160  19.240  0.00  0.00    +0.000 OA
ENDBRANCH   3  14
TORSDOF 3
ENDMDL
MODEL 4
REMARK VINA RESULT:      -6.8      3.857      7.355
REMARK  Name = 
REMARK  4 active torsions:
REMARK  status: ('A' for Active; 'I' for Inactive)
REMARK    1  A    between atoms: C_1  and  O_2
REMARK    2  A    between atoms: O_2  and  C_3
REMARK    3  A    between atoms: C_6  and  C_7
REMARK    4  A    between atoms: N_9  and  C_10
REMARK                            x       y       z     vdW  Elec       q    Type
REMARK                         _______ _______ _______ _____ _____    ______ ____
ROOT
ATOM      1  C   UNL     1       5.442   4.376  17.451  0.00  0.00    +0.000 A 
ATOM      2  C   UNL     1       4.139   4.294  17.890  0.00  0.00    +0.000 A 
ATOM      3  N   UNL     1       4.241   4.326  19.250  0.00  0.00    +0.000 N 
ATOM      4  N   UNL     1       5.527   4.449  19.632  0.00  0.00    +0.000 NA
ATOM      5  N   UNL     1       6.271   4.477  18.538  0.00  0.00    +0.000 NA
ENDROOT
BRANCH   1   9
ATOM      6  C   UNL     1       6.802   4.396  13.407  0.00  0.00    +0.000 A 
ATOM      7  C   UNL     1       5.621   3.742  13.756  0.00  0.00    +0.000 A 
ATOM      8  C   UNL     1       5.162   3.762  15.078  0.00  0.00    +0.000 A 
ATOM      9  C   UNL     1       5.897   4.413  16.076  0.00  0.00    +0.000 A 
ATOM     10  C   UNL     1       7.082   5.070  15.718  0.00  0.00    +0.000 A 
ATOM     11  C   UNL     1       7.534   5.059  14.392  0.00  0.00    +0.000 A 
BRANCH   6  13
ATOM     12  C   UNL     1       6.980   3.009  11.505  0.00  0.00    +0.000 C 
ATOM     13  O   UNL     1       7.169   4.291  12.094  0.00  0.00    +0.000 OA
ENDBRANCH   6  13
ENDBRANCH   1   9
BRANCH   3  14
ATOM     14  C   UNL     1       3.211   4.357  20.260  0.00  0.00    +0.000 C 
ATOM     15  C   UNL     1       1.840   4.788  19.729  0.00  0.00    +0.000 C 
ATOM     16  C   UNL     1       0.794   3.805  20.256  0.00  0.00    +0.000 C 
ATOM     17  C   UNL     1       1.475   2.867  21.236  0.00  0.00    +0.000 C 
ATOM     18  C   UNL     1       2.932   3.040  20.925  0.00  0.00    +0.000 C 
ATOM     19  O   UNL     1       3.783   2.229  21.270  0.00  0.00    +0.000 OA
ENDBRANCH   3  14
TORSDOF 3
ENDMDL
MODEL 5
REMARK VINA RESULT:      -6.8      1.142      1.746
REMARK  Name = 
REMARK  4 active torsions:
REMARK  status: ('A' for Active; 'I' for Inactive)
REMARK    1  A    between atoms: C_1  and  O_2
REMARK    2  A    between atoms: O_2  and  C_3
REMARK    3  A    between atoms: C_6  and  C_7
REMARK    4  A    between atoms: N_9  and  C_10
REMARK                            x       y       z     vdW  Elec       q    Type
REMARK                         _______ _______ _______ _____ _____    ______ ____
ROOT
ATOM      1  C   UNL     1       2.780   6.711  19.131  0.00  0.00    +0.000 A 
ATOM      2  C   UNL     1       3.746   6.442  18.187  0.00  0.00    +0.000 A 
ATOM      3  N   UNL     1       4.165   5.179  18.488  0.00  0.00    +0.000 N 
ATOM      4  N   UNL     1       3.479   4.683  19.538  0.00  0.00    +0.000 NA
ATOM      5  N   UNL     1       2.631   5.616  19.940  0.00  0.00    +0.000 NA
ENDROOT
BRANCH   1   9
ATOM      6  C   UNL     1       0.370  10.215  19.475  0.00  0.00    +0.000 A 
ATOM      7  C   UNL     1       0.612   9.409  20.586  0.00  0.00    +0.000 A 
ATOM      8  C   UNL     1       1.427   8.277  20.477  0.00  0.00    +0.000 A 
ATOM      9  C   UNL     1       1.987   7.919  19.244  0.00  0.00    +0.000 A 
ATOM     10  C   UNL     1       1.740   8.735  18.132  0.00  0.00    +0.000 A 
ATOM     11  C   UNL     1       0.935   9.875  18.246  0.00  0.00    +0.000 A 
BRANCH   6  13
ATOM     12  C   UNL     1      -1.725  11.215  19.040  0.00  0.00    +0.000 C 
ATOM     13  O   UNL     1      -0.460  11.281  19.690  0.00  0.00    +0.000 OA
ENDBRANCH   6  13
ENDBRANCH   1   9
BRANCH   3  14
ATOM     14  C   UNL     1       5.102   4.321  17.804  0.00  0.00    +0.000 C 
ATOM     15  C   UNL     1       4.978   4.366  16.278  0.00  0.00    +0.000 C 
ATOM     16  C   UNL     1       6.380   4.527  15.690  0.00  0.00    +0.000 C 
ATOM     17  C   UNL     1       7.385   4.419  16.823  0.00  0.00    +0.000 C 
ATOM     18  C   UNL     1       6.549   4.637  18.049  0.00  0.00    +0.000 C 
ATOM     19  O   UNL     1       7.032   4.944  19.133  0.00  0.00    +0.000 OA
ENDBRANCH   3  14
TORSDOF 3
ENDMDL
MODEL 6
REMARK VINA RESULT:      -6.7      1.348      1.542
REMARK  Name = 
REMARK  4 active torsions:
REMARK  status: ('A' for Active; 'I' for Inactive)
REMARK    1  A    between atoms: C_1  and  O_2
REMARK    2  A    between atoms: O_2  and  C_3
REMARK    3  A    between atoms: C_6  and  C_7
REMARK    4  A    between atoms: N_9  and  C_10
REMARK                            x       y       z     vdW  Elec       q    Type
REMARK                         _______ _______ _______ _____ _____    ______ ____
ROOT
ATOM      1  C   UNL     1       2.714   6.593  18.548  0.00  0.00    +0.000 A 
ATOM      2  C   UNL     1       3.919   6.458  17.895  0.00  0.00    +0.000 A 
ATOM      3  N   UNL     1       4.086   5.109  17.775  0.00  0.00    +0.000 N 
ATOM      4  N   UNL     1       3.033   4.448  18.297  0.00  0.00    +0.000 NA
ATOM      5  N   UNL     1       2.190   5.348  18.775  0.00  0.00    +0.000 NA
ENDROOT
BRANCH   1   9
ATOM      6  C   UNL     1       0.836  10.284  19.574  0.00  0.00    +0.000 A 
ATOM      7  C   UNL     1       1.277  10.050  18.272  0.00  0.00    +0.000 A 
ATOM      8  C   UNL     1       1.865   8.827  17.932  0.00  0.00    +0.000 A 
ATOM      9  C   UNL     1       2.049   7.832  18.899  0.00  0.00    +0.000 A 
ATOM     10  C   UNL     1       1.603   8.074  20.206  0.00  0.00    +0.000 A 
ATOM     11  C   UNL     1       1.002   9.294  20.542  0.00  0.00    +0.000 A 
BRANCH   6  13
ATOM     12  C   UNL     1       1.025  12.350  20.702  0.00  0.00    +0.000 C 
ATOM     13  O   UNL     1       0.299  11.522  19.801  0.00  0.00    +0.000 OA
ENDBRANCH   6  13
ENDBRANCH   1   9
BRANCH   3  14
ATOM     14  C   UNL     1       5.118   4.354  17.107  0.00  0.00    +0.000 C 
ATOM     15  C   UNL     1       5.299   4.729  15.632  0.00  0.00    +0.000 C 
ATOM     16  C   UNL     1       6.793   4.916  15.368  0.00  0.00    +0.000 C 
ATOM     17  C   UNL     1       7.551   4.503  16.617  0.00  0.00    +0.000 C 
ATOM     18  C   UNL     1       6.496   4.513  17.682  0.00  0.00    +0.000 C 
ATOM     19  O   UNL     1       6.763   4.552  18.877  0.00  0.00    +0.000 OA
ENDBRANCH   3  14
TORSDOF 3
ENDMDL
MODEL 7
REMARK VINA RESULT:      -6.7      3.884      7.287
REMARK  Name = 
REMARK  4 active torsions:
REMARK  status: ('A' for Active; 'I' for Inactive)
REMARK    1  A    between atoms: C_1  and  O_2
REMARK    2  A    between atoms: O_2  and  C_3
REMARK    3  A    between atoms: C_6  and  C_7
REMARK    4  A    between atoms: N_9  and  C_10
REMARK                            x       y       z     vdW  Elec       q    Type
REMARK                         _______ _______ _______ _____ _____    ______ ____
ROOT
ATOM      1  C   UNL     1       5.373   4.412  17.770  0.00  0.00    +0.000 A 
ATOM      2  C   UNL     1       4.071   4.215  18.176  0.00  0.00    +0.000 A 
ATOM      3  N   UNL     1       4.125   4.317  19.535  0.00  0.00    +0.000 N 
ATOM      4  N   UNL     1       5.379   4.588  19.947  0.00  0.00    +0.000 NA
ATOM      5  N   UNL     1       6.151   4.645  18.873  0.00  0.00    +0.000 NA
ENDROOT
BRANCH   1   9
ATOM      6  C   UNL     1       6.815   4.574  13.758  0.00  0.00    +0.000 A 
ATOM      7  C   UNL     1       7.596   5.044  14.813  0.00  0.00    +0.000 A 
ATOM      8  C   UNL     1       7.133   4.962  16.131  0.00  0.00    +0.000 A 
ATOM      9  C   UNL     1       5.866   4.436  16.408  0.00  0.00    +0.000 A 
ATOM     10  C   UNL     1       5.086   3.965  15.343  0.00  0.00    +0.000 A 
ATOM     11  C   UNL     1       5.556   4.036  14.026  0.00  0.00    +0.000 A 
BRANCH   6  13
ATOM     12  C   UNL     1       7.079   3.677  11.590  0.00  0.00    +0.000 C 
ATOM     13  O   UNL     1       7.355   4.727  12.511  0.00  0.00    +0.000 OA
ENDBRANCH   6  13
ENDBRANCH   1   9
BRANCH   3  14
ATOM     14  C   UNL     1       3.065   4.286  20.514  0.00  0.00    +0.000 C 
ATOM     15  C   UNL     1       1.697   4.688  19.954  0.00  0.00    +0.000 C 
ATOM     16  C   UNL     1       0.669   3.657  20.419  0.00  0.00    +0.000 C 
ATOM     17  C   UNL     1       1.351   2.713  21.393  0.00  0.00    +0.000 C 
ATOM     18  C   UNL     1       2.810   2.941  21.132  0.00  0.00    +0.000 C 
ATOM     19  O   UNL     1       3.676   2.147  21.480  0.00  0.00    +0.000 OA
ENDBRANCH   3  14
TORSDOF 3
ENDMDL
MODEL 8
REMARK VINA RESULT:      -6.7      2.665      3.360
REMARK  Name = 
REMARK  4 active torsions:
REMARK  status: ('A' for Active; 'I' for Inactive)
REMARK    1  A    between atoms: C_1  and  O_2
REMARK    2  A    between atoms: O_2  and  C_3
REMARK    3  A    between atoms: C_6  and  C_7
REMARK    4  A    between atoms: N_9  and  C_10
REMARK                            x       y       z     vdW  Elec       q    Type
REMARK                         _______ _______ _______ _____ _____    ______ ____
ROOT
ATOM      1  C   UNL     1       2.463   7.258  18.931  0.00  0.00    +0.000 A 
ATOM      2  C   UNL     1       2.580   5.913  19.202  0.00  0.00    +0.000 A 
ATOM      3  N   UNL     1       3.452   5.456  18.258  0.00  0.00    +0.000 N 
ATOM      4  N   UNL     1       3.874   6.462  17.466  0.00  0.00    +0.000 NA
ATOM      5  N   UNL     1       3.270   7.569  17.869  0.00  0.00    +0.000 NA
ENDROOT
BRANCH   1   9
ATOM      6  C   UNL     1       0.209  10.172  21.084  0.00  0.00    +0.000 A 
ATOM      7  C   UNL     1       0.511  10.362  19.736  0.00  0.00    +0.000 A 
ATOM      8  C   UNL     1       1.224   9.391  19.025  0.00  0.00    +0.000 A 
ATOM      9  C   UNL     1       1.673   8.228  19.663  0.00  0.00    +0.000 A 
ATOM     10  C   UNL     1       1.365   8.043  21.018  0.00  0.00    +0.000 A 
ATOM     11  C   UNL     1       0.640   9.010  21.725  0.00  0.00    +0.000 A 
BRANCH   6  13
ATOM     12  C   UNL     1      -1.019  10.898  22.966  0.00  0.00    +0.000 C 
ATOM     13  O   UNL     1      -0.470  11.195  21.687  0.00  0.00    +0.000 OA
ENDBRANCH   6  13
ENDBRANCH   1   9
BRANCH   3  14
ATOM     14  C   UNL     1       4.031   4.146  18.082  0.00  0.00    +0.000 C 
ATOM     15  C   UNL     1       4.679   3.582  19.350  0.00  0.00    +0.000 C 
ATOM     16  C   UNL     1       4.199   2.142  19.531  0.00  0.00    +0.000 C 
ATOM     17  C   UNL     1       3.392   1.753  18.305  0.00  0.00    +0.000 C 
ATOM     18  C   UNL     1       3.061   3.073  17.675  0.00  0.00    +0.000 C 
ATOM     19  O   UNL     1       2.160   3.207  16.856  0.00  0.00    +0.000 OA
ENDBRANCH   3  14
TORSDOF 3
ENDMDL
MODEL 9
REMARK VINA RESULT:      -6.7      1.830      2.295
REMARK  Name = 
REMARK  4 active torsions:
REMARK  status: ('A' for Active; 'I' for Inactive)
REMARK    1  A    between atoms: C_1  and  O_2
REMARK    2  A    between atoms: O_2  and  C_3
REMARK    3  A    between atoms: C_6  and  C_7
REMARK    4  A    between atoms: N_9  and  C_10
REMARK                            x       y       z     vdW  Elec       q    Type
REMARK                         _______ _______ _______ _____ _____    ______ ____
ROOT
ATOM      1  C   UNL     1       2.771   7.436  18.726  0.00  0.00    +0.000 A 
ATOM      2  C   UNL     1       3.324   6.216  19.045  0.00  0.00    +0.000 A 
ATOM      3  N   UNL     1       4.189   5.962  18.020  0.00  0.00    +0.000 N 
ATOM      4  N   UNL     1       4.193   6.977  17.133  0.00  0.00    +0.000 NA
ATOM      5  N   UNL     1       3.326   7.883  17.555  0.00  0.00    +0.000 NA
ENDROOT
BRANCH   1   9
ATOM      6  C   UNL     1      -0.013   9.707  21.027  0.00  0.00    +0.000 A 
ATOM      7  C   UNL     1       0.300  10.081  19.721  0.00  0.00    +0.000 A 
ATOM      8  C   UNL     1       1.191   9.317  18.959  0.00  0.00    +0.000 A 
ATOM      9  C   UNL     1       1.805   8.184  19.505  0.00  0.00    +0.000 A 
ATOM     10  C   UNL     1       1.485   7.813  20.818  0.00  0.00    +0.000 A 
ATOM     11  C   UNL     1       0.583   8.571  21.576  0.00  0.00    +0.000 A 
BRANCH   6  13
ATOM     12  C   UNL     1      -0.866  10.430  23.107  0.00  0.00    +0.000 C 
ATOM     13  O   UNL     1      -0.875  10.538  21.689  0.00  0.00    +0.000 OA
ENDBRANCH   6  13
ENDBRANCH   1   9
BRANCH   3  14
ATOM     14  C   UNL     1       5.119   4.875  17.835  0.00  0.00    +0.000 C 
ATOM     15  C   UNL     1       5.517   4.647  16.373  0.00  0.00    +0.000 C 
ATOM     16  C   UNL     1       7.038   4.508  16.309  0.00  0.00    +0.000 C 
ATOM     17  C   UNL     1       7.573   4.484  17.730  0.00  0.00    +0.000 C 
ATOM     18  C   UNL     1       6.436   5.038  18.537  0.00  0.00    +0.000 C 
ATOM     19  O   UNL     1       6.583   5.478  19.671  0.00  0.00    +0.000 OA
ENDBRANCH   3  14
TORSDOF 3
ENDMDL
