MODEL 1
REMARK VINA RESULT:      -7.2      0.000      0.000
REMARK  Name = 
REMARK  4 active torsions:
REMARK  status: ('A' for Active; 'I' for Inactive)
REMARK    1  A    between atoms: C_1  and  O_2
REMARK    2  A    between atoms: O_2  and  C_3
REMARK    3  A    between atoms: C_9  and  N_10
REMARK    4  A    between atoms: C_11  and  C_13
REMARK                            x       y       z     vdW  Elec       q    Type
REMARK                         _______ _______ _______ _____ _____    ______ ____
ROOT
ATOM      1  N   UNL     1       2.659   6.875  19.041  0.00  0.00    +0.000 N 
ATOM      2  C   UNL     1       2.153   8.106  18.631  0.00  0.00    +0.000 C 
ATOM      3  O   UNL     1       2.247   8.579  17.506  0.00  0.00    +0.000 OA
ATOM      4  H   UNL     1       2.417   6.582  19.984  0.00  0.00    +0.000 HD
ENDROOT
BRANCH   2   5
ATOM      5  C   UNL     1       1.422   8.831  19.674  0.00  0.00    +0.000 A 
ATOM      6  C   UNL     1       0.781  10.045  19.492  0.00  0.00    +0.000 A 
ATOM      7  N   UNL     1       0.200  10.326  20.688  0.00  0.00    +0.000 N 
ATOM      8  C   UNL     1       0.518   9.325  21.567  0.00  0.00    +0.000 A 
ATOM      9  N   UNL     1       1.248   8.394  20.979  0.00  0.00    +0.000 NA
ATOM     10  C   UNL     1      -0.001   9.360  22.962  0.00  0.00    +0.000 C 
ATOM     11  O   UNL     1      -0.267  10.726  23.334  0.00  0.00    +0.000 OA
ATOM     12  C   UNL     1      -1.189  11.350  22.434  0.00  0.00    +0.000 C 
ATOM     13  C   UNL     1      -0.592  11.486  21.037  0.00  0.00    +0.000 C 
ENDBRANCH   2   5
BRANCH   1  20
ATOM     14  C   UNL     1       2.782   4.702  17.904  0.00  0.00    +0.000 A 
ATOM     15  C   UNL     1       3.459   3.821  17.042  0.00  0.00    +0.000 A 
ATOM     16  C   UNL     1       4.724   4.139  16.545  0.00  0.00    +0.000 A 
ATOM     17  C   UNL     1       5.319   5.336  16.908  0.00  0.00    +0.000 A 
ATOM     18 CL   UNL     1       6.894   5.716  16.325  0.00  0.00    +0.000 Cl
ATOM     19  C   UNL     1       4.655   6.228  17.744  0.00  0.00    +0.000 A 
ATOM     20  C   UNL     1       3.372   5.946  18.232  0.00  0.00    +0.000 A 
BRANCH  14  22
ATOM     21  C   UNL     1       1.220   3.038  18.579  0.00  0.00    +0.000 C 
ATOM     22  O   UNL     1       1.544   4.424  18.434  0.00  0.00    +0.000 OA
ENDBRANCH  14  22
ENDBRANCH   1  20
TORSDOF 3
ENDMDL
MODEL 2
REMARK VINA RESULT:      -6.8      0.742      1.317
REMARK  Name = 
REMARK  4 active torsions:
REMARK  status: ('A' for Active; 'I' for Inactive)
REMARK    1  A    between atoms: C_1  and  O_2
REMARK    2  A    between atoms: O_2  and  C_3
REMARK    3  A    between atoms: C_9  and  N_10
REMARK    4  A    between atoms: C_11  and  C_13
REMARK                            x       y       z     vdW  Elec       q    Type
REMARK                         _______ _______ _______ _____ _____    ______ ____
ROOT
ATOM      1  N   UNL     1       2.628   6.881  18.918  0.00  0.00    +0.000 N 
ATOM      2  C   UNL     1       2.193   8.134  18.494  0.00  0.00    +0.000 C 
ATOM      3  O   UNL     1       2.397   8.627  17.392  0.00  0.00    +0.000 OA
ATOM      4  H   UNL     1       2.297   6.576  19.830  0.00  0.00    +0.000 HD
ENDROOT
BRANCH   2   5
ATOM      5  C   UNL     1       1.394   8.859  19.485  0.00  0.00    +0.000 A 
ATOM      6  C   UNL     1       1.135   8.415  20.771  0.00  0.00    +0.000 A 
ATOM      7  N   UNL     1       0.409   9.405  21.353  0.00  0.00    +0.000 N 
ATOM      8  C   UNL     1       0.209  10.394  20.427  0.00  0.00    +0.000 A 
ATOM      9  N   UNL     1       0.807  10.101  19.286  0.00  0.00    +0.000 NA
ATOM     10  C   UNL     1      -0.547  11.623  20.795  0.00  0.00    +0.000 C 
ATOM     11  O   UNL     1      -1.446  11.319  21.878  0.00  0.00    +0.000 OA
ATOM     12  C   UNL     1      -0.748  10.794  23.013  0.00  0.00    +0.000 C 
ATOM     13  C   UNL     1      -0.121   9.440  22.700  0.00  0.00    +0.000 C 
ENDBRANCH   2   5
BRANCH   1  20
ATOM     14  C   UNL     1       2.825   4.687  17.833  0.00  0.00    +0.000 A 
ATOM     15  C   UNL     1       3.546   3.800  17.013  0.00  0.00    +0.000 A 
ATOM     16  C   UNL     1       4.820   4.130  16.549  0.00  0.00    +0.000 A 
ATOM     17  C   UNL     1       5.382   5.346  16.904  0.00  0.00    +0.000 A 
ATOM     18 CL   UNL     1       6.967   5.742  16.364  0.00  0.00    +0.000 Cl
ATOM     19  C   UNL     1       4.675   6.244  17.699  0.00  0.00    +0.000 A 
ATOM     20  C   UNL     1       3.383   5.948  18.152  0.00  0.00    +0.000 A 
BRANCH  14  22
ATOM     21  C   UNL     1       1.303   3.015  18.576  0.00  0.00    +0.000 C 
ATOM     22  O   UNL     1       1.576   4.397  18.330  0.00  0.00    +0.000 OA
ENDBRANCH  14  22
ENDBRANCH   1  20
TORSDOF 3
ENDMDL
MODEL 3
REMARK VINA RESULT:      -6.8      2.227      3.403
REMARK  Name = 
REMARK  4 active torsions:
REMARK  status: ('A' for Active; 'I' for Inactive)
REMARK    1  A    between atoms: C_1  and  O_2
REMARK    2  A    between atoms: O_2  and  C_3
REMARK    3  A    between atoms: C_9  and  N_10
REMARK    4  A    between atoms: C_11  and  C_13
REMARK                            x       y       z     vdW  Elec       q    Type
REMARK                         _______ _______ _______ _____ _____    ______ ____
ROOT
ATOM      1  N   UNL     1       4.318   6.766  17.470  0.00  0.00    +0.000 N 
ATOM      2  C   UNL     1       3.106   6.391  18.044  0.00  0.00    +0.000 C 
ATOM      3  O   UNL     1       2.665   5.251  18.104  0.00  0.00    +0.000 OA
ATOM      4  H   UNL     1       4.586   7.740  17.583  0.00  0.00    +0.000 HD
ENDROOT
BRANCH   2   5
ATOM      5  C   UNL     1       2.360   7.500  18.646  0.00  0.00    +0.000 A 
ATOM      6  C   UNL     1       1.991   7.575  19.978  0.00  0.00    +0.000 A 
ATOM      7  N   UNL     1       1.368   8.775  20.111  0.00  0.00    +0.000 N 
ATOM      8  C   UNL     1       1.333   9.380  18.883  0.00  0.00    +0.000 A 
ATOM      9  N   UNL     1       1.940   8.639  17.973  0.00  0.00    +0.000 NA
ATOM     10  C   UNL     1       0.719  10.728  18.729  0.00  0.00    +0.000 C 
ATOM     11  O   UNL     1      -0.257  10.925  19.769  0.00  0.00    +0.000 OA
ATOM     12  C   UNL     1       0.319  10.776  21.071  0.00  0.00    +0.000 C 
ATOM     13  C   UNL     1       0.788   9.344  21.309  0.00  0.00    +0.000 C 
ENDBRANCH   2   5
BRANCH   1  20
ATOM     14  C   UNL     1       6.410   5.484  17.569  0.00  0.00    +0.000 A 
ATOM     15  C   UNL     1       7.298   4.565  16.982  0.00  0.00    +0.000 A 
ATOM     16  C   UNL     1       7.085   4.092  15.687  0.00  0.00    +0.000 A 
ATOM     17  C   UNL     1       5.985   4.536  14.970  0.00  0.00    +0.000 A 
ATOM     18 CL   UNL     1       5.737   3.983  13.360  0.00  0.00    +0.000 Cl
ATOM     19  C   UNL     1       5.085   5.430  15.543  0.00  0.00    +0.000 A 
ATOM     20  C   UNL     1       5.261   5.896  16.853  0.00  0.00    +0.000 A 
BRANCH  14  22
ATOM     21  C   UNL     1       7.870   5.761  19.428  0.00  0.00    +0.000 C 
ATOM     22  O   UNL     1       6.589   5.993  18.834  0.00  0.00    +0.000 OA
ENDBRANCH  14  22
ENDBRANCH   1  20
TORSDOF 3
ENDMDL
MODEL 4
REMARK VINA RESULT:      -6.8      2.109      3.101
REMARK  Name = 
REMARK  4 active torsions:
REMARK  status: ('A' for Active; 'I' for Inactive)
REMARK    1  A    between atoms: C_1  and  O_2
REMARK    2  A    between atoms: O_2  and  C_3
REMARK    3  A    between atoms: C_9  and  N_10
REMARK    4  A    between atoms: C_11  and  C_13
REMARK                            x       y       z     vdW  Elec       q    Type
REMARK                         _______ _______ _______ _____ _____    ______ ____
ROOT
ATOM      1  N   UNL     1       4.291   6.773  17.516  0.00  0.00    +0.000 N 
ATOM      2  C   UNL     1       3.101   6.410  18.143  0.00  0.00    +0.000 C 
ATOM      3  O   UNL     1       2.660   5.272  18.235  0.00  0.00    +0.000 OA
ATOM      4  H   UNL     1       4.566   7.748  17.606  0.00  0.00    +0.000 HD
ENDROOT
BRANCH   2   5
ATOM      5  C   UNL     1       2.381   7.529  18.757  0.00  0.00    +0.000 A 
ATOM      6  C   UNL     1       1.998   8.683  18.094  0.00  0.00    +0.000 A 
ATOM      7  N   UNL     1       1.324   9.419  19.016  0.00  0.00    +0.000 N 
ATOM      8  C   UNL     1       1.339   8.739  20.205  0.00  0.00    +0.000 A 
ATOM      9  N   UNL     1       1.960   7.580  20.078  0.00  0.00    +0.000 NA
ATOM     10  C   UNL     1       0.655   9.305  21.400  0.00  0.00    +0.000 C 
ATOM     11  O   UNL     1       0.592  10.738  21.276  0.00  0.00    +0.000 OA
ATOM     12  C   UNL     1      -0.076  11.135  20.073  0.00  0.00    +0.000 C 
ATOM     13  C   UNL     1       0.714  10.719  18.837  0.00  0.00    +0.000 C 
ENDBRANCH   2   5
BRANCH   1  20
ATOM     14  C   UNL     1       6.325   5.399  17.592  0.00  0.00    +0.000 A 
ATOM     15  C   UNL     1       7.184   4.470  16.978  0.00  0.00    +0.000 A 
ATOM     16  C   UNL     1       6.975   4.066  15.659  0.00  0.00    +0.000 A 
ATOM     17  C   UNL     1       5.908   4.588  14.946  0.00  0.00    +0.000 A 
ATOM     18 CL   UNL     1       5.667   4.119  13.307  0.00  0.00    +0.000 Cl
ATOM     19  C   UNL     1       5.036   5.494  15.544  0.00  0.00    +0.000 A 
ATOM     20  C   UNL     1       5.208   5.892  16.876  0.00  0.00    +0.000 A 
BRANCH  14  22
ATOM     21  C   UNL     1       7.844   5.810  19.377  0.00  0.00    +0.000 C 
ATOM     22  O   UNL     1       6.502   5.842  18.881  0.00  0.00    +0.000 OA
ENDBRANCH  14  22
ENDBRANCH   1  20
TORSDOF 3
ENDMDL
MODEL 5
REMARK VINA RESULT:      -6.6      1.294      1.472
REMARK  Name = 
REMARK  4 active torsions:
REMARK  status: ('A' for Active; 'I' for Inactive)
REMARK    1  A    between atoms: C_1  and  O_2
REMARK    2  A    between atoms: O_2  and  C_3
REMARK    3  A    between atoms: C_9  and  N_10
REMARK    4  A    between atoms: C_11  and  C_13
REMARK                            x       y       z     vdW  Elec       q    Type
REMARK                         _______ _______ _______ _____ _____    ______ ____
ROOT
ATOM      1  N   UNL     1       2.093   6.192  19.735  0.00  0.00    +0.000 N 
ATOM      2  C   UNL     1       2.152   7.512  19.294  0.00  0.00    +0.000 C 
ATOM      3  O   UNL     1       2.723   7.904  18.285  0.00  0.00    +0.000 OA
ATOM      4  H   UNL     1       1.500   6.015  20.542  0.00  0.00    +0.000 HD
ENDROOT
BRANCH   2   5
ATOM      5  C   UNL     1       1.415   8.459  20.135  0.00  0.00    +0.000 A 
ATOM      6  C   UNL     1       0.911   9.675  19.704  0.00  0.00    +0.000 A 
ATOM      7  N   UNL     1       0.267  10.197  20.780  0.00  0.00    +0.000 N 
ATOM      8  C   UNL     1       0.416   9.334  21.833  0.00  0.00    +0.000 A 
ATOM      9  N   UNL     1       1.095   8.261  21.471  0.00  0.00    +0.000 NA
ATOM     10  C   UNL     1      -0.207   9.644  23.150  0.00  0.00    +0.000 C 
ATOM     11  O   UNL     1      -0.367  11.069  23.274  0.00  0.00    +0.000 OA
ATOM     12  C   UNL     1      -1.150  11.609  22.203  0.00  0.00    +0.000 C 
ATOM     13  C   UNL     1      -0.435  11.461  20.865  0.00  0.00    +0.000 C 
ENDBRANCH   2   5
BRANCH   1  20
ATOM     14  C   UNL     1       2.378   3.760  19.555  0.00  0.00    +0.000 A 
ATOM     15  C   UNL     1       2.901   2.648  18.871  0.00  0.00    +0.000 A 
ATOM     16  C   UNL     1       3.749   2.815  17.777  0.00  0.00    +0.000 A 
ATOM     17  C   UNL     1       4.082   4.094  17.360  0.00  0.00    +0.000 A 
ATOM     18 CL   UNL     1       5.156   4.306  16.032  0.00  0.00    +0.000 Cl
ATOM     19  C   UNL     1       3.558   5.207  18.013  0.00  0.00    +0.000 A 
ATOM     20  C   UNL     1       2.680   5.065  19.095  0.00  0.00    +0.000 A 
BRANCH  14  22
ATOM     21  C   UNL     1       1.867   2.588  21.562  0.00  0.00    +0.000 C 
ATOM     22  O   UNL     1       1.554   3.645  20.650  0.00  0.00    +0.000 OA
ENDBRANCH  14  22
ENDBRANCH   1  20
TORSDOF 3
ENDMDL
MODEL 6
REMARK VINA RESULT:      -6.6      1.376      1.741
REMARK  Name = 
REMARK  4 active torsions:
REMARK  status: ('A' for Active; 'I' for Inactive)
REMARK    1  A    between atoms: C_1  and  O_2
REMARK    2  A    between atoms: O_2  and  C_3
REMARK    3  A    between atoms: C_9  and  N_10
REMARK    4  A    between atoms: C_11  and  C_13
REMARK                            x       y       z     vdW  Elec       q    Type
REMARK                         _______ _______ _______ _____ _____    ______ ____
ROOT
ATOM      1  N   UNL     1       2.484   6.508  19.928  0.00  0.00    +0.000 N 
ATOM      2  C   UNL     1       2.216   7.726  19.307  0.00  0.00    +0.000 C 
ATOM      3  O   UNL     1       2.600   8.060  18.193  0.00  0.00    +0.000 OA
ATOM      4  H   UNL     1       2.015   6.345  20.816  0.00  0.00    +0.000 HD
ENDROOT
BRANCH   2   5
ATOM      5  C   UNL     1       1.365   8.625  20.090  0.00  0.00    +0.000 A 
ATOM      6  C   UNL     1       0.951   8.389  21.391  0.00  0.00    +0.000 A 
ATOM      7  N   UNL     1       0.230   9.485  21.741  0.00  0.00    +0.000 N 
ATOM      8  C   UNL     1       0.183  10.333  20.666  0.00  0.00    +0.000 A 
ATOM      9  N   UNL     1       0.876   9.847  19.652  0.00  0.00    +0.000 NA
ATOM     10  C   UNL     1      -0.532  11.635  20.768  0.00  0.00    +0.000 C 
ATOM     11  O   UNL     1      -1.553  11.536  21.779  0.00  0.00    +0.000 OA
ATOM     12  C   UNL     1      -1.006  11.157  23.048  0.00  0.00    +0.000 C 
ATOM     13  C   UNL     1      -0.432   9.745  23.003  0.00  0.00    +0.000 C 
ENDBRANCH   2   5
BRANCH   1  20
ATOM     14  C   UNL     1       2.627   4.184  19.150  0.00  0.00    +0.000 A 
ATOM     15  C   UNL     1       3.365   3.152  18.543  0.00  0.00    +0.000 A 
ATOM     16  C   UNL     1       4.708   3.332  18.213  0.00  0.00    +0.000 A 
ATOM     17  C   UNL     1       5.323   4.542  18.490  0.00  0.00    +0.000 A 
ATOM     18 CL   UNL     1       6.989   4.757  18.117  0.00  0.00    +0.000 Cl
ATOM     19  C   UNL     1       4.603   5.581  19.072  0.00  0.00    +0.000 A 
ATOM     20  C   UNL     1       3.245   5.435  19.385  0.00  0.00    +0.000 A 
BRANCH  14  22
ATOM     21  C   UNL     1       1.043   3.153  20.596  0.00  0.00    +0.000 C 
ATOM     22  O   UNL     1       1.307   4.046  19.510  0.00  0.00    +0.000 OA
ENDBRANCH  14  22
ENDBRANCH   1  20
TORSDOF 3
ENDMDL
MODEL 7
REMARK VINA RESULT:      -6.5      1.172      1.266
REMARK  Name = 
REMARK  4 active torsions:
REMARK  status: ('A' for Active; 'I' for Inactive)
REMARK    1  A    between atoms: C_1  and  O_2
REMARK    2  A    between atoms: O_2  and  C_3
REMARK    3  A    between atoms: C_9  and  N_10
REMARK    4  A    between atoms: C_11  and  C_13
REMARK                            x       y       z     vdW  Elec       q    Type
REMARK                         _______ _______ _______ _____ _____    ______ ____
ROOT
ATOM      1  N   UNL     1       2.189   7.579  19.444  0.00  0.00    +0.000 N 
ATOM      2  C   UNL     1       1.550   8.673  18.864  0.00  0.00    +0.000 C 
ATOM      3  O   UNL     1       1.424   8.874  17.664  0.00  0.00    +0.000 OA
ATOM      4  H   UNL     1       2.128   7.509  20.456  0.00  0.00    +0.000 HD
ENDROOT
BRANCH   2   5
ATOM      5  C   UNL     1       0.968   9.608  19.830  0.00  0.00    +0.000 A 
ATOM      6  C   UNL     1       1.008  10.988  19.720  0.00  0.00    +0.000 A 
ATOM      7  N   UNL     1       0.315  11.454  20.791  0.00  0.00    +0.000 N 
ATOM      8  C   UNL     1      -0.093  10.382  21.540  0.00  0.00    +0.000 A 
ATOM      9  N   UNL     1       0.274   9.246  20.976  0.00  0.00    +0.000 NA
ATOM     10  C   UNL     1      -0.896  10.594  22.776  0.00  0.00    +0.000 C 
ATOM     11  O   UNL     1      -0.616  11.904  23.303  0.00  0.00    +0.000 OA
ATOM     12  C   UNL     1      -0.885  12.930  22.342  0.00  0.00    +0.000 C 
ATOM     13  C   UNL     1       0.060  12.833  21.149  0.00  0.00    +0.000 C 
ENDBRANCH   2   5
BRANCH   1  20
ATOM     14  C   UNL     1       2.434   5.168  19.053  0.00  0.00    +0.000 A 
ATOM     15  C   UNL     1       2.991   4.110  18.311  0.00  0.00    +0.000 A 
ATOM     16  C   UNL     1       3.936   4.355  17.315  0.00  0.00    +0.000 A 
ATOM     17  C   UNL     1       4.332   5.657  17.055  0.00  0.00    +0.000 A 
ATOM     18 CL   UNL     1       5.524   5.961  15.851  0.00  0.00    +0.000 Cl
ATOM     19  C   UNL     1       3.778   6.717  17.766  0.00  0.00    +0.000 A 
ATOM     20  C   UNL     1       2.805   6.500  18.750  0.00  0.00    +0.000 A 
BRANCH  14  22
ATOM     21  C   UNL     1       1.122   3.619  20.295  0.00  0.00    +0.000 C 
ATOM     22  O   UNL     1       1.515   4.974  20.057  0.00  0.00    +0.000 OA
ENDBRANCH  14  22
ENDBRANCH   1  20
TORSDOF 3
ENDMDL
MODEL 8
REMARK VINA RESULT:      -6.4      1.226      1.349
REMARK  Name = 
REMARK  4 active torsions:
REMARK  status: ('A' for Active; 'I' for Inactive)
REMARK    1  A    between atoms: C_1  and  O_2
REMARK    2  A    between atoms: O_2  and  C_3
REMARK    3  A    between atoms: C_9  and  N_10
REMARK    4  A    between atoms: C_11  and  C_13
REMARK                            x       y       z     vdW  Elec       q    Type
REMARK                         _______ _______ _______ _____ _____    ______ ____
ROOT
ATOM      1  N   UNL     1       2.837   6.748  18.786  0.00  0.00    +0.000 N 
ATOM      2  C   UNL     1       2.238   6.698  20.042  0.00  0.00    +0.000 C 
ATOM      3  O   UNL     1       2.267   5.746  20.811  0.00  0.00    +0.000 OA
ATOM      4  H   UNL     1       2.801   7.644  18.307  0.00  0.00    +0.000 HD
ENDROOT
BRANCH   2   5
ATOM      5  C   UNL     1       1.562   7.937  20.434  0.00  0.00    +0.000 A 
ATOM      6  C   UNL     1       1.335   9.015  19.595  0.00  0.00    +0.000 A 
ATOM      7  N   UNL     1       0.647   9.915  20.344  0.00  0.00    +0.000 N 
ATOM      8  C   UNL     1       0.502   9.404  21.607  0.00  0.00    +0.000 A 
ATOM      9  N   UNL     1       1.033   8.197  21.691  0.00  0.00    +0.000 NA
ATOM     10  C   UNL     1      -0.234  10.173  22.647  0.00  0.00    +0.000 C 
ATOM     11  O   UNL     1      -0.167  11.577  22.334  0.00  0.00    +0.000 OA
ATOM     12  C   UNL     1      -0.693  11.854  21.031  0.00  0.00    +0.000 C 
ATOM     13  C   UNL     1       0.165  11.219  19.941  0.00  0.00    +0.000 C 
ENDBRANCH   2   5
BRANCH   1  20
ATOM     14  C   UNL     1       2.923   4.581  17.634  0.00  0.00    +0.000 A 
ATOM     15  C   UNL     1       3.665   3.594  16.961  0.00  0.00    +0.000 A 
ATOM     16  C   UNL     1       5.053   3.690  16.856  0.00  0.00    +0.000 A 
ATOM     17  C   UNL     1       5.707   4.771  17.425  0.00  0.00    +0.000 A 
ATOM     18 CL   UNL     1       7.422   4.876  17.329  0.00  0.00    +0.000 Cl
ATOM     19  C   UNL     1       4.987   5.767  18.078  0.00  0.00    +0.000 A 
ATOM     20  C   UNL     1       3.590   5.708  18.171  0.00  0.00    +0.000 A 
BRANCH  14  22
ATOM     21  C   UNL     1       1.047   3.353  18.434  0.00  0.00    +0.000 C 
ATOM     22  O   UNL     1       1.557   4.519  17.780  0.00  0.00    +0.000 OA
ENDBRANCH  14  22
ENDBRANCH   1  20
TORSDOF 3
ENDMDL
MODEL 9
REMARK VINA RESULT:      -6.4      4.104      9.124
REMARK  Name = 
REMARK  4 active torsions:
REMARK  status: ('A' for Active; 'I' for Inactive)
REMARK    1  A    between atoms: C_1  and  O_2
REMARK    2  A    between atoms: O_2  and  C_3
REMARK    3  A    between atoms: C_9  and  N_10
REMARK    4  A    between atoms: C_11  and  C_13
REMARK                            x       y       z     vdW  Elec       q    Type
REMARK                         _______ _______ _______ _____ _____    ______ ____
ROOT
ATOM      1  N   UNL     1      -0.724  11.489  21.950  0.00  0.00    +0.000 N 
ATOM      2  C   UNL     1       0.016  10.383  22.363  0.00  0.00    +0.000 C 
ATOM      3  O   UNL     1       0.124   9.986  23.516  0.00  0.00    +0.000 OA
ATOM      4  H   UNL     1      -0.789  11.634  20.946  0.00  0.00    +0.000 HD
ENDROOT
BRANCH   2   5
ATOM      5  C   UNL     1       0.666   9.654  21.272  0.00  0.00    +0.000 A 
ATOM      6  C   UNL     1       1.244   8.401  21.390  0.00  0.00    +0.000 A 
ATOM      7  N   UNL     1       1.678   8.087  20.142  0.00  0.00    +0.000 N 
ATOM      8  C   UNL     1       1.400   9.140  19.311  0.00  0.00    +0.000 A 
ATOM      9  N   UNL     1       0.772  10.103  19.962  0.00  0.00    +0.000 NA
ATOM     10  C   UNL     1       1.752   9.068  17.866  0.00  0.00    +0.000 C 
ATOM     11  O   UNL     1       2.849   8.153  17.691  0.00  0.00    +0.000 OA
ATOM     12  C   UNL     1       2.541   6.852  18.204  0.00  0.00    +0.000 C 
ATOM     13  C   UNL     1       2.359   6.882  19.718  0.00  0.00    +0.000 C 
ENDBRANCH   2   5
BRANCH   1  20
ATOM     14  C   UNL     1      -0.990  13.638  23.106  0.00  0.00    +0.000 A 
ATOM     15  C   UNL     1      -1.782  14.514  23.870  0.00  0.00    +0.000 A 
ATOM     16  C   UNL     1      -3.028  14.114  24.354  0.00  0.00    +0.000 A 
ATOM     17  C   UNL     1      -3.489  12.837  24.079  0.00  0.00    +0.000 A 
ATOM     18 CL   UNL     1      -5.010  12.327  24.702  0.00  0.00    +0.000 Cl
ATOM     19  C   UNL     1      -2.727  11.963  23.308  0.00  0.00    +0.000 A 
ATOM     20  C   UNL     1      -1.486  12.352  22.786  0.00  0.00    +0.000 A 
BRANCH  14  22
ATOM     21  C   UNL     1       0.446  15.364  22.317  0.00  0.00    +0.000 C 
ATOM     22  O   UNL     1       0.252  13.981  22.626  0.00  0.00    +0.000 OA
ENDBRANCH  14  22
ENDBRANCH   1  20
TORSDOF 3
ENDMDL
