MODEL 1
REMARK VINA RESULT:      -7.6      0.000      0.000
REMARK  Name = 
REMARK  9 active torsions:
REMARK  status: ('A' for Active; 'I' for Inactive)
REMARK    1  A    between atoms: C_2  and  C_3
REMARK    2  A    between atoms: C_3  and  N_4
REMARK    3  A    between atoms: N_4  and  C_5
REMARK    4  A    between atoms: N_4  and  S_15
REMARK    5  A    between atoms: C_5  and  C_6
REMARK    6  A    between atoms: C_9  and  N_10
REMARK    7  A    between atoms: S_15  and  C_18
REMARK    8  A    between atoms: C_23  and  N_24
REMARK    9  A    between atoms: N_27  and  O_28
REMARK                            x       y       z     vdW  Elec       q    Type
REMARK                         _______ _______ _______ _____ _____    ______ ____
ROOT
ATOM      1  N   UNL     1       3.775   5.090  17.671  0.00  0.00    +0.000 NA
ENDROOT
BRANCH   1   2
ATOM      2  S   UNL     1       3.201   3.467  17.508  0.00  0.00    +0.000 S 
ATOM      3  O   UNL     1       2.104   3.413  16.574  0.00  0.00    +0.000 OA
ATOM      4  O   UNL     1       4.371   2.637  17.317  0.00  0.00    +0.000 OA
BRANCH   2   5
ATOM      5  C   UNL     1       2.490   3.046  19.075  0.00  0.00    +0.000 A 
ATOM      6  C   UNL     1       1.103   3.179  19.256  0.00  0.00    +0.000 A 
ATOM      7  C   UNL     1       0.552   3.082  20.538  0.00  0.00    +0.000 A 
ATOM      8  C   UNL     1       1.369   2.860  21.648  0.00  0.00    +0.000 A 
ATOM      9  C   UNL     1       2.746   2.717  21.480  0.00  0.00    +0.000 A 
ATOM     10  C   UNL     1       3.292   2.814  20.193  0.00  0.00    +0.000 A 
BRANCH  10  11
ATOM     11  N   UNL     1       4.719   2.616  20.069  0.00  0.00    +0.000 N 
ATOM     12  O   UNL     1       5.116   1.441  20.090  0.00  0.00    +0.000 OA
ATOM     13  O   UNL     1       5.434   3.623  20.050  0.00  0.00    +0.000 OA
ENDBRANCH  10  11
ENDBRANCH   2   5
ENDBRANCH   1   2
BRANCH   1  14
ATOM     14  C   UNL     1       4.948   5.333  16.752  0.00  0.00    +0.000 C 
BRANCH  14  16
ATOM     15  O   UNL     1       6.994   6.420  17.398  0.00  0.00    +0.000 OA
ATOM     16  C   UNL     1       6.343   5.377  17.336  0.00  0.00    +0.000 C 
ATOM     17  N   UNL     1       6.885   4.179  17.723  0.00  0.00    +0.000 N 
ATOM     18  H   UNL     1       6.317   3.362  17.940  0.00  0.00    +0.000 HD
BRANCH  17  19
ATOM     19  O   UNL     1       8.166   4.262  18.323  0.00  0.00    +0.000 OA
ATOM     20  H   UNL     1       8.039   3.796  19.179  0.00  0.00    +0.000 HD
ENDBRANCH  17  19
ENDBRANCH  14  16
ENDBRANCH   1  14
BRANCH   1  21
ATOM     21  C   UNL     1       2.691   6.099  17.406  0.00  0.00    +0.000 C 
BRANCH  21  22
ATOM     22  C   UNL     1       2.302   7.045  18.526  0.00  0.00    +0.000 A 
ATOM     23  C   UNL     1       1.992   8.394  18.287  0.00  0.00    +0.000 A 
ATOM     24  C   UNL     1       1.511   9.212  19.319  0.00  0.00    +0.000 A 
ATOM     25  C   UNL     1       1.324   8.674  20.598  0.00  0.00    +0.000 A 
ATOM     26  C   UNL     1       1.683   7.350  20.868  0.00  0.00    +0.000 A 
ATOM     27  C   UNL     1       2.172   6.545  19.835  0.00  0.00    +0.000 A 
BRANCH  25  28
ATOM     28  N   UNL     1       0.689   9.482  21.649  0.00  0.00    +0.000 N 
ATOM     29  O   UNL     1       1.049  10.662  21.770  0.00  0.00    +0.000 OA
ATOM     30  O   UNL     1      -0.196   8.946  22.332  0.00  0.00    +0.000 OA
ENDBRANCH  25  28
ENDBRANCH  21  22
ENDBRANCH   1  21
TORSDOF 9
ENDMDL
MODEL 2
REMARK VINA RESULT:      -7.6      0.854      1.259
REMARK  Name = 
REMARK  9 active torsions:
REMARK  status: ('A' for Active; 'I' for Inactive)
REMARK    1  A    between atoms: C_2  and  C_3
REMARK    2  A    between atoms: C_3  and  N_4
REMARK    3  A    between atoms: N_4  and  C_5
REMARK    4  A    between atoms: N_4  and  S_15
REMARK    5  A    between atoms: C_5  and  C_6
REMARK    6  A    between atoms: C_9  and  N_10
REMARK    7  A    between atoms: S_15  and  C_18
REMARK    8  A    between atoms: C_23  and  N_24
REMARK    9  A    between atoms: N_27  and  O_28
REMARK                            x       y       z     vdW  Elec       q    Type
REMARK                         _______ _______ _______ _____ _____    ______ ____
ROOT
ATOM      1  N   UNL     1       4.338   4.816  17.727  0.00  0.00    +0.000 NA
ENDROOT
BRANCH   1   2
ATOM      2  S   UNL     1       3.361   3.417  17.446  0.00  0.00    +0.000 S 
ATOM      3  O   UNL     1       2.289   3.728  16.533  0.00  0.00    +0.000 OA
ATOM      4  O   UNL     1       4.275   2.332  17.163  0.00  0.00    +0.000 OA
BRANCH   2   5
ATOM      5  C   UNL     1       2.565   3.066  18.988  0.00  0.00    +0.000 A 
ATOM      6  C   UNL     1       1.178   3.259  19.102  0.00  0.00    +0.000 A 
ATOM      7  C   UNL     1       0.566   3.218  20.359  0.00  0.00    +0.000 A 
ATOM      8  C   UNL     1       1.322   2.992  21.511  0.00  0.00    +0.000 A 
ATOM      9  C   UNL     1       2.698   2.790  21.409  0.00  0.00    +0.000 A 
ATOM     10  C   UNL     1       3.306   2.831  20.147  0.00  0.00    +0.000 A 
BRANCH  10  11
ATOM     11  N   UNL     1       4.727   2.573  20.093  0.00  0.00    +0.000 N 
ATOM     12  O   UNL     1       5.075   1.385  20.177  0.00  0.00    +0.000 OA
ATOM     13  O   UNL     1       5.483   3.549  20.065  0.00  0.00    +0.000 OA
ENDBRANCH  10  11
ENDBRANCH   2   5
ENDBRANCH   1   2
BRANCH   1  14
ATOM     14  C   UNL     1       5.686   4.666  17.063  0.00  0.00    +0.000 C 
BRANCH  14  16
ATOM     15  O   UNL     1       7.383   6.306  16.601  0.00  0.00    +0.000 OA
ATOM     16  C   UNL     1       6.801   5.617  17.439  0.00  0.00    +0.000 C 
ATOM     17  N   UNL     1       7.190   5.619  18.753  0.00  0.00    +0.000 N 
ATOM     18  H   UNL     1       6.589   5.289  19.505  0.00  0.00    +0.000 HD
BRANCH  17  19
ATOM     19  O   UNL     1       8.192   6.565  19.083  0.00  0.00    +0.000 OA
ATOM     20  H   UNL     1       8.556   6.816  18.206  0.00  0.00    +0.000 HD
ENDBRANCH  17  19
ENDBRANCH  14  16
ENDBRANCH   1  14
BRANCH   1  21
ATOM     21  C   UNL     1       3.665   6.076  17.253  0.00  0.00    +0.000 C 
BRANCH  21  22
ATOM     22  C   UNL     1       2.835   6.864  18.249  0.00  0.00    +0.000 A 
ATOM     23  C   UNL     1       2.671   6.444  19.579  0.00  0.00    +0.000 A 
ATOM     24  C   UNL     1       2.007   7.256  20.510  0.00  0.00    +0.000 A 
ATOM     25  C   UNL     1       1.516   8.505  20.112  0.00  0.00    +0.000 A 
ATOM     26  C   UNL     1       1.619   8.914  18.779  0.00  0.00    +0.000 A 
ATOM     27  C   UNL     1       2.273   8.092  17.856  0.00  0.00    +0.000 A 
BRANCH  25  28
ATOM     28  N   UNL     1       0.947   9.421  21.110  0.00  0.00    +0.000 N 
ATOM     29  O   UNL     1      -0.057  10.074  20.791  0.00  0.00    +0.000 OA
ATOM     30  O   UNL     1       1.485   9.464  22.227  0.00  0.00    +0.000 OA
ENDBRANCH  25  28
ENDBRANCH  21  22
ENDBRANCH   1  21
TORSDOF 9
ENDMDL
MODEL 3
REMARK VINA RESULT:      -7.5      2.044      4.767
REMARK  Name = 
REMARK  9 active torsions:
REMARK  status: ('A' for Active; 'I' for Inactive)
REMARK    1  A    between atoms: C_2  and  C_3
REMARK    2  A    between atoms: C_3  and  N_4
REMARK    3  A    between atoms: N_4  and  C_5
REMARK    4  A    between atoms: N_4  and  S_15
REMARK    5  A    between atoms: C_5  and  C_6
REMARK    6  A    between atoms: C_9  and  N_10
REMARK    7  A    between atoms: S_15  and  C_18
REMARK    8  A    between atoms: C_23  and  N_24
REMARK    9  A    between atoms: N_27  and  O_28
REMARK                            x       y       z     vdW  Elec       q    Type
REMARK                         _______ _______ _______ _____ _____    ______ ____
ROOT
ATOM      1  N   UNL     1       3.159   4.764  18.818  0.00  0.00    +0.000 NA
ENDROOT
BRANCH   1   2
ATOM      2  S   UNL     1       4.875   4.591  18.941  0.00  0.00    +0.000 S 
ATOM      3  O   UNL     1       5.442   5.701  19.667  0.00  0.00    +0.000 OA
ATOM      4  O   UNL     1       5.119   3.232  19.371  0.00  0.00    +0.000 OA
BRANCH   2   5
ATOM      5  C   UNL     1       5.497   4.756  17.290  0.00  0.00    +0.000 A 
ATOM      6  C   UNL     1       4.661   4.432  16.209  0.00  0.00    +0.000 A 
ATOM      7  C   UNL     1       5.194   4.326  14.920  0.00  0.00    +0.000 A 
ATOM      8  C   UNL     1       6.555   4.534  14.694  0.00  0.00    +0.000 A 
ATOM      9  C   UNL     1       7.393   4.866  15.758  0.00  0.00    +0.000 A 
ATOM     10  C   UNL     1       6.854   4.972  17.047  0.00  0.00    +0.000 A 
BRANCH  10  11
ATOM     11  N   UNL     1       7.756   5.360  18.108  0.00  0.00    +0.000 N 
ATOM     12  O   UNL     1       7.915   6.578  18.279  0.00  0.00    +0.000 OA
ATOM     13  O   UNL     1       8.370   4.460  18.691  0.00  0.00    +0.000 OA
ENDBRANCH  10  11
ENDBRANCH   2   5
ENDBRANCH   1   2
BRANCH   1  14
ATOM     14  C   UNL     1       2.487   3.412  18.826  0.00  0.00    +0.000 C 
BRANCH  14  16
ATOM     15  O   UNL     1       0.460   2.991  20.051  0.00  0.00    +0.000 OA
ATOM     16  C   UNL     1       1.691   2.994  20.043  0.00  0.00    +0.000 C 
ATOM     17  N   UNL     1       2.408   2.694  21.172  0.00  0.00    +0.000 N 
ATOM     18  H   UNL     1       3.389   2.424  21.146  0.00  0.00    +0.000 HD
BRANCH  17  19
ATOM     19  O   UNL     1       1.637   2.246  22.274  0.00  0.00    +0.000 OA
ATOM     20  H   UNL     1       1.204   1.435  21.925  0.00  0.00    +0.000 HD
ENDBRANCH  17  19
ENDBRANCH  14  16
ENDBRANCH   1  14
BRANCH   1  21
ATOM     21  C   UNL     1       2.601   5.626  19.918  0.00  0.00    +0.000 C 
BRANCH  21  22
ATOM     22  C   UNL     1       2.211   7.053  19.584  0.00  0.00    +0.000 A 
ATOM     23  C   UNL     1       2.391   7.593  18.299  0.00  0.00    +0.000 A 
ATOM     24  C   UNL     1       1.904   8.869  17.984  0.00  0.00    +0.000 A 
ATOM     25  C   UNL     1       1.218   9.608  18.955  0.00  0.00    +0.000 A 
ATOM     26  C   UNL     1       1.081   9.111  20.255  0.00  0.00    +0.000 A 
ATOM     27  C   UNL     1       1.580   7.842  20.563  0.00  0.00    +0.000 A 
BRANCH  25  28
ATOM     28  N   UNL     1       0.582  10.882  18.595  0.00  0.00    +0.000 N 
ATOM     29  O   UNL     1       1.297  11.893  18.544  0.00  0.00    +0.000 OA
ATOM     30  O   UNL     1      -0.630  10.867  18.330  0.00  0.00    +0.000 OA
ENDBRANCH  25  28
ENDBRANCH  21  22
ENDBRANCH   1  21
TORSDOF 9
ENDMDL
MODEL 4
REMARK VINA RESULT:      -7.5      2.246      4.787
REMARK  Name = 
REMARK  9 active torsions:
REMARK  status: ('A' for Active; 'I' for Inactive)
REMARK    1  A    between atoms: C_2  and  C_3
REMARK    2  A    between atoms: C_3  and  N_4
REMARK    3  A    between atoms: N_4  and  C_5
REMARK    4  A    between atoms: N_4  and  S_15
REMARK    5  A    between atoms: C_5  and  C_6
REMARK    6  A    between atoms: C_9  and  N_10
REMARK    7  A    between atoms: S_15  and  C_18
REMARK    8  A    between atoms: C_23  and  N_24
REMARK    9  A    between atoms: N_27  and  O_28
REMARK                            x       y       z     vdW  Elec       q    Type
REMARK                         _______ _______ _______ _____ _____    ______ ____
ROOT
ATOM      1  N   UNL     1       3.115   5.307  18.037  0.00  0.00    +0.000 NA
ENDROOT
BRANCH   1   2
ATOM      2  S   UNL     1       4.379   4.129  18.119  0.00  0.00    +0.000 S 
ATOM      3  O   UNL     1       4.333   3.429  19.378  0.00  0.00    +0.000 OA
ATOM      4  O   UNL     1       4.337   3.399  16.871  0.00  0.00    +0.000 OA
BRANCH   2   5
ATOM      5  C   UNL     1       5.893   5.048  18.158  0.00  0.00    +0.000 A 
ATOM      6  C   UNL     1       6.671   5.035  19.327  0.00  0.00    +0.000 A 
ATOM      7  C   UNL     1       7.737   5.930  19.468  0.00  0.00    +0.000 A 
ATOM      8  C   UNL     1       8.036   6.845  18.457  0.00  0.00    +0.000 A 
ATOM      9  C   UNL     1       7.276   6.860  17.287  0.00  0.00    +0.000 A 
ATOM     10  C   UNL     1       6.210   5.961  17.151  0.00  0.00    +0.000 A 
BRANCH  10  11
ATOM     11  N   UNL     1       5.482   5.989  15.903  0.00  0.00    +0.000 N 
ATOM     12  O   UNL     1       5.817   5.153  15.050  0.00  0.00    +0.000 OA
ATOM     13  O   UNL     1       4.657   6.895  15.745  0.00  0.00    +0.000 OA
ENDBRANCH  10  11
ENDBRANCH   2   5
ENDBRANCH   1   2
BRANCH   1  14
ATOM     14  C   UNL     1       1.777   4.637  17.830  0.00  0.00    +0.000 C 
BRANCH  14  16
ATOM     15  O   UNL     1       1.136   2.402  18.445  0.00  0.00    +0.000 OA
ATOM     16  C   UNL     1       1.334   3.564  18.801  0.00  0.00    +0.000 C 
ATOM     17  N   UNL     1       1.086   3.965  20.087  0.00  0.00    +0.000 N 
ATOM     18  H   UNL     1       1.480   4.815  20.486  0.00  0.00    +0.000 HD
BRANCH  17  19
ATOM     19  O   UNL     1       0.734   2.925  20.985  0.00  0.00    +0.000 OA
ATOM     20  H   UNL     1       1.574   2.422  21.078  0.00  0.00    +0.000 HD
ENDBRANCH  17  19
ENDBRANCH  14  16
ENDBRANCH   1  14
BRANCH   1  21
ATOM     21  C   UNL     1       3.075   6.174  19.266  0.00  0.00    +0.000 C 
BRANCH  21  22
ATOM     22  C   UNL     1       2.372   7.515  19.175  0.00  0.00    +0.000 A 
ATOM     23  C   UNL     1       2.328   8.253  17.982  0.00  0.00    +0.000 A 
ATOM     24  C   UNL     1       1.563   9.425  17.892  0.00  0.00    +0.000 A 
ATOM     25  C   UNL     1       0.824   9.856  19.000  0.00  0.00    +0.000 A 
ATOM     26  C   UNL     1       0.903   9.166  20.213  0.00  0.00    +0.000 A 
ATOM     27  C   UNL     1       1.677   8.005  20.296  0.00  0.00    +0.000 A 
BRANCH  25  28
ATOM     28  N   UNL     1      -0.089  11.000  18.874  0.00  0.00    +0.000 N 
ATOM     29  O   UNL     1      -1.166  10.820  18.286  0.00  0.00    +0.000 OA
ATOM     30  O   UNL     1       0.255  12.072  19.392  0.00  0.00    +0.000 OA
ENDBRANCH  25  28
ENDBRANCH  21  22
ENDBRANCH   1  21
TORSDOF 9
ENDMDL
MODEL 5
REMARK VINA RESULT:      -7.5      2.185      4.732
REMARK  Name = 
REMARK  9 active torsions:
REMARK  status: ('A' for Active; 'I' for Inactive)
REMARK    1  A    between atoms: C_2  and  C_3
REMARK    2  A    between atoms: C_3  and  N_4
REMARK    3  A    between atoms: N_4  and  C_5
REMARK    4  A    between atoms: N_4  and  S_15
REMARK    5  A    between atoms: C_5  and  C_6
REMARK    6  A    between atoms: C_9  and  N_10
REMARK    7  A    between atoms: S_15  and  C_18
REMARK    8  A    between atoms: C_23  and  N_24
REMARK    9  A    between atoms: N_27  and  O_28
REMARK                            x       y       z     vdW  Elec       q    Type
REMARK                         _______ _______ _______ _____ _____    ______ ____
ROOT
ATOM      1  N   UNL     1       3.245   5.369  17.883  0.00  0.00    +0.000 NA
ENDROOT
BRANCH   1   2
ATOM      2  S   UNL     1       4.547   4.231  17.896  0.00  0.00    +0.000 S 
ATOM      3  O   UNL     1       4.514   3.444  19.103  0.00  0.00    +0.000 OA
ATOM      4  O   UNL     1       4.540   3.589  16.600  0.00  0.00    +0.000 OA
BRANCH   2   5
ATOM      5  C   UNL     1       6.029   5.194  18.014  0.00  0.00    +0.000 A 
ATOM      6  C   UNL     1       6.773   5.161  19.205  0.00  0.00    +0.000 A 
ATOM      7  C   UNL     1       7.805   6.082  19.411  0.00  0.00    +0.000 A 
ATOM      8  C   UNL     1       8.103   7.044  18.444  0.00  0.00    +0.000 A 
ATOM      9  C   UNL     1       7.378   7.080  17.254  0.00  0.00    +0.000 A 
ATOM     10  C   UNL     1       6.345   6.154  17.053  0.00  0.00    +0.000 A 
BRANCH  10  11
ATOM     11  N   UNL     1       5.652   6.208  15.785  0.00  0.00    +0.000 N 
ATOM     12  O   UNL     1       6.091   5.474  14.886  0.00  0.00    +0.000 OA
ATOM     13  O   UNL     1       4.749   7.041  15.664  0.00  0.00    +0.000 OA
ENDBRANCH  10  11
ENDBRANCH   2   5
ENDBRANCH   1   2
BRANCH   1  14
ATOM     14  C   UNL     1       1.931   4.671  17.621  0.00  0.00    +0.000 C 
BRANCH  14  16
ATOM     15  O   UNL     1       0.927   3.739  19.598  0.00  0.00    +0.000 OA
ATOM     16  C   UNL     1       1.507   3.539  18.530  0.00  0.00    +0.000 C 
ATOM     17  N   UNL     1       1.872   2.275  18.147  0.00  0.00    +0.000 N 
ATOM     18  H   UNL     1       2.100   2.035  17.185  0.00  0.00    +0.000 HD
BRANCH  17  19
ATOM     19  O   UNL     1       1.405   1.232  18.987  0.00  0.00    +0.000 OA
ATOM     20  H   UNL     1       0.594   1.618  19.385  0.00  0.00    +0.000 HD
ENDBRANCH  17  19
ENDBRANCH  14  16
ENDBRANCH   1  14
BRANCH   1  21
ATOM     21  C   UNL     1       3.169   6.151  19.167  0.00  0.00    +0.000 C 
BRANCH  21  22
ATOM     22  C   UNL     1       2.414   7.466  19.162  0.00  0.00    +0.000 A 
ATOM     23  C   UNL     1       2.283   8.246  18.002  0.00  0.00    +0.000 A 
ATOM     24  C   UNL     1       1.472   9.390  17.994  0.00  0.00    +0.000 A 
ATOM     25  C   UNL     1       0.774   9.750  19.153  0.00  0.00    +0.000 A 
ATOM     26  C   UNL     1       0.938   9.020  20.334  0.00  0.00    +0.000 A 
ATOM     27  C   UNL     1       1.758   7.887  20.334  0.00  0.00    +0.000 A 
BRANCH  25  28
ATOM     28  N   UNL     1      -0.186  10.862  19.116  0.00  0.00    +0.000 N 
ATOM     29  O   UNL     1      -0.158  11.683  20.044  0.00  0.00    +0.000 OA
ATOM     30  O   UNL     1      -0.947  10.934  18.139  0.00  0.00    +0.000 OA
ENDBRANCH  25  28
ENDBRANCH  21  22
ENDBRANCH   1  21
TORSDOF 9
ENDMDL
MODEL 6
REMARK VINA RESULT:      -7.4      1.270      1.715
REMARK  Name = 
REMARK  9 active torsions:
REMARK  status: ('A' for Active; 'I' for Inactive)
REMARK    1  A    between atoms: C_2  and  C_3
REMARK    2  A    between atoms: C_3  and  N_4
REMARK    3  A    between atoms: N_4  and  C_5
REMARK    4  A    between atoms: N_4  and  S_15
REMARK    5  A    between atoms: C_5  and  C_6
REMARK    6  A    between atoms: C_9  and  N_10
REMARK    7  A    between atoms: S_15  and  C_18
REMARK    8  A    between atoms: C_23  and  N_24
REMARK    9  A    between atoms: N_27  and  O_28
REMARK                            x       y       z     vdW  Elec       q    Type
REMARK                         _______ _______ _______ _____ _____    ______ ____
ROOT
ATOM      1  N   UNL     1       5.008   5.849  17.700  0.00  0.00    +0.000 NA
ENDROOT
BRANCH   1   2
ATOM      2  S   UNL     1       4.702   4.269  17.068  0.00  0.00    +0.000 S 
ATOM      3  O   UNL     1       4.249   4.354  15.701  0.00  0.00    +0.000 OA
ATOM      4  O   UNL     1       5.853   3.462  17.411  0.00  0.00    +0.000 OA
BRANCH   2   5
ATOM      5  C   UNL     1       3.314   3.646  17.975  0.00  0.00    +0.000 A 
ATOM      6  C   UNL     1       2.025   3.780  17.432  0.00  0.00    +0.000 A 
ATOM      7  C   UNL     1       0.902   3.514  18.223  0.00  0.00    +0.000 A 
ATOM      8  C   UNL     1       1.047   3.120  19.554  0.00  0.00    +0.000 A 
ATOM      9  C   UNL     1       2.321   2.974  20.101  0.00  0.00    +0.000 A 
ATOM     10  C   UNL     1       3.443   3.241  19.304  0.00  0.00    +0.000 A 
BRANCH  10  11
ATOM     11  N   UNL     1       4.741   3.033  19.906  0.00  0.00    +0.000 N 
ATOM     12  O   UNL     1       5.084   1.855  20.084  0.00  0.00    +0.000 OA
ATOM     13  O   UNL     1       5.360   4.034  20.283  0.00  0.00    +0.000 OA
ENDBRANCH  10  11
ENDBRANCH   2   5
ENDBRANCH   1   2
BRANCH   1  14
ATOM     14  C   UNL     1       6.392   6.317  17.317  0.00  0.00    +0.000 C 
BRANCH  14  16
ATOM     15  O   UNL     1       8.220   7.335  18.503  0.00  0.00    +0.000 OA
ATOM     16  C   UNL     1       7.470   6.366  18.378  0.00  0.00    +0.000 C 
ATOM     17  N   UNL     1       7.627   5.244  19.147  0.00  0.00    +0.000 N 
ATOM     18  H   UNL     1       6.891   4.551  19.268  0.00  0.00    +0.000 HD
BRANCH  17  19
ATOM     19  O   UNL     1       8.602   5.346  20.171  0.00  0.00    +0.000 OA
ATOM     20  H   UNL     1       8.417   4.559  20.730  0.00  0.00    +0.000 HD
ENDBRANCH  17  19
ENDBRANCH  14  16
ENDBRANCH   1  14
BRANCH   1  21
ATOM     21  C   UNL     1       3.979   6.847  17.242  0.00  0.00    +0.000 C 
BRANCH  21  22
ATOM     22  C   UNL     1       2.985   7.373  18.260  0.00  0.00    +0.000 A 
ATOM     23  C   UNL     1       2.784   6.742  19.499  0.00  0.00    +0.000 A 
ATOM     24  C   UNL     1       1.957   7.321  20.471  0.00  0.00    +0.000 A 
ATOM     25  C   UNL     1       1.336   8.549  20.211  0.00  0.00    +0.000 A 
ATOM     26  C   UNL     1       1.478   9.161  18.962  0.00  0.00    +0.000 A 
ATOM     27  C   UNL     1       2.296   8.570  17.994  0.00  0.00    +0.000 A 
BRANCH  25  28
ATOM     28  N   UNL     1       0.584   9.231  21.272  0.00  0.00    +0.000 N 
ATOM     29  O   UNL     1       1.075  10.259  21.761  0.00  0.00    +0.000 OA
ATOM     30  O   UNL     1      -0.517   8.758  21.594  0.00  0.00    +0.000 OA
ENDBRANCH  25  28
ENDBRANCH  21  22
ENDBRANCH   1  21
TORSDOF 9
ENDMDL
MODEL 7
REMARK VINA RESULT:      -7.4      2.174      4.822
REMARK  Name = 
REMARK  9 active torsions:
REMARK  status: ('A' for Active; 'I' for Inactive)
REMARK    1  A    between atoms: C_2  and  C_3
REMARK    2  A    between atoms: C_3  and  N_4
REMARK    3  A    between atoms: N_4  and  C_5
REMARK    4  A    between atoms: N_4  and  S_15
REMARK    5  A    between atoms: C_5  and  C_6
REMARK    6  A    between atoms: C_9  and  N_10
REMARK    7  A    between atoms: S_15  and  C_18
REMARK    8  A    between atoms: C_23  and  N_24
REMARK    9  A    between atoms: N_27  and  O_28
REMARK                            x       y       z     vdW  Elec       q    Type
REMARK                         _______ _______ _______ _____ _____    ______ ____
ROOT
ATOM      1  N   UNL     1       3.087   5.420  18.029  0.00  0.00    +0.000 NA
ENDROOT
BRANCH   1   2
ATOM      2  S   UNL     1       4.323   4.212  18.060  0.00  0.00    +0.000 S 
ATOM      3  O   UNL     1       4.268   3.468  19.294  0.00  0.00    +0.000 OA
ATOM      4  O   UNL     1       4.258   3.528  16.786  0.00  0.00    +0.000 OA
BRANCH   2   5
ATOM      5  C   UNL     1       5.859   5.093  18.122  0.00  0.00    +0.000 A 
ATOM      6  C   UNL     1       6.637   5.031  19.290  0.00  0.00    +0.000 A 
ATOM      7  C   UNL     1       7.723   5.896  19.454  0.00  0.00    +0.000 A 
ATOM      8  C   UNL     1       8.043   6.831  18.468  0.00  0.00    +0.000 A 
ATOM      9  C   UNL     1       7.284   6.895  17.300  0.00  0.00    +0.000 A 
ATOM     10  C   UNL     1       6.197   6.025  17.141  0.00  0.00    +0.000 A 
BRANCH  10  11
ATOM     11  N   UNL     1       5.469   6.104  15.894  0.00  0.00    +0.000 N 
ATOM     12  O   UNL     1       5.825   5.323  14.998  0.00  0.00    +0.000 OA
ATOM     13  O   UNL     1       4.625   6.999  15.783  0.00  0.00    +0.000 OA
ENDBRANCH  10  11
ENDBRANCH   2   5
ENDBRANCH   1   2
BRANCH   1  14
ATOM     14  C   UNL     1       1.731   4.788  17.824  0.00  0.00    +0.000 C 
BRANCH  14  16
ATOM     15  O   UNL     1       1.108   2.515  18.302  0.00  0.00    +0.000 OA
ATOM     16  C   UNL     1       1.305   3.653  18.729  0.00  0.00    +0.000 C 
ATOM     17  N   UNL     1       1.071   3.969  20.042  0.00  0.00    +0.000 N 
ATOM     18  H   UNL     1       1.465   4.794  20.489  0.00  0.00    +0.000 HD
BRANCH  17  19
ATOM     19  O   UNL     1       0.735   2.872  20.875  0.00  0.00    +0.000 OA
ATOM     20  H   UNL     1       1.590   2.656  21.309  0.00  0.00    +0.000 HD
ENDBRANCH  17  19
ENDBRANCH  14  16
ENDBRANCH   1  14
BRANCH   1  21
ATOM     21  C   UNL     1       3.085   6.255  19.281  0.00  0.00    +0.000 C 
BRANCH  21  22
ATOM     22  C   UNL     1       2.249   7.520  19.298  0.00  0.00    +0.000 A 
ATOM     23  C   UNL     1       1.558   7.940  20.446  0.00  0.00    +0.000 A 
ATOM     24  C   UNL     1       0.900   9.178  20.474  0.00  0.00    +0.000 A 
ATOM     25  C   UNL     1       0.945  10.011  19.350  0.00  0.00    +0.000 A 
ATOM     26  C   UNL     1       1.579   9.584  18.179  0.00  0.00    +0.000 A 
ATOM     27  C   UNL     1       2.223   8.343  18.157  0.00  0.00    +0.000 A 
BRANCH  25  28
ATOM     28  N   UNL     1       0.381  11.366  19.417  0.00  0.00    +0.000 N 
ATOM     29  O   UNL     1      -0.402  11.623  20.343  0.00  0.00    +0.000 OA
ATOM     30  O   UNL     1       0.747  12.185  18.561  0.00  0.00    +0.000 OA
ENDBRANCH  25  28
ENDBRANCH  21  22
ENDBRANCH   1  21
TORSDOF 9
ENDMDL
MODEL 8
REMARK VINA RESULT:      -7.4      2.054      4.800
REMARK  Name = 
REMARK  9 active torsions:
REMARK  status: ('A' for Active; 'I' for Inactive)
REMARK    1  A    between atoms: C_2  and  C_3
REMARK    2  A    between atoms: C_3  and  N_4
REMARK    3  A    between atoms: N_4  and  C_5
REMARK    4  A    between atoms: N_4  and  S_15
REMARK    5  A    between atoms: C_5  and  C_6
REMARK    6  A    between atoms: C_9  and  N_10
REMARK    7  A    between atoms: S_15  and  C_18
REMARK    8  A    between atoms: C_23  and  N_24
REMARK    9  A    between atoms: N_27  and  O_28
REMARK                            x       y       z     vdW  Elec       q    Type
REMARK                         _______ _______ _______ _____ _____    ______ ____
ROOT
ATOM      1  N   UNL     1       3.216   4.754  18.794  0.00  0.00    +0.000 NA
ENDROOT
BRANCH   1   2
ATOM      2  S   UNL     1       4.931   4.566  18.918  0.00  0.00    +0.000 S 
ATOM      3  O   UNL     1       5.504   5.661  19.660  0.00  0.00    +0.000 OA
ATOM      4  O   UNL     1       5.162   3.199  19.329  0.00  0.00    +0.000 OA
BRANCH   2   5
ATOM      5  C   UNL     1       5.557   4.748  17.271  0.00  0.00    +0.000 A 
ATOM      6  C   UNL     1       4.734   4.408  16.184  0.00  0.00    +0.000 A 
ATOM      7  C   UNL     1       5.276   4.317  14.898  0.00  0.00    +0.000 A 
ATOM      8  C   UNL     1       6.634   4.556  14.679  0.00  0.00    +0.000 A 
ATOM      9  C   UNL     1       7.458   4.904  15.749  0.00  0.00    +0.000 A 
ATOM     10  C   UNL     1       6.910   4.995  17.035  0.00  0.00    +0.000 A 
BRANCH  10  11
ATOM     11  N   UNL     1       7.798   5.400  18.101  0.00  0.00    +0.000 N 
ATOM     12  O   UNL     1       8.362   4.489  18.726  0.00  0.00    +0.000 OA
ATOM     13  O   UNL     1       7.852   6.605  18.371  0.00  0.00    +0.000 OA
ENDBRANCH  10  11
ENDBRANCH   2   5
ENDBRANCH   1   2
BRANCH   1  14
ATOM     14  C   UNL     1       2.531   3.408  18.811  0.00  0.00    +0.000 C 
BRANCH  14  16
ATOM     15  O   UNL     1       0.516   2.977  20.051  0.00  0.00    +0.000 OA
ATOM     16  C   UNL     1       1.747   2.998  20.038  0.00  0.00    +0.000 C 
ATOM     17  N   UNL     1       2.473   2.727  21.168  0.00  0.00    +0.000 N 
ATOM     18  H   UNL     1       3.458   2.472  21.142  0.00  0.00    +0.000 HD
BRANCH  17  19
ATOM     19  O   UNL     1       1.714   2.286  22.281  0.00  0.00    +0.000 OA
ATOM     20  H   UNL     1       1.927   2.953  22.971  0.00  0.00    +0.000 HD
ENDBRANCH  17  19
ENDBRANCH  14  16
ENDBRANCH   1  14
BRANCH   1  21
ATOM     21  C   UNL     1       2.666   5.628  19.888  0.00  0.00    +0.000 C 
BRANCH  21  22
ATOM     22  C   UNL     1       2.195   7.023  19.523  0.00  0.00    +0.000 A 
ATOM     23  C   UNL     1       1.473   7.824  20.423  0.00  0.00    +0.000 A 
ATOM     24  C   UNL     1       1.162   9.155  20.108  0.00  0.00    +0.000 A 
ATOM     25  C   UNL     1       1.589   9.695  18.888  0.00  0.00    +0.000 A 
ATOM     26  C   UNL     1       2.256   8.894  17.956  0.00  0.00    +0.000 A 
ATOM     27  C   UNL     1       2.552   7.566  18.275  0.00  0.00    +0.000 A 
BRANCH  25  28
ATOM     28  N   UNL     1       1.392  11.123  18.609  0.00  0.00    +0.000 N 
ATOM     29  O   UNL     1       2.321  11.741  18.068  0.00  0.00    +0.000 OA
ATOM     30  O   UNL     1       0.295  11.622  18.901  0.00  0.00    +0.000 OA
ENDBRANCH  25  28
ENDBRANCH  21  22
ENDBRANCH   1  21
TORSDOF 9
ENDMDL
MODEL 9
REMARK VINA RESULT:      -7.3      1.674      2.099
REMARK  Name = 
REMARK  9 active torsions:
REMARK  status: ('A' for Active; 'I' for Inactive)
REMARK    1  A    between atoms: C_2  and  C_3
REMARK    2  A    between atoms: C_3  and  N_4
REMARK    3  A    between atoms: N_4  and  C_5
REMARK    4  A    between atoms: N_4  and  S_15
REMARK    5  A    between atoms: C_5  and  C_6
REMARK    6  A    between atoms: C_9  and  N_10
REMARK    7  A    between atoms: S_15  and  C_18
REMARK    8  A    between atoms: C_23  and  N_24
REMARK    9  A    between atoms: N_27  and  O_28
REMARK                            x       y       z     vdW  Elec       q    Type
REMARK                         _______ _______ _______ _____ _____    ______ ____
ROOT
ATOM      1  N   UNL     1       4.445   6.249  18.301  0.00  0.00    +0.000 NA
ENDROOT
BRANCH   1   2
ATOM      2  S   UNL     1       4.435   4.523  18.193  0.00  0.00    +0.000 S 
ATOM      3  O   UNL     1       3.964   4.103  16.897  0.00  0.00    +0.000 OA
ATOM      4  O   UNL     1       5.719   4.076  18.687  0.00  0.00    +0.000 OA
BRANCH   2   5
ATOM      5  C   UNL     1       3.196   3.975  19.333  0.00  0.00    +0.000 A 
ATOM      6  C   UNL     1       2.880   4.780  20.441  0.00  0.00    +0.000 A 
ATOM      7  C   UNL     1       2.087   4.270  21.473  0.00  0.00    +0.000 A 
ATOM      8  C   UNL     1       1.605   2.960  21.419  0.00  0.00    +0.000 A 
ATOM      9  C   UNL     1       1.903   2.156  20.320  0.00  0.00    +0.000 A 
ATOM     10  C   UNL     1       2.698   2.672  19.288  0.00  0.00    +0.000 A 
BRANCH  10  11
ATOM     11  N   UNL     1       2.942   1.811  18.153  0.00  0.00    +0.000 N 
ATOM     12  O   UNL     1       2.131   1.890  17.217  0.00  0.00    +0.000 OA
ATOM     13  O   UNL     1       3.871   1.003  18.240  0.00  0.00    +0.000 OA
ENDBRANCH  10  11
ENDBRANCH   2   5
ENDBRANCH   1   2
BRANCH   1  14
ATOM     14  C   UNL     1       5.718   6.811  17.713  0.00  0.00    +0.000 C 
BRANCH  14  16
ATOM     15  O   UNL     1       5.406   6.673  15.332  0.00  0.00    +0.000 OA
ATOM     16  C   UNL     1       6.113   6.417  16.306  0.00  0.00    +0.000 C 
ATOM     17  N   UNL     1       7.266   5.688  16.174  0.00  0.00    +0.000 N 
ATOM     18  H   UNL     1       8.000   5.684  16.879  0.00  0.00    +0.000 HD
BRANCH  17  19
ATOM     19  O   UNL     1       7.641   5.389  14.840  0.00  0.00    +0.000 OA
ATOM     20  H   UNL     1       8.033   4.491  14.918  0.00  0.00    +0.000 HD
ENDBRANCH  17  19
ENDBRANCH  14  16
ENDBRANCH   1  14
BRANCH   1  21
ATOM     21  C   UNL     1       3.248   6.861  17.625  0.00  0.00    +0.000 C 
BRANCH  21  22
ATOM     22  C   UNL     1       2.467   7.924  18.375  0.00  0.00    +0.000 A 
ATOM     23  C   UNL     1       2.009   9.093  17.746  0.00  0.00    +0.000 A 
ATOM     24  C   UNL     1       1.180   9.995  18.428  0.00  0.00    +0.000 A 
ATOM     25  C   UNL     1       0.793   9.720  19.745  0.00  0.00    +0.000 A 
ATOM     26  C   UNL     1       1.287   8.591  20.405  0.00  0.00    +0.000 A 
ATOM     27  C   UNL     1       2.121   7.703  19.721  0.00  0.00    +0.000 A 
BRANCH  25  28
ATOM     28  N   UNL     1      -0.186  10.584  20.418  0.00  0.00    +0.000 N 
ATOM     29  O   UNL     1      -0.586  11.588  19.812  0.00  0.00    +0.000 OA
ATOM     30  O   UNL     1      -0.582  10.239  21.542  0.00  0.00    +0.000 OA
ENDBRANCH  25  28
ENDBRANCH  21  22
ENDBRANCH   1  21
TORSDOF 9
ENDMDL
