MODEL 1
REMARK VINA RESULT:      -8.4      0.000      0.000
REMARK  Name = 
REMARK  7 active torsions:
REMARK  status: ('A' for Active; 'I' for Inactive)
REMARK    1  A    between atoms: C_1  and  C_2
REMARK    2  A    between atoms: C_2  and  C_3
REMARK    3  A    between atoms: C_2  and  C_4
REMARK    4  A    between atoms: C_7  and  C_8
REMARK    5  A    between atoms: C_8  and  C_10
REMARK    6  A    between atoms: N_12  and  C_13
REMARK    7  A    between atoms: C_19  and  O_20
REMARK                            x       y       z     vdW  Elec       q    Type
REMARK                         _______ _______ _______ _____ _____    ______ ____
ROOT
ATOM      1  C   UNL     1       6.769   5.429  17.544  0.00  0.00    +0.000 A 
ATOM      2  C   UNL     1       6.516   4.584  16.487  0.00  0.00    +0.000 A 
ATOM      3  N   UNL     1       7.048   5.210  15.388  0.00  0.00    +0.000 N 
ATOM      4  N   UNL     1       7.671   6.351  15.781  0.00  0.00    +0.000 NA
ATOM      5  N   UNL     1       7.451   6.523  17.078  0.00  0.00    +0.000 NA
ENDROOT
BRANCH   3   6
ATOM      6  C   UNL     1       7.024   4.816  14.030  0.00  0.00    +0.000 A 
ATOM      7  C   UNL     1       6.042   3.901  13.615  0.00  0.00    +0.000 A 
ATOM      8  C   UNL     1       5.981   3.508  12.279  0.00  0.00    +0.000 A 
ATOM      9 CL   UNL     1       4.738   2.441  11.754  0.00  0.00    +0.000 Cl
ATOM     10  C   UNL     1       6.913   3.985  11.359  0.00  0.00    +0.000 A 
ATOM     11  C   UNL     1       7.909   4.872  11.772  0.00  0.00    +0.000 A 
ATOM     12  C   UNL     1       7.958   5.294  13.103  0.00  0.00    +0.000 A 
BRANCH  12  13
ATOM     13  O   UNL     1       8.978   6.113  13.493  0.00  0.00    +0.000 OA
ATOM     14  H   UNL     1       9.085   6.069  14.458  0.00  0.00    +0.000 HD
ENDBRANCH  12  13
ENDBRANCH   3   6
BRANCH   1  15
ATOM     15  C   UNL     1       6.425   5.209  18.939  0.00  0.00    +0.000 C 
ATOM     16  O   UNL     1       7.238   5.387  19.846  0.00  0.00    +0.000 OA
BRANCH  15  20
ATOM     17  C   UNL     1       2.506   3.849  20.090  0.00  0.00    +0.000 A 
ATOM     18  C   UNL     1       2.776   5.215  19.916  0.00  0.00    +0.000 A 
ATOM     19  C   UNL     1       4.045   5.649  19.516  0.00  0.00    +0.000 A 
ATOM     20  C   UNL     1       5.063   4.719  19.270  0.00  0.00    +0.000 A 
ATOM     21  C   UNL     1       4.800   3.354  19.431  0.00  0.00    +0.000 A 
ATOM     22  C   UNL     1       3.535   2.926  19.838  0.00  0.00    +0.000 A 
BRANCH  17  24
ATOM     23  C   UNL     1       0.400   2.616  19.454  0.00  0.00    +0.000 C 
ATOM     24  C   UNL     1       1.136   3.385  20.554  0.00  0.00    +0.000 C 
ATOM     25  C   UNL     1       1.226   2.535  21.826  0.00  0.00    +0.000 C 
ENDBRANCH  17  24
ENDBRANCH  15  20
ENDBRANCH   1  15
TORSDOF 5
ENDMDL
MODEL 2
REMARK VINA RESULT:      -8.2      2.881      7.562
REMARK  Name = 
REMARK  7 active torsions:
REMARK  status: ('A' for Active; 'I' for Inactive)
REMARK    1  A    between atoms: C_1  and  C_2
REMARK    2  A    between atoms: C_2  and  C_3
REMARK    3  A    between atoms: C_2  and  C_4
REMARK    4  A    between atoms: C_7  and  C_8
REMARK    5  A    between atoms: C_8  and  C_10
REMARK    6  A    between atoms: N_12  and  C_13
REMARK    7  A    between atoms: C_19  and  O_20
REMARK                            x       y       z     vdW  Elec       q    Type
REMARK                         _______ _______ _______ _____ _____    ______ ____
ROOT
ATOM      1  C   UNL     1       6.513   5.125  17.241  0.00  0.00    +0.000 A 
ATOM      2  C   UNL     1       5.179   5.082  17.578  0.00  0.00    +0.000 A 
ATOM      3  N   UNL     1       5.145   4.588  18.858  0.00  0.00    +0.000 N 
ATOM      4  N   UNL     1       6.416   4.418  19.305  0.00  0.00    +0.000 NA
ATOM      5  N   UNL     1       7.250   4.682  18.308  0.00  0.00    +0.000 NA
ENDROOT
BRANCH   3   6
ATOM      6  C   UNL     1       4.031   4.285  19.674  0.00  0.00    +0.000 A 
ATOM      7  C   UNL     1       3.111   5.307  19.960  0.00  0.00    +0.000 A 
ATOM      8  C   UNL     1       1.993   5.034  20.746  0.00  0.00    +0.000 A 
ATOM      9 CL   UNL     1       0.829   6.267  21.040  0.00  0.00    +0.000 Cl
ATOM     10  C   UNL     1       1.801   3.763  21.285  0.00  0.00    +0.000 A 
ATOM     11  C   UNL     1       2.727   2.751  21.028  0.00  0.00    +0.000 A 
ATOM     12  C   UNL     1       3.835   3.008  20.217  0.00  0.00    +0.000 A 
BRANCH  12  13
ATOM     13  O   UNL     1       4.756   2.018  20.031  0.00  0.00    +0.000 OA
ATOM     14  H   UNL     1       4.928   1.902  19.082  0.00  0.00    +0.000 HD
ENDBRANCH  12  13
ENDBRANCH   3   6
BRANCH   1  15
ATOM     15  C   UNL     1       7.082   5.598  15.990  0.00  0.00    +0.000 C 
ATOM     16  O   UNL     1       7.885   6.531  15.951  0.00  0.00    +0.000 OA
BRANCH  15  20
ATOM     17  C   UNL     1       5.860   3.558  12.401  0.00  0.00    +0.000 A 
ATOM     18  C   UNL     1       5.004   3.649  13.509  0.00  0.00    +0.000 A 
ATOM     19  C   UNL     1       5.397   4.335  14.664  0.00  0.00    +0.000 A 
ATOM     20  C   UNL     1       6.650   4.957  14.722  0.00  0.00    +0.000 A 
ATOM     21  C   UNL     1       7.507   4.881  13.617  0.00  0.00    +0.000 A 
ATOM     22  C   UNL     1       7.114   4.187  12.471  0.00  0.00    +0.000 A 
BRANCH  17  24
ATOM     23  C   UNL     1       5.915   1.330  11.222  0.00  0.00    +0.000 C 
ATOM     24  C   UNL     1       5.441   2.785  11.162  0.00  0.00    +0.000 C 
ATOM     25  C   UNL     1       3.926   2.842  10.944  0.00  0.00    +0.000 C 
ENDBRANCH  17  24
ENDBRANCH  15  20
ENDBRANCH   1  15
TORSDOF 5
ENDMDL
MODEL 3
REMARK VINA RESULT:      -8.0      2.752      3.636
REMARK  Name = 
REMARK  7 active torsions:
REMARK  status: ('A' for Active; 'I' for Inactive)
REMARK    1  A    between atoms: C_1  and  C_2
REMARK    2  A    between atoms: C_2  and  C_3
REMARK    3  A    between atoms: C_2  and  C_4
REMARK    4  A    between atoms: C_7  and  C_8
REMARK    5  A    between atoms: C_8  and  C_10
REMARK    6  A    between atoms: N_12  and  C_13
REMARK    7  A    between atoms: C_19  and  O_20
REMARK                            x       y       z     vdW  Elec       q    Type
REMARK                         _______ _______ _______ _____ _____    ______ ____
ROOT
ATOM      1  C   UNL     1       4.272   4.497  17.802  0.00  0.00    +0.000 A 
ATOM      2  C   UNL     1       4.214   4.379  16.432  0.00  0.00    +0.000 A 
ATOM      3  N   UNL     1       5.521   4.351  16.017  0.00  0.00    +0.000 N 
ATOM      4  N   UNL     1       6.336   4.367  17.103  0.00  0.00    +0.000 NA
ATOM      5  N   UNL     1       5.588   4.520  18.187  0.00  0.00    +0.000 NA
ENDROOT
BRANCH   3   6
ATOM      6  C   UNL     1       6.045   4.296  14.704  0.00  0.00    +0.000 A 
ATOM      7  C   UNL     1       5.441   3.433  13.776  0.00  0.00    +0.000 A 
ATOM      8  C   UNL     1       5.923   3.372  12.470  0.00  0.00    +0.000 A 
ATOM      9 CL   UNL     1       5.142   2.366  11.313  0.00  0.00    +0.000 Cl
ATOM     10  C   UNL     1       7.027   4.133  12.087  0.00  0.00    +0.000 A 
ATOM     11  C   UNL     1       7.649   4.971  13.014  0.00  0.00    +0.000 A 
ATOM     12  C   UNL     1       7.154   5.060  14.317  0.00  0.00    +0.000 A 
BRANCH  12  13
ATOM     13  O   UNL     1       7.818   5.841  15.219  0.00  0.00    +0.000 OA
ATOM     14  H   UNL     1       8.752   5.573  15.262  0.00  0.00    +0.000 HD
ENDBRANCH  12  13
ENDBRANCH   3   6
BRANCH   1  15
ATOM     15  C   UNL     1       3.147   4.546  18.722  0.00  0.00    +0.000 C 
ATOM     16  O   UNL     1       2.592   3.525  19.128  0.00  0.00    +0.000 OA
BRANCH  15  20
ATOM     17  C   UNL     1       1.473   8.319  19.945  0.00  0.00    +0.000 A 
ATOM     18  C   UNL     1       1.477   7.215  20.811  0.00  0.00    +0.000 A 
ATOM     19  C   UNL     1       2.046   5.999  20.417  0.00  0.00    +0.000 A 
ATOM     20  C   UNL     1       2.635   5.872  19.153  0.00  0.00    +0.000 A 
ATOM     21  C   UNL     1       2.645   6.971  18.286  0.00  0.00    +0.000 A 
ATOM     22  C   UNL     1       2.067   8.180  18.681  0.00  0.00    +0.000 A 
BRANCH  17  24
ATOM     23  C   UNL     1       0.008  10.242  19.226  0.00  0.00    +0.000 C 
ATOM     24  C   UNL     1       0.825   9.628  20.366  0.00  0.00    +0.000 C 
ATOM     25  C   UNL     1      -0.049   9.453  21.612  0.00  0.00    +0.000 C 
ENDBRANCH  17  24
ENDBRANCH  15  20
ENDBRANCH   1  15
TORSDOF 5
ENDMDL
MODEL 4
REMARK VINA RESULT:      -8.0      2.698      3.579
REMARK  Name = 
REMARK  7 active torsions:
REMARK  status: ('A' for Active; 'I' for Inactive)
REMARK    1  A    between atoms: C_1  and  C_2
REMARK    2  A    between atoms: C_2  and  C_3
REMARK    3  A    between atoms: C_2  and  C_4
REMARK    4  A    between atoms: C_7  and  C_8
REMARK    5  A    between atoms: C_8  and  C_10
REMARK    6  A    between atoms: N_12  and  C_13
REMARK    7  A    between atoms: C_19  and  O_20
REMARK                            x       y       z     vdW  Elec       q    Type
REMARK                         _______ _______ _______ _____ _____    ______ ____
ROOT
ATOM      1  C   UNL     1       4.269   4.365  17.901  0.00  0.00    +0.000 A 
ATOM      2  C   UNL     1       4.201   4.243  16.532  0.00  0.00    +0.000 A 
ATOM      3  N   UNL     1       5.503   4.298  16.100  0.00  0.00    +0.000 N 
ATOM      4  N   UNL     1       6.329   4.367  17.175  0.00  0.00    +0.000 NA
ATOM      5  N   UNL     1       5.586   4.472  18.269  0.00  0.00    +0.000 NA
ENDROOT
BRANCH   3   6
ATOM      6  C   UNL     1       6.012   4.278  14.781  0.00  0.00    +0.000 A 
ATOM      7  C   UNL     1       5.421   3.410  13.847  0.00  0.00    +0.000 A 
ATOM      8  C   UNL     1       5.889   3.382  12.535  0.00  0.00    +0.000 A 
ATOM      9 CL   UNL     1       5.123   2.371  11.372  0.00  0.00    +0.000 Cl
ATOM     10  C   UNL     1       6.967   4.179  12.150  0.00  0.00    +0.000 A 
ATOM     11  C   UNL     1       7.576   5.021  13.082  0.00  0.00    +0.000 A 
ATOM     12  C   UNL     1       7.095   5.078  14.391  0.00  0.00    +0.000 A 
BRANCH  12  13
ATOM     13  O   UNL     1       7.747   5.864  15.297  0.00  0.00    +0.000 OA
ATOM     14  H   UNL     1       7.747   5.432  16.168  0.00  0.00    +0.000 HD
ENDBRANCH  12  13
ENDBRANCH   3   6
BRANCH   1  15
ATOM     15  C   UNL     1       3.156   4.342  18.836  0.00  0.00    +0.000 C 
ATOM     16  O   UNL     1       2.697   3.289  19.277  0.00  0.00    +0.000 OA
BRANCH  15  20
ATOM     17  C   UNL     1       1.542   8.145  20.046  0.00  0.00    +0.000 A 
ATOM     18  C   UNL     1       2.195   7.996  18.813  0.00  0.00    +0.000 A 
ATOM     19  C   UNL     1       2.694   6.751  18.414  0.00  0.00    +0.000 A 
ATOM     20  C   UNL     1       2.535   5.630  19.238  0.00  0.00    +0.000 A 
ATOM     21  C   UNL     1       1.876   5.767  20.465  0.00  0.00    +0.000 A 
ATOM     22  C   UNL     1       1.388   7.014  20.863  0.00  0.00    +0.000 A 
BRANCH  17  24
ATOM     23  C   UNL     1       0.612  10.366  19.293  0.00  0.00    +0.000 C 
ATOM     24  C   UNL     1       1.030   9.505  20.489  0.00  0.00    +0.000 C 
ATOM     25  C   UNL     1      -0.130   9.378  21.482  0.00  0.00    +0.000 C 
ENDBRANCH  17  24
ENDBRANCH  15  20
ENDBRANCH   1  15
TORSDOF 5
ENDMDL
MODEL 5
REMARK VINA RESULT:      -7.8      0.381      1.270
REMARK  Name = 
REMARK  7 active torsions:
REMARK  status: ('A' for Active; 'I' for Inactive)
REMARK    1  A    between atoms: C_1  and  C_2
REMARK    2  A    between atoms: C_2  and  C_3
REMARK    3  A    between atoms: C_2  and  C_4
REMARK    4  A    between atoms: C_7  and  C_8
REMARK    5  A    between atoms: C_8  and  C_10
REMARK    6  A    between atoms: N_12  and  C_13
REMARK    7  A    between atoms: C_19  and  O_20
REMARK                            x       y       z     vdW  Elec       q    Type
REMARK                         _______ _______ _______ _____ _____    ______ ____
ROOT
ATOM      1  C   UNL     1       6.858   5.452  17.593  0.00  0.00    +0.000 A 
ATOM      2  C   UNL     1       6.602   4.591  16.551  0.00  0.00    +0.000 A 
ATOM      3  N   UNL     1       7.038   5.245  15.426  0.00  0.00    +0.000 N 
ATOM      4  N   UNL     1       7.610   6.422  15.787  0.00  0.00    +0.000 NA
ATOM      5  N   UNL     1       7.448   6.584  17.093  0.00  0.00    +0.000 NA
ENDROOT
BRANCH   3   6
ATOM      6  C   UNL     1       6.968   4.846  14.071  0.00  0.00    +0.000 A 
ATOM      7  C   UNL     1       5.934   3.980  13.679  0.00  0.00    +0.000 A 
ATOM      8  C   UNL     1       5.828   3.585  12.347  0.00  0.00    +0.000 A 
ATOM      9 CL   UNL     1       4.522   2.579  11.852  0.00  0.00    +0.000 Cl
ATOM     10  C   UNL     1       6.764   4.011  11.406  0.00  0.00    +0.000 A 
ATOM     11  C   UNL     1       7.811   4.848  11.796  0.00  0.00    +0.000 A 
ATOM     12  C   UNL     1       7.908   5.272  13.123  0.00  0.00    +0.000 A 
BRANCH  12  13
ATOM     13  O   UNL     1       8.974   6.041  13.490  0.00  0.00    +0.000 OA
ATOM     14  H   UNL     1       8.680   6.751  14.085  0.00  0.00    +0.000 HD
ENDBRANCH  12  13
ENDBRANCH   3   6
BRANCH   1  15
ATOM     15  C   UNL     1       6.600   5.216  19.004  0.00  0.00    +0.000 C 
ATOM     16  O   UNL     1       7.419   5.508  19.874  0.00  0.00    +0.000 OA
BRANCH  15  20
ATOM     17  C   UNL     1       2.887   3.256  19.958  0.00  0.00    +0.000 A 
ATOM     18  C   UNL     1       4.093   2.539  19.912  0.00  0.00    +0.000 A 
ATOM     19  C   UNL     1       5.300   3.187  19.627  0.00  0.00    +0.000 A 
ATOM     20  C   UNL     1       5.323   4.568  19.397  0.00  0.00    +0.000 A 
ATOM     21  C   UNL     1       4.126   5.293  19.451  0.00  0.00    +0.000 A 
ATOM     22  C   UNL     1       2.923   4.640  19.727  0.00  0.00    +0.000 A 
BRANCH  17  24
ATOM     23  C   UNL     1       1.203   2.609  21.720  0.00  0.00    +0.000 C 
ATOM     24  C   UNL     1       1.575   2.543  20.237  0.00  0.00    +0.000 C 
ATOM     25  C   UNL     1       0.435   3.098  19.378  0.00  0.00    +0.000 C 
ENDBRANCH  17  24
ENDBRANCH  15  20
ENDBRANCH   1  15
TORSDOF 5
ENDMDL
MODEL 6
REMARK VINA RESULT:      -7.6      6.418      7.873
REMARK  Name = 
REMARK  7 active torsions:
REMARK  status: ('A' for Active; 'I' for Inactive)
REMARK    1  A    between atoms: C_1  and  C_2
REMARK    2  A    between atoms: C_2  and  C_3
REMARK    3  A    between atoms: C_2  and  C_4
REMARK    4  A    between atoms: C_7  and  C_8
REMARK    5  A    between atoms: C_8  and  C_10
REMARK    6  A    between atoms: N_12  and  C_13
REMARK    7  A    between atoms: C_19  and  O_20
REMARK                            x       y       z     vdW  Elec       q    Type
REMARK                         _______ _______ _______ _____ _____    ______ ____
ROOT
ATOM      1  C   UNL     1       1.727   9.177  18.721  0.00  0.00    +0.000 A 
ATOM      2  C   UNL     1       2.359   8.445  17.741  0.00  0.00    +0.000 A 
ATOM      3  N   UNL     1       2.667   7.244  18.330  0.00  0.00    +0.000 N 
ATOM      4  N   UNL     1       2.165   7.223  19.591  0.00  0.00    +0.000 NA
ATOM      5  N   UNL     1       1.649   8.415  19.858  0.00  0.00    +0.000 NA
ENDROOT
BRANCH   3   6
ATOM      6  C   UNL     1       3.370   6.138  17.798  0.00  0.00    +0.000 A 
ATOM      7  C   UNL     1       4.639   6.357  17.237  0.00  0.00    +0.000 A 
ATOM      8  C   UNL     1       5.364   5.283  16.723  0.00  0.00    +0.000 A 
ATOM      9 CL   UNL     1       6.947   5.538  16.097  0.00  0.00    +0.000 Cl
ATOM     10  C   UNL     1       4.823   3.999  16.726  0.00  0.00    +0.000 A 
ATOM     11  C   UNL     1       3.550   3.781  17.256  0.00  0.00    +0.000 A 
ATOM     12  C   UNL     1       2.829   4.846  17.800  0.00  0.00    +0.000 A 
BRANCH  12  13
ATOM     13  O   UNL     1       1.564   4.616  18.256  0.00  0.00    +0.000 OA
ATOM     14  H   UNL     1       1.138   5.459  18.487  0.00  0.00    +0.000 HD
ENDBRANCH  12  13
ENDBRANCH   3   6
BRANCH   1  15
ATOM     15  C   UNL     1       1.180  10.518  18.593  0.00  0.00    +0.000 C 
ATOM     16  O   UNL     1       1.902  11.512  18.530  0.00  0.00    +0.000 OA
BRANCH  15  20
ATOM     17  C   UNL     1      -3.078  11.111  18.365  0.00  0.00    +0.000 A 
ATOM     18  C   UNL     1      -2.440  10.139  17.579  0.00  0.00    +0.000 A 
ATOM     19  C   UNL     1      -1.059   9.933  17.677  0.00  0.00    +0.000 A 
ATOM     20  C   UNL     1      -0.295  10.688  18.575  0.00  0.00    +0.000 A 
ATOM     21  C   UNL     1      -0.925  11.653  19.371  0.00  0.00    +0.000 A 
ATOM     22  C   UNL     1      -2.301  11.861  19.263  0.00  0.00    +0.000 A 
BRANCH  17  24
ATOM     23  C   UNL     1      -5.078  12.340  19.287  0.00  0.00    +0.000 C 
ATOM     24  C   UNL     1      -4.572  11.352  18.232  0.00  0.00    +0.000 C 
ATOM     25  C   UNL     1      -4.945  11.837  16.828  0.00  0.00    +0.000 C 
ENDBRANCH  17  24
ENDBRANCH  15  20
ENDBRANCH   1  15
TORSDOF 5
ENDMDL
MODEL 7
REMARK VINA RESULT:      -7.5      4.702      8.384
REMARK  Name = 
REMARK  7 active torsions:
REMARK  status: ('A' for Active; 'I' for Inactive)
REMARK    1  A    between atoms: C_1  and  C_2
REMARK    2  A    between atoms: C_2  and  C_3
REMARK    3  A    between atoms: C_2  and  C_4
REMARK    4  A    between atoms: C_7  and  C_8
REMARK    5  A    between atoms: C_8  and  C_10
REMARK    6  A    between atoms: N_12  and  C_13
REMARK    7  A    between atoms: C_19  and  O_20
REMARK                            x       y       z     vdW  Elec       q    Type
REMARK                         _______ _______ _______ _____ _____    ______ ____
ROOT
ATOM      1  C   UNL     1       3.708   6.352  18.456  0.00  0.00    +0.000 A 
ATOM      2  C   UNL     1       2.750   6.683  19.386  0.00  0.00    +0.000 A 
ATOM      3  N   UNL     1       2.303   7.927  19.017  0.00  0.00    +0.000 N 
ATOM      4  N   UNL     1       2.911   8.295  17.860  0.00  0.00    +0.000 NA
ATOM      5  N   UNL     1       3.811   7.373  17.547  0.00  0.00    +0.000 NA
ENDROOT
BRANCH   3   6
ATOM      6  C   UNL     1       1.359   8.767  19.652  0.00  0.00    +0.000 A 
ATOM      7  C   UNL     1       1.195   8.660  21.043  0.00  0.00    +0.000 A 
ATOM      8  C   UNL     1       0.286   9.488  21.699  0.00  0.00    +0.000 A 
ATOM      9 CL   UNL     1       0.132   9.406  23.411  0.00  0.00    +0.000 Cl
ATOM     10  C   UNL     1      -0.491  10.395  20.981  0.00  0.00    +0.000 A 
ATOM     11  C   UNL     1      -0.352  10.485  19.595  0.00  0.00    +0.000 A 
ATOM     12  C   UNL     1       0.577   9.680  18.933  0.00  0.00    +0.000 A 
BRANCH  12  13
ATOM     13  O   UNL     1       0.649   9.745  17.571  0.00  0.00    +0.000 OA
ATOM     14  H   UNL     1      -0.181  10.104  17.214  0.00  0.00    +0.000 HD
ENDBRANCH  12  13
ENDBRANCH   3   6
BRANCH   1  15
ATOM     15  C   UNL     1       4.471   5.116  18.390  0.00  0.00    +0.000 C 
ATOM     16  O   UNL     1       4.583   4.367  19.361  0.00  0.00    +0.000 OA
BRANCH  15  20
ATOM     17  C   UNL     1       6.480   4.313  14.668  0.00  0.00    +0.000 A 
ATOM     18  C   UNL     1       7.174   4.846  15.765  0.00  0.00    +0.000 A 
ATOM     19  C   UNL     1       6.521   5.081  16.980  0.00  0.00    +0.000 A 
ATOM     20  C   UNL     1       5.163   4.770  17.122  0.00  0.00    +0.000 A 
ATOM     21  C   UNL     1       4.464   4.228  16.037  0.00  0.00    +0.000 A 
ATOM     22  C   UNL     1       5.118   4.005  14.824  0.00  0.00    +0.000 A 
BRANCH  17  24
ATOM     23  C   UNL     1       6.236   3.506  12.291  0.00  0.00    +0.000 C 
ATOM     24  C   UNL     1       7.185   4.090  13.341  0.00  0.00    +0.000 C 
ATOM     25  C   UNL     1       7.828   5.378  12.818  0.00  0.00    +0.000 C 
ENDBRANCH  17  24
ENDBRANCH  15  20
ENDBRANCH   1  15
TORSDOF 5
ENDMDL
MODEL 8
REMARK VINA RESULT:      -7.5      3.021      3.829
REMARK  Name = 
REMARK  7 active torsions:
REMARK  status: ('A' for Active; 'I' for Inactive)
REMARK    1  A    between atoms: C_1  and  C_2
REMARK    2  A    between atoms: C_2  and  C_3
REMARK    3  A    between atoms: C_2  and  C_4
REMARK    4  A    between atoms: C_7  and  C_8
REMARK    5  A    between atoms: C_8  and  C_10
REMARK    6  A    between atoms: N_12  and  C_13
REMARK    7  A    between atoms: C_19  and  O_20
REMARK                            x       y       z     vdW  Elec       q    Type
REMARK                         _______ _______ _______ _____ _____    ______ ____
ROOT
ATOM      1  C   UNL     1       4.371   5.798  17.397  0.00  0.00    +0.000 A 
ATOM      2  C   UNL     1       4.541   4.826  16.438  0.00  0.00    +0.000 A 
ATOM      3  N   UNL     1       5.419   5.363  15.530  0.00  0.00    +0.000 N 
ATOM      4  N   UNL     1       5.827   6.581  15.970  0.00  0.00    +0.000 NA
ATOM      5  N   UNL     1       5.147   6.879  17.069  0.00  0.00    +0.000 NA
ENDROOT
BRANCH   3   6
ATOM      6  C   UNL     1       5.900   4.820  14.317  0.00  0.00    +0.000 A 
ATOM      7  C   UNL     1       5.026   4.047  13.534  0.00  0.00    +0.000 A 
ATOM      8  C   UNL     1       5.466   3.516  12.323  0.00  0.00    +0.000 A 
ATOM      9 CL   UNL     1       4.377   2.627  11.331  0.00  0.00    +0.000 Cl
ATOM     10  C   UNL     1       6.780   3.711  11.901  0.00  0.00    +0.000 A 
ATOM     11  C   UNL     1       7.661   4.454  12.689  0.00  0.00    +0.000 A 
ATOM     12  C   UNL     1       7.220   5.015  13.889  0.00  0.00    +0.000 A 
BRANCH  12  13
ATOM     13  O   UNL     1       8.118   5.685  14.668  0.00  0.00    +0.000 OA
ATOM     14  H   UNL     1       8.993   5.677  14.245  0.00  0.00    +0.000 HD
ENDBRANCH  12  13
ENDBRANCH   3   6
BRANCH   1  15
ATOM     15  C   UNL     1       3.550   5.710  18.593  0.00  0.00    +0.000 C 
ATOM     16  O   UNL     1       3.551   4.711  19.312  0.00  0.00    +0.000 OA
BRANCH  15  20
ATOM     17  C   UNL     1       1.125   9.130  19.572  0.00  0.00    +0.000 A 
ATOM     18  C   UNL     1       1.602   8.931  18.268  0.00  0.00    +0.000 A 
ATOM     19  C   UNL     1       2.368   7.804  17.950  0.00  0.00    +0.000 A 
ATOM     20  C   UNL     1       2.657   6.848  18.931  0.00  0.00    +0.000 A 
ATOM     21  C   UNL     1       2.177   7.033  20.234  0.00  0.00    +0.000 A 
ATOM     22  C   UNL     1       1.421   8.164  20.548  0.00  0.00    +0.000 A 
BRANCH  17  24
ATOM     23  C   UNL     1      -0.906  10.518  19.016  0.00  0.00    +0.000 C 
ATOM     24  C   UNL     1       0.321  10.371  19.920  0.00  0.00    +0.000 C 
ATOM     25  C   UNL     1      -0.100  10.380  21.393  0.00  0.00    +0.000 C 
ENDBRANCH  17  24
ENDBRANCH  15  20
ENDBRANCH   1  15
TORSDOF 5
ENDMDL
MODEL 9
REMARK VINA RESULT:      -7.5      4.912      6.589
REMARK  Name = 
REMARK  7 active torsions:
REMARK  status: ('A' for Active; 'I' for Inactive)
REMARK    1  A    between atoms: C_1  and  C_2
REMARK    2  A    between atoms: C_2  and  C_3
REMARK    3  A    between atoms: C_2  and  C_4
REMARK    4  A    between atoms: C_7  and  C_8
REMARK    5  A    between atoms: C_8  and  C_10
REMARK    6  A    between atoms: N_12  and  C_13
REMARK    7  A    between atoms: C_19  and  O_20
REMARK                            x       y       z     vdW  Elec       q    Type
REMARK                         _______ _______ _______ _____ _____    ______ ____
ROOT
ATOM      1  C   UNL     1       7.444   7.351  17.749  0.00  0.00    +0.000 A 
ATOM      2  C   UNL     1       7.757   8.676  17.542  0.00  0.00    +0.000 A 
ATOM      3  N   UNL     1       8.621   9.005  18.556  0.00  0.00    +0.000 N 
ATOM      4  N   UNL     1       8.884   7.898  19.297  0.00  0.00    +0.000 NA
ATOM      5  N   UNL     1       8.124   6.906  18.853  0.00  0.00    +0.000 NA
ENDROOT
BRANCH   3   6
ATOM      6  C   UNL     1       9.214  10.252  18.861  0.00  0.00    +0.000 A 
ATOM      7  C   UNL     1       9.722  11.029  17.806  0.00  0.00    +0.000 A 
ATOM      8  C   UNL     1      10.294  12.272  18.074  0.00  0.00    +0.000 A 
ATOM      9 CL   UNL     1      10.854  13.255  16.778  0.00  0.00    +0.000 Cl
ATOM     10  C   UNL     1      10.402  12.733  19.385  0.00  0.00    +0.000 A 
ATOM     11  C   UNL     1       9.925  11.952  20.439  0.00  0.00    +0.000 A 
ATOM     12  C   UNL     1       9.324  10.719  20.177  0.00  0.00    +0.000 A 
BRANCH  12  13
ATOM     13  O   UNL     1       8.921   9.949  21.230  0.00  0.00    +0.000 OA
ATOM     14  H   UNL     1       9.667   9.413  21.550  0.00  0.00    +0.000 HD
ENDBRANCH  12  13
ENDBRANCH   3   6
BRANCH   1  15
ATOM     15  C   UNL     1       6.577   6.521  16.929  0.00  0.00    +0.000 C 
ATOM     16  O   UNL     1       6.853   6.244  15.762  0.00  0.00    +0.000 OA
BRANCH  15  20
ATOM     17  C   UNL     1       2.854   4.981  18.445  0.00  0.00    +0.000 A 
ATOM     18  C   UNL     1       4.000   4.173  18.384  0.00  0.00    +0.000 A 
ATOM     19  C   UNL     1       5.214   4.687  17.914  0.00  0.00    +0.000 A 
ATOM     20  C   UNL     1       5.304   6.025  17.512  0.00  0.00    +0.000 A 
ATOM     21  C   UNL     1       4.169   6.842  17.578  0.00  0.00    +0.000 A 
ATOM     22  C   UNL     1       2.958   6.321  18.039  0.00  0.00    +0.000 A 
BRANCH  17  24
ATOM     23  C   UNL     1       1.343   2.962  18.464  0.00  0.00    +0.000 C 
ATOM     24  C   UNL     1       1.531   4.409  18.926  0.00  0.00    +0.000 C 
ATOM     25  C   UNL     1       1.393   4.503  20.449  0.00  0.00    +0.000 C 
ENDBRANCH  17  24
ENDBRANCH  15  20
ENDBRANCH   1  15
TORSDOF 5
ENDMDL
