MODEL 1
REMARK VINA RESULT:      -7.4      0.000      0.000
REMARK  Name = 
REMARK  2 active torsions:
REMARK  status: ('A' for Active; 'I' for Inactive)
REMARK    1  A    between atoms: C_1  and  N_2
REMARK    2  A    between atoms: N_5  and  C_6
REMARK                            x       y       z     vdW  Elec       q    Type
REMARK                         _______ _______ _______ _____ _____    ______ ____
ROOT
ATOM      1  C   UNL     1       3.962   5.342  19.415  0.00  0.00    +0.000 C 
ATOM      2  C   UNL     1       5.482   5.543  19.296  0.00  0.00    +0.000 C 
ATOM      3  N   UNL     1       6.021   5.333  17.948  0.00  0.00    +0.000 N 
ATOM      4  C   UNL     1       7.061   4.507  17.682  0.00  0.00    +0.000 A 
ATOM      5  C   UNL     1       7.385   4.554  16.340  0.00  0.00    +0.000 A 
ATOM      6  C   UNL     1       6.500   5.427  15.763  0.00  0.00    +0.000 A 
ATOM      7  C   UNL     1       5.671   5.884  16.767  0.00  0.00    +0.000 A 
ATOM      8  S   UNL     1       4.357   7.021  16.364  0.00  0.00    +0.000 S 
ATOM      9  C   UNL     1       3.339   7.361  17.810  0.00  0.00    +0.000 A 
ATOM     10  C   UNL     1       2.574   8.529  17.629  0.00  0.00    +0.000 A 
ATOM     11  C   UNL     1       1.692   8.984  18.598  0.00  0.00    +0.000 A 
ATOM     12  C   UNL     1       1.565   8.293  19.790  0.00  0.00    +0.000 A 
ATOM     13 CL   UNL     1       0.444   8.857  21.017  0.00  0.00    +0.000 Cl
ATOM     14  C   UNL     1       2.323   7.146  20.009  0.00  0.00    +0.000 A 
ATOM     15  C   UNL     1       3.213   6.630  19.029  0.00  0.00    +0.000 A 
ENDROOT
BRANCH   1  20
ATOM     16  C   UNL     1       1.217   2.315  21.958  0.00  0.00    +0.000 C 
ATOM     17  N   UNL     1       1.843   2.495  20.633  0.00  0.00    +0.000 NA
ATOM     18  C   UNL     1       3.312   2.565  20.772  0.00  0.00    +0.000 C 
ATOM     19  C   UNL     1       3.987   2.846  19.404  0.00  0.00    +0.000 C 
ATOM     20  N   UNL     1       3.476   4.087  18.756  0.00  0.00    +0.000 NA
ATOM     21  C   UNL     1       2.002   3.963  18.636  0.00  0.00    +0.000 C 
ATOM     22  C   UNL     1       1.318   3.713  19.995  0.00  0.00    +0.000 C 
ENDBRANCH   1  20
TORSDOF 1
ENDMDL
MODEL 2
REMARK VINA RESULT:      -6.6      1.998      4.820
REMARK  Name = 
REMARK  2 active torsions:
REMARK  status: ('A' for Active; 'I' for Inactive)
REMARK    1  A    between atoms: C_1  and  N_2
REMARK    2  A    between atoms: N_5  and  C_6
REMARK                            x       y       z     vdW  Elec       q    Type
REMARK                         _______ _______ _______ _____ _____    ______ ____
ROOT
ATOM      1  C   UNL     1       3.169   5.642  17.765  0.00  0.00    +0.000 C 
ATOM      2  C   UNL     1       2.127   4.526  17.581  0.00  0.00    +0.000 C 
ATOM      3  N   UNL     1       2.036   3.588  18.705  0.00  0.00    +0.000 N 
ATOM      4  C   UNL     1       2.113   2.243  18.561  0.00  0.00    +0.000 A 
ATOM      5  C   UNL     1       1.936   1.615  19.779  0.00  0.00    +0.000 A 
ATOM      6  C   UNL     1       1.762   2.613  20.703  0.00  0.00    +0.000 A 
ATOM      7  C   UNL     1       1.835   3.811  20.021  0.00  0.00    +0.000 A 
ATOM      8  S   UNL     1       1.688   5.341  20.927  0.00  0.00    +0.000 S 
ATOM      9  C   UNL     1       1.950   6.754  19.842  0.00  0.00    +0.000 A 
ATOM     10  C   UNL     1       1.451   7.937  20.421  0.00  0.00    +0.000 A 
ATOM     11  C   UNL     1       1.558   9.165  19.785  0.00  0.00    +0.000 A 
ATOM     12  C   UNL     1       2.150   9.242  18.536  0.00  0.00    +0.000 A 
ATOM     13 CL   UNL     1       2.296  10.793  17.728  0.00  0.00    +0.000 Cl
ATOM     14  C   UNL     1       2.633   8.087  17.927  0.00  0.00    +0.000 A 
ATOM     15  C   UNL     1       2.572   6.816  18.559  0.00  0.00    +0.000 A 
ENDROOT
BRANCH   1  20
ATOM     16  C   UNL     1       6.721   5.074  14.567  0.00  0.00    +0.000 C 
ATOM     17  N   UNL     1       6.400   4.914  15.999  0.00  0.00    +0.000 NA
ATOM     18  C   UNL     1       5.299   3.943  16.166  0.00  0.00    +0.000 C 
ATOM     19  C   UNL     1       4.881   3.828  17.655  0.00  0.00    +0.000 C 
ATOM     20  N   UNL     1       4.497   5.140  18.248  0.00  0.00    +0.000 NA
ATOM     21  C   UNL     1       5.634   6.074  18.058  0.00  0.00    +0.000 C 
ATOM     22  C   UNL     1       6.039   6.220  16.578  0.00  0.00    +0.000 C 
ENDBRANCH   1  20
TORSDOF 1
ENDMDL
MODEL 3
REMARK VINA RESULT:      -6.0      5.488      8.558
REMARK  Name = 
REMARK  2 active torsions:
REMARK  status: ('A' for Active; 'I' for Inactive)
REMARK    1  A    between atoms: C_1  and  N_2
REMARK    2  A    between atoms: N_5  and  C_6
REMARK                            x       y       z     vdW  Elec       q    Type
REMARK                         _______ _______ _______ _____ _____    ______ ____
ROOT
ATOM      1  C   UNL     1       0.419  12.114  19.669  0.00  0.00    +0.000 C 
ATOM      2  C   UNL     1       0.122  10.985  18.667  0.00  0.00    +0.000 C 
ATOM      3  N   UNL     1       0.961   9.793  18.828  0.00  0.00    +0.000 N 
ATOM      4  C   UNL     1       1.657   9.229  17.811  0.00  0.00    +0.000 A 
ATOM      5  C   UNL     1       2.306   8.089  18.244  0.00  0.00    +0.000 A 
ATOM      6  C   UNL     1       2.010   7.961  19.576  0.00  0.00    +0.000 A 
ATOM      7  C   UNL     1       1.191   9.020  19.911  0.00  0.00    +0.000 A 
ATOM      8  S   UNL     1       0.636   9.195  21.597  0.00  0.00    +0.000 S 
ATOM      9  C   UNL     1      -0.302  10.718  21.807  0.00  0.00    +0.000 A 
ATOM     10  C   UNL     1      -1.074  10.680  22.984  0.00  0.00    +0.000 A 
ATOM     11  C   UNL     1      -1.865  11.750  23.375  0.00  0.00    +0.000 A 
ATOM     12  C   UNL     1      -1.924  12.885  22.586  0.00  0.00    +0.000 A 
ATOM     13 CL   UNL     1      -2.915  14.246  23.079  0.00  0.00    +0.000 Cl
ATOM     14  C   UNL     1      -1.189  12.946  21.405  0.00  0.00    +0.000 A 
ATOM     15  C   UNL     1      -0.343  11.885  20.986  0.00  0.00    +0.000 A 
ENDROOT
BRANCH   1  20
ATOM     16  C   UNL     1       1.951  16.588  18.779  0.00  0.00    +0.000 C 
ATOM     17  N   UNL     1       2.425  15.246  19.169  0.00  0.00    +0.000 NA
ATOM     18  C   UNL     1       2.116  14.270  18.104  0.00  0.00    +0.000 C 
ATOM     19  C   UNL     1       2.520  12.835  18.530  0.00  0.00    +0.000 C 
ATOM     20  N   UNL     1       1.881  12.413  19.808  0.00  0.00    +0.000 NA
ATOM     21  C   UNL     1       2.226  13.421  20.842  0.00  0.00    +0.000 C 
ATOM     22  C   UNL     1       1.801  14.847  20.442  0.00  0.00    +0.000 C 
ENDBRANCH   1  20
TORSDOF 1
ENDMDL
MODEL 4
REMARK VINA RESULT:      -5.7      9.786     11.589
REMARK  Name = 
REMARK  2 active torsions:
REMARK  status: ('A' for Active; 'I' for Inactive)
REMARK    1  A    between atoms: C_1  and  N_2
REMARK    2  A    between atoms: N_5  and  C_6
REMARK                            x       y       z     vdW  Elec       q    Type
REMARK                         _______ _______ _______ _____ _____    ______ ____
ROOT
ATOM      1  C   UNL     1       8.667  14.528  19.511  0.00  0.00    +0.000 C 
ATOM      2  C   UNL     1       8.188  15.564  18.480  0.00  0.00    +0.000 C 
ATOM      3  N   UNL     1       9.182  16.585  18.135  0.00  0.00    +0.000 N 
ATOM      4  C   UNL     1       8.932  17.915  18.185  0.00  0.00    +0.000 A 
ATOM      5  C   UNL     1      10.032  18.630  17.751  0.00  0.00    +0.000 A 
ATOM      6  C   UNL     1      10.994  17.704  17.440  0.00  0.00    +0.000 A 
ATOM      7  C   UNL     1      10.452  16.460  17.692  0.00  0.00    +0.000 A 
ATOM      8  S   UNL     1      11.450  15.004  17.433  0.00  0.00    +0.000 S 
ATOM      9  C   UNL     1      10.569  13.523  17.956  0.00  0.00    +0.000 A 
ATOM     10  C   UNL     1      11.149  12.366  17.403  0.00  0.00    +0.000 A 
ATOM     11  C   UNL     1      10.660  11.098  17.680  0.00  0.00    +0.000 A 
ATOM     12  C   UNL     1       9.558  10.952  18.505  0.00  0.00    +0.000 A 
ATOM     13 CL   UNL     1       8.939   9.350  18.867  0.00  0.00    +0.000 Cl
ATOM     14  C   UNL     1       8.948  12.078  19.051  0.00  0.00    +0.000 A 
ATOM     15  C   UNL     1       9.438  13.391  18.818  0.00  0.00    +0.000 A 
ENDROOT
BRANCH   1  20
ATOM     16  C   UNL     1       6.975  13.529  23.904  0.00  0.00    +0.000 C 
ATOM     17  N   UNL     1       8.015  14.305  23.200  0.00  0.00    +0.000 NA
ATOM     18  C   UNL     1       7.387  15.290  22.296  0.00  0.00    +0.000 C 
ATOM     19  C   UNL     1       8.459  16.054  21.475  0.00  0.00    +0.000 C 
ATOM     20  N   UNL     1       9.345  15.142  20.698  0.00  0.00    +0.000 NA
ATOM     21  C   UNL     1       9.952  14.179  21.650  0.00  0.00    +0.000 C 
ATOM     22  C   UNL     1       8.895  13.393  22.450  0.00  0.00    +0.000 C 
ENDBRANCH   1  20
TORSDOF 1
ENDMDL
MODEL 5
REMARK VINA RESULT:      -5.5      5.980      9.053
REMARK  Name = 
REMARK  2 active torsions:
REMARK  status: ('A' for Active; 'I' for Inactive)
REMARK    1  A    between atoms: C_1  and  N_2
REMARK    2  A    between atoms: N_5  and  C_6
REMARK                            x       y       z     vdW  Elec       q    Type
REMARK                         _______ _______ _______ _____ _____    ______ ____
ROOT
ATOM      1  C   UNL     1      -0.067  12.202  20.025  0.00  0.00    +0.000 C 
ATOM      2  C   UNL     1      -0.234  10.857  19.298  0.00  0.00    +0.000 C 
ATOM      3  N   UNL     1       0.524   9.749  19.886  0.00  0.00    +0.000 N 
ATOM      4  C   UNL     1       1.358   8.954  19.172  0.00  0.00    +0.000 A 
ATOM      5  C   UNL     1       1.887   7.963  19.975  0.00  0.00    +0.000 A 
ATOM      6  C   UNL     1       1.371   8.168  21.229  0.00  0.00    +0.000 A 
ATOM      7  C   UNL     1       0.546   9.272  21.149  0.00  0.00    +0.000 A 
ATOM      8  S   UNL     1      -0.273   9.857  22.622  0.00  0.00    +0.000 S 
ATOM      9  C   UNL     1      -1.178  11.378  22.289  0.00  0.00    +0.000 A 
ATOM     10  C   UNL     1      -2.134  11.629  23.292  0.00  0.00    +0.000 A 
ATOM     11  C   UNL     1      -2.941  12.757  23.268  0.00  0.00    +0.000 A 
ATOM     12  C   UNL     1      -2.829  13.659  22.224  0.00  0.00    +0.000 A 
ATOM     13 CL   UNL     1      -3.840  15.093  22.192  0.00  0.00    +0.000 Cl
ATOM     14  C   UNL     1      -1.908  13.429  21.206  0.00  0.00    +0.000 A 
ATOM     15  C   UNL     1      -1.042  12.303  21.210  0.00  0.00    +0.000 A 
ENDROOT
BRANCH   1  20
ATOM     16  C   UNL     1       1.700  16.400  18.471  0.00  0.00    +0.000 C 
ATOM     17  N   UNL     1       2.072  15.175  19.205  0.00  0.00    +0.000 NA
ATOM     18  C   UNL     1       1.910  13.993  18.333  0.00  0.00    +0.000 C 
ATOM     19  C   UNL     1       2.205  12.685  19.111  0.00  0.00    +0.000 C 
ATOM     20  N   UNL     1       1.363  12.537  20.330  0.00  0.00    +0.000 NA
ATOM     21  C   UNL     1       1.565  13.744  21.170  0.00  0.00    +0.000 C 
ATOM     22  C   UNL     1       1.244  15.049  20.417  0.00  0.00    +0.000 C 
ENDBRANCH   1  20
TORSDOF 1
ENDMDL
MODEL 6
REMARK VINA RESULT:      -5.4      9.619     10.699
REMARK  Name = 
REMARK  2 active torsions:
REMARK  status: ('A' for Active; 'I' for Inactive)
REMARK    1  A    between atoms: C_1  and  N_2
REMARK    2  A    between atoms: N_5  and  C_6
REMARK                            x       y       z     vdW  Elec       q    Type
REMARK                         _______ _______ _______ _____ _____    ______ ____
ROOT
ATOM      1  C   UNL     1       9.670  13.295  21.768  0.00  0.00    +0.000 C 
ATOM      2  C   UNL     1      10.405  12.171  21.019  0.00  0.00    +0.000 C 
ATOM      3  N   UNL     1       9.720  11.693  19.814  0.00  0.00    +0.000 N 
ATOM      4  C   UNL     1       9.451  10.387  19.578  0.00  0.00    +0.000 A 
ATOM      5  C   UNL     1       8.854  10.232  18.342  0.00  0.00    +0.000 A 
ATOM      6  C   UNL     1       8.739  11.490  17.811  0.00  0.00    +0.000 A 
ATOM      7  C   UNL     1       9.269  12.367  18.734  0.00  0.00    +0.000 A 
ATOM      8  S   UNL     1       9.250  14.117  18.387  0.00  0.00    +0.000 S 
ATOM      9  C   UNL     1       9.872  15.055  19.793  0.00  0.00    +0.000 A 
ATOM     10  C   UNL     1      10.241  16.359  19.410  0.00  0.00    +0.000 A 
ATOM     11  C   UNL     1      10.727  17.281  20.325  0.00  0.00    +0.000 A 
ATOM     12  C   UNL     1      10.879  16.917  21.652  0.00  0.00    +0.000 A 
ATOM     13 CL   UNL     1      11.484  18.081  22.817  0.00  0.00    +0.000 Cl
ATOM     14  C   UNL     1      10.543  15.629  22.059  0.00  0.00    +0.000 A 
ATOM     15  C   UNL     1      10.012  14.666  21.159  0.00  0.00    +0.000 A 
ENDROOT
BRANCH   1  20
ATOM     16  C   UNL     1       7.927  13.231  26.253  0.00  0.00    +0.000 C 
ATOM     17  N   UNL     1       7.532  13.051  24.842  0.00  0.00    +0.000 NA
ATOM     18  C   UNL     1       8.276  11.922  24.248  0.00  0.00    +0.000 C 
ATOM     19  C   UNL     1       7.947  11.772  22.740  0.00  0.00    +0.000 C 
ATOM     20  N   UNL     1       8.210  13.019  21.967  0.00  0.00    +0.000 NA
ATOM     21  C   UNL     1       7.438  14.117  22.601  0.00  0.00    +0.000 C 
ATOM     22  C   UNL     1       7.780  14.294  24.093  0.00  0.00    +0.000 C 
ENDBRANCH   1  20
TORSDOF 1
ENDMDL
MODEL 7
REMARK VINA RESULT:      -5.4      5.924      9.324
REMARK  Name = 
REMARK  2 active torsions:
REMARK  status: ('A' for Active; 'I' for Inactive)
REMARK    1  A    between atoms: C_1  and  N_2
REMARK    2  A    between atoms: N_5  and  C_6
REMARK                            x       y       z     vdW  Elec       q    Type
REMARK                         _______ _______ _______ _____ _____    ______ ____
ROOT
ATOM      1  C   UNL     1      -1.203  11.356  18.584  0.00  0.00    +0.000 C 
ATOM      2  C   UNL     1      -1.064  12.752  19.212  0.00  0.00    +0.000 C 
ATOM      3  N   UNL     1      -1.802  12.933  20.466  0.00  0.00    +0.000 N 
ATOM      4  C   UNL     1      -2.661  13.957  20.684  0.00  0.00    +0.000 A 
ATOM      5  C   UNL     1      -3.163  13.902  21.970  0.00  0.00    +0.000 A 
ATOM      6  C   UNL     1      -2.601  12.796  22.554  0.00  0.00    +0.000 A 
ATOM      7  C   UNL     1      -1.779  12.216  21.610  0.00  0.00    +0.000 A 
ATOM      8  S   UNL     1      -0.907  10.714  22.018  0.00  0.00    +0.000 S 
ATOM      9  C   UNL     1      -0.012  10.086  20.587  0.00  0.00    +0.000 A 
ATOM     10  C   UNL     1       0.980   9.163  20.973  0.00  0.00    +0.000 A 
ATOM     11  C   UNL     1       1.786   8.523  20.044  0.00  0.00    +0.000 A 
ATOM     12  C   UNL     1       1.638   8.805  18.697  0.00  0.00    +0.000 A 
ATOM     13 CL   UNL     1       2.649   7.992  17.515  0.00  0.00    +0.000 Cl
ATOM     14  C   UNL     1       0.681   9.728  18.283  0.00  0.00    +0.000 A 
ATOM     15  C   UNL     1      -0.185  10.380  19.201  0.00  0.00    +0.000 A 
ENDROOT
BRANCH   1  20
ATOM     16  C   UNL     1      -3.071  10.151  14.315  0.00  0.00    +0.000 C 
ATOM     17  N   UNL     1      -3.400  10.245  15.751  0.00  0.00    +0.000 NA
ATOM     18  C   UNL     1      -3.267  11.643  16.211  0.00  0.00    +0.000 C 
ATOM     19  C   UNL     1      -3.517  11.753  17.737  0.00  0.00    +0.000 C 
ATOM     20  N   UNL     1      -2.620  10.868  18.532  0.00  0.00    +0.000 NA
ATOM     21  C   UNL     1      -2.795   9.480  18.035  0.00  0.00    +0.000 C 
ATOM     22  C   UNL     1      -2.518   9.354  16.524  0.00  0.00    +0.000 C 
ENDBRANCH   1  20
TORSDOF 1
ENDMDL
MODEL 8
REMARK VINA RESULT:      -5.3      9.976     11.941
REMARK  Name = 
REMARK  2 active torsions:
REMARK  status: ('A' for Active; 'I' for Inactive)
REMARK    1  A    between atoms: C_1  and  N_2
REMARK    2  A    between atoms: N_5  and  C_6
REMARK                            x       y       z     vdW  Elec       q    Type
REMARK                         _______ _______ _______ _____ _____    ______ ____
ROOT
ATOM      1  C   UNL     1       8.724  15.047  18.220  0.00  0.00    +0.000 C 
ATOM      2  C   UNL     1       9.472  15.927  17.204  0.00  0.00    +0.000 C 
ATOM      3  N   UNL     1      10.519  16.773  17.786  0.00  0.00    +0.000 N 
ATOM      4  C   UNL     1      10.598  18.109  17.576  0.00  0.00    +0.000 A 
ATOM      5  C   UNL     1      11.716  18.630  18.199  0.00  0.00    +0.000 A 
ATOM      6  C   UNL     1      12.332  17.578  18.825  0.00  0.00    +0.000 A 
ATOM      7  C   UNL     1      11.575  16.454  18.563  0.00  0.00    +0.000 A 
ATOM      8  S   UNL     1      12.067  14.889  19.263  0.00  0.00    +0.000 S 
ATOM      9  C   UNL     1      10.853  13.612  18.890  0.00  0.00    +0.000 A 
ATOM     10  C   UNL     1      11.397  12.326  19.070  0.00  0.00    +0.000 A 
ATOM     11  C   UNL     1      10.646  11.178  18.867  0.00  0.00    +0.000 A 
ATOM     12  C   UNL     1       9.329  11.283  18.455  0.00  0.00    +0.000 A 
ATOM     13 CL   UNL     1       8.370   9.835  18.204  0.00  0.00    +0.000 Cl
ATOM     14  C   UNL     1       8.767  12.540  18.247  0.00  0.00    +0.000 A 
ATOM     15  C   UNL     1       9.493  13.739  18.475  0.00  0.00    +0.000 A 
ENDROOT
BRANCH   1  20
ATOM     16  C   UNL     1       4.014  15.527  19.086  0.00  0.00    +0.000 C 
ATOM     17  N   UNL     1       5.343  15.884  19.619  0.00  0.00    +0.000 NA
ATOM     18  C   UNL     1       6.075  16.716  18.641  0.00  0.00    +0.000 C 
ATOM     19  C   UNL     1       7.510  17.026  19.139  0.00  0.00    +0.000 C 
ATOM     20  N   UNL     1       8.291  15.795  19.446  0.00  0.00    +0.000 NA
ATOM     21  C   UNL     1       7.517  15.000  20.432  0.00  0.00    +0.000 C 
ATOM     22  C   UNL     1       6.099  14.660  19.935  0.00  0.00    +0.000 C 
ENDBRANCH   1  20
TORSDOF 1
ENDMDL
MODEL 9
REMARK VINA RESULT:      -5.2      7.764     10.935
REMARK  Name = 
REMARK  2 active torsions:
REMARK  status: ('A' for Active; 'I' for Inactive)
REMARK    1  A    between atoms: C_1  and  N_2
REMARK    2  A    between atoms: N_5  and  C_6
REMARK                            x       y       z     vdW  Elec       q    Type
REMARK                         _______ _______ _______ _____ _____    ______ ____
ROOT
ATOM      1  C   UNL     1      -1.390  12.655  20.833  0.00  0.00    +0.000 C 
ATOM      2  C   UNL     1      -2.440  12.299  21.898  0.00  0.00    +0.000 C 
ATOM      3  N   UNL     1      -3.763  12.890  21.672  0.00  0.00    +0.000 N 
ATOM      4  C   UNL     1      -4.430  13.603  22.611  0.00  0.00    +0.000 A 
ATOM      5  C   UNL     1      -5.671  13.983  22.137  0.00  0.00    +0.000 A 
ATOM      6  C   UNL     1      -5.758  13.500  20.857  0.00  0.00    +0.000 A 
ATOM      7  C   UNL     1      -4.574  12.841  20.594  0.00  0.00    +0.000 A 
ATOM      8  S   UNL     1      -4.320  12.112  18.986  0.00  0.00    +0.000 S 
ATOM      9  C   UNL     1      -2.657  11.433  18.847  0.00  0.00    +0.000 A 
ATOM     10  C   UNL     1      -2.569  10.521  17.778  0.00  0.00    +0.000 A 
ATOM     11  C   UNL     1      -1.380   9.884  17.455  0.00  0.00    +0.000 A 
ATOM     12  C   UNL     1      -0.245  10.126  18.209  0.00  0.00    +0.000 A 
ATOM     13 CL   UNL     1       1.265   9.330  17.801  0.00  0.00    +0.000 Cl
ATOM     14  C   UNL     1      -0.304  11.005  19.286  0.00  0.00    +0.000 A 
ATOM     15  C   UNL     1      -1.494  11.702  19.629  0.00  0.00    +0.000 A 
ENDROOT
BRANCH   1  20
ATOM     16  C   UNL     1       2.705  15.081  21.545  0.00  0.00    +0.000 C 
ATOM     17  N   UNL     1       1.312  15.247  21.084  0.00  0.00    +0.000 NA
ATOM     18  C   UNL     1       0.374  14.906  22.174  0.00  0.00    +0.000 C 
ATOM     19  C   UNL     1      -1.096  14.982  21.686  0.00  0.00    +0.000 C 
ATOM     20  N   UNL     1      -1.355  14.117  20.501  0.00  0.00    +0.000 NA
ATOM     21  C   UNL     1      -0.393  14.502  19.439  0.00  0.00    +0.000 C 
ATOM     22  C   UNL     1       1.073  14.401  19.903  0.00  0.00    +0.000 C 
ENDBRANCH   1  20
TORSDOF 1
ENDMDL
