MODEL 1
REMARK VINA RESULT:      -8.5      0.000      0.000
REMARK  Name = 
REMARK  7 active torsions:
REMARK  status: ('A' for Active; 'I' for Inactive)
REMARK    1  A    between atoms: C_1  and  C_2
REMARK    2  A    between atoms: C_6  and  C_7
REMARK    3  A    between atoms: C_7  and  N_8
REMARK    4  A    between atoms: N_15  and  C_16
REMARK    5  A    between atoms: C_16  and  C_17
REMARK    6  A    between atoms: N_19  and  C_20
REMARK    7  A    between atoms: N_19  and  C_21
REMARK                            x       y       z     vdW  Elec       q    Type
REMARK                         _______ _______ _______ _____ _____    ______ ____
ROOT
ATOM      1  N   UNL     1       6.730   6.155  16.316  0.00  0.00    +0.000 NA
ATOM      2  C   UNL     1       7.528   6.279  17.546  0.00  0.00    +0.000 C 
ATOM      3  C   UNL     1       6.894   5.627  18.769  0.00  0.00    +0.000 C 
ATOM      4  C   UNL     1       5.426   6.001  18.974  0.00  0.00    +0.000 C 
ATOM      5  C   UNL     1       4.547   6.043  17.700  0.00  0.00    +0.000 C 
ATOM      6  C   UNL     1       3.257   6.843  18.078  0.00  0.00    +0.000 C 
ATOM      7  C   UNL     1       2.116   5.830  18.218  0.00  0.00    +0.000 C 
ATOM      8  N   UNL     1       2.705   4.553  17.947  0.00  0.00    +0.000 N 
ATOM      9  C   UNL     1       3.907   4.707  17.292  0.00  0.00    +0.000 C 
ATOM     10  O   UNL     1       4.311   3.890  16.488  0.00  0.00    +0.000 OA
ATOM     11  C   UNL     1       5.354   6.663  16.539  0.00  0.00    +0.000 C 
ENDROOT
BRANCH   1  12
ATOM     12  C   UNL     1       6.761   4.771  15.799  0.00  0.00    +0.000 C 
BRANCH  12  18
ATOM     13  C   UNL     1       5.579   2.361  11.747  0.00  0.00    +0.000 C 
ATOM     14  C   UNL     1       6.291   3.529  12.354  0.00  0.00    +0.000 A 
ATOM     15  C   UNL     1       7.116   4.342  11.586  0.00  0.00    +0.000 A 
ATOM     16  C   UNL     1       7.880   5.315  12.224  0.00  0.00    +0.000 A 
ATOM     17  C   UNL     1       7.785   5.465  13.600  0.00  0.00    +0.000 A 
ATOM     18  C   UNL     1       6.897   4.656  14.294  0.00  0.00    +0.000 A 
ATOM     19  N   UNL     1       6.144   3.701  13.684  0.00  0.00    +0.000 NA
ENDBRANCH  12  18
ENDBRANCH   1  12
BRANCH   8  20
ATOM     20  C   UNL     1       1.973   3.282  17.891  0.00  0.00    +0.000 C 
BRANCH  20  21
ATOM     21  C   UNL     1       1.318   2.690  19.157  0.00  0.00    +0.000 C 
ATOM     22  O   UNL     1       0.141   2.318  19.144  0.00  0.00    +0.000 OA
ATOM     23  N   UNL     1       2.048   2.761  20.354  0.00  0.00    +0.000 N 
ATOM     24  C   UNL     1       1.350   2.452  21.592  0.00  0.00    +0.000 C 
ATOM     25  C   UNL     1       3.497   2.610  20.407  0.00  0.00    +0.000 C 
ENDBRANCH  20  21
ENDBRANCH   8  20
TORSDOF 4
ENDMDL
MODEL 2
REMARK VINA RESULT:      -8.3      0.620      1.394
REMARK  Name = 
REMARK  7 active torsions:
REMARK  status: ('A' for Active; 'I' for Inactive)
REMARK    1  A    between atoms: C_1  and  C_2
REMARK    2  A    between atoms: C_6  and  C_7
REMARK    3  A    between atoms: C_7  and  N_8
REMARK    4  A    between atoms: N_15  and  C_16
REMARK    5  A    between atoms: C_16  and  C_17
REMARK    6  A    between atoms: N_19  and  C_20
REMARK    7  A    between atoms: N_19  and  C_21
REMARK                            x       y       z     vdW  Elec       q    Type
REMARK                         _______ _______ _______ _____ _____    ______ ____
ROOT
ATOM      1  N   UNL     1       6.828   6.076  16.469  0.00  0.00    +0.000 NA
ATOM      2  C   UNL     1       7.567   6.215  17.733  0.00  0.00    +0.000 C 
ATOM      3  C   UNL     1       6.857   5.614  18.940  0.00  0.00    +0.000 C 
ATOM      4  C   UNL     1       5.390   6.029  19.061  0.00  0.00    +0.000 C 
ATOM      5  C   UNL     1       4.576   6.057  17.744  0.00  0.00    +0.000 C 
ATOM      6  C   UNL     1       3.291   6.898  18.036  0.00  0.00    +0.000 C 
ATOM      7  C   UNL     1       2.118   5.918  18.146  0.00  0.00    +0.000 C 
ATOM      8  N   UNL     1       2.687   4.620  17.938  0.00  0.00    +0.000 N 
ATOM      9  C   UNL     1       3.923   4.726  17.341  0.00  0.00    +0.000 C 
ATOM     10  O   UNL     1       4.345   3.877  16.580  0.00  0.00    +0.000 OA
ATOM     11  C   UNL     1       5.456   6.624  16.609  0.00  0.00    +0.000 C 
ENDROOT
BRANCH   1  12
ATOM     12  C   UNL     1       6.848   4.677  15.991  0.00  0.00    +0.000 C 
BRANCH  12  18
ATOM     13  C   UNL     1       8.526   6.396  11.767  0.00  0.00    +0.000 C 
ATOM     14  C   UNL     1       7.767   5.317  12.474  0.00  0.00    +0.000 A 
ATOM     15  C   UNL     1       7.083   4.340  11.761  0.00  0.00    +0.000 A 
ATOM     16  C   UNL     1       6.264   3.454  12.456  0.00  0.00    +0.000 A 
ATOM     17  C   UNL     1       6.166   3.554  13.837  0.00  0.00    +0.000 A 
ATOM     18  C   UNL     1       6.924   4.518  14.485  0.00  0.00    +0.000 A 
ATOM     19  N   UNL     1       7.728   5.389  13.820  0.00  0.00    +0.000 NA
ENDBRANCH  12  18
ENDBRANCH   1  12
BRANCH   8  20
ATOM     20  C   UNL     1       1.925   3.367  17.881  0.00  0.00    +0.000 C 
BRANCH  20  21
ATOM     21  C   UNL     1       1.339   2.737  19.162  0.00  0.00    +0.000 C 
ATOM     22  O   UNL     1       0.169   2.346  19.196  0.00  0.00    +0.000 OA
ATOM     23  N   UNL     1       2.124   2.795  20.325  0.00  0.00    +0.000 N 
ATOM     24  C   UNL     1       1.489   2.447  21.588  0.00  0.00    +0.000 C 
ATOM     25  C   UNL     1       3.575   2.667  20.308  0.00  0.00    +0.000 C 
ENDBRANCH  20  21
ENDBRANCH   8  20
TORSDOF 4
ENDMDL
MODEL 3
REMARK VINA RESULT:      -7.4      3.007      7.295
REMARK  Name = 
REMARK  7 active torsions:
REMARK  status: ('A' for Active; 'I' for Inactive)
REMARK    1  A    between atoms: C_1  and  C_2
REMARK    2  A    between atoms: C_6  and  C_7
REMARK    3  A    between atoms: C_7  and  N_8
REMARK    4  A    between atoms: N_15  and  C_16
REMARK    5  A    between atoms: C_16  and  C_17
REMARK    6  A    between atoms: N_19  and  C_20
REMARK    7  A    between atoms: N_19  and  C_21
REMARK                            x       y       z     vdW  Elec       q    Type
REMARK                         _______ _______ _______ _____ _____    ______ ____
ROOT
ATOM      1  N   UNL     1       1.370   4.797  20.198  0.00  0.00    +0.000 NA
ATOM      2  C   UNL     1       1.440   3.659  21.127  0.00  0.00    +0.000 C 
ATOM      3  C   UNL     1       2.732   2.857  21.032  0.00  0.00    +0.000 C 
ATOM      4  C   UNL     1       3.120   2.480  19.602  0.00  0.00    +0.000 C 
ATOM      5  C   UNL     1       2.929   3.581  18.530  0.00  0.00    +0.000 C 
ATOM      6  C   UNL     1       2.967   2.859  17.143  0.00  0.00    +0.000 C 
ATOM      7  C   UNL     1       4.321   3.177  16.499  0.00  0.00    +0.000 C 
ATOM      8  N   UNL     1       5.005   4.009  17.443  0.00  0.00    +0.000 N 
ATOM      9  C   UNL     1       4.115   4.541  18.349  0.00  0.00    +0.000 C 
ATOM     10  O   UNL     1       4.284   5.635  18.850  0.00  0.00    +0.000 OA
ATOM     11  C   UNL     1       1.617   4.345  18.806  0.00  0.00    +0.000 C 
ENDROOT
BRANCH   1  12
ATOM     12  C   UNL     1       2.273   5.888  20.622  0.00  0.00    +0.000 C 
BRANCH  12  18
ATOM     13  C   UNL     1       1.957   9.875  17.860  0.00  0.00    +0.000 C 
ATOM     14  C   UNL     1       1.523   9.170  19.107  0.00  0.00    +0.000 A 
ATOM     15  C   UNL     1       0.773   9.827  20.075  0.00  0.00    +0.000 A 
ATOM     16  C   UNL     1       0.530   9.183  21.285  0.00  0.00    +0.000 A 
ATOM     17  C   UNL     1       1.019   7.900  21.487  0.00  0.00    +0.000 A 
ATOM     18  C   UNL     1       1.709   7.285  20.452  0.00  0.00    +0.000 A 
ATOM     19  N   UNL     1       1.954   7.902  19.265  0.00  0.00    +0.000 NA
ENDBRANCH  12  18
ENDBRANCH   1  12
BRANCH   8  20
ATOM     20  C   UNL     1       6.320   4.624  17.225  0.00  0.00    +0.000 C 
BRANCH  20  21
ATOM     21  C   UNL     1       6.470   6.156  17.123  0.00  0.00    +0.000 C 
ATOM     22  O   UNL     1       5.808   6.803  16.306  0.00  0.00    +0.000 OA
ATOM     23  N   UNL     1       7.509   6.752  17.856  0.00  0.00    +0.000 N 
ATOM     24  C   UNL     1       7.829   8.142  17.571  0.00  0.00    +0.000 C 
ATOM     25  C   UNL     1       7.916   6.282  19.175  0.00  0.00    +0.000 C 
ENDBRANCH  20  21
ENDBRANCH   8  20
TORSDOF 4
ENDMDL
MODEL 4
REMARK VINA RESULT:      -7.3      2.958      7.521
REMARK  Name = 
REMARK  7 active torsions:
REMARK  status: ('A' for Active; 'I' for Inactive)
REMARK    1  A    between atoms: C_1  and  C_2
REMARK    2  A    between atoms: C_6  and  C_7
REMARK    3  A    between atoms: C_7  and  N_8
REMARK    4  A    between atoms: N_15  and  C_16
REMARK    5  A    between atoms: C_16  and  C_17
REMARK    6  A    between atoms: N_19  and  C_20
REMARK    7  A    between atoms: N_19  and  C_21
REMARK                            x       y       z     vdW  Elec       q    Type
REMARK                         _______ _______ _______ _____ _____    ______ ____
ROOT
ATOM      1  N   UNL     1       1.435   4.941  20.071  0.00  0.00    +0.000 NA
ATOM      2  C   UNL     1       1.493   3.819  21.021  0.00  0.00    +0.000 C 
ATOM      3  C   UNL     1       2.774   2.999  20.940  0.00  0.00    +0.000 C 
ATOM      4  C   UNL     1       3.156   2.591  19.517  0.00  0.00    +0.000 C 
ATOM      5  C   UNL     1       2.978   3.674  18.424  0.00  0.00    +0.000 C 
ATOM      6  C   UNL     1       3.005   2.927  17.051  0.00  0.00    +0.000 C 
ATOM      7  C   UNL     1       4.362   3.215  16.400  0.00  0.00    +0.000 C 
ATOM      8  N   UNL     1       5.057   4.057  17.328  0.00  0.00    +0.000 N 
ATOM      9  C   UNL     1       4.175   4.616  18.225  0.00  0.00    +0.000 C 
ATOM     10  O   UNL     1       4.358   5.718  18.706  0.00  0.00    +0.000 OA
ATOM     11  C   UNL     1       1.675   4.460  18.688  0.00  0.00    +0.000 C 
ENDROOT
BRANCH   1  12
ATOM     12  C   UNL     1       2.351   6.028  20.474  0.00  0.00    +0.000 C 
BRANCH  12  18
ATOM     13  C   UNL     1      -0.298   9.602  22.430  0.00  0.00    +0.000 C 
ATOM     14  C   UNL     1       0.557   9.149  21.288  0.00  0.00    +0.000 A 
ATOM     15  C   UNL     1       0.684   9.923  20.140  0.00  0.00    +0.000 A 
ATOM     16  C   UNL     1       1.358   9.390  19.045  0.00  0.00    +0.000 A 
ATOM     17  C   UNL     1       1.902   8.115  19.131  0.00  0.00    +0.000 A 
ATOM     18  C   UNL     1       1.785   7.426  20.329  0.00  0.00    +0.000 A 
ATOM     19  N   UNL     1       1.130   7.935  21.407  0.00  0.00    +0.000 NA
ENDBRANCH  12  18
ENDBRANCH   1  12
BRANCH   8  20
ATOM     20  C   UNL     1       6.379   4.651  17.097  0.00  0.00    +0.000 C 
BRANCH  20  21
ATOM     21  C   UNL     1       6.560   6.183  17.041  0.00  0.00    +0.000 C 
ATOM     22  O   UNL     1       5.959   6.859  16.202  0.00  0.00    +0.000 OA
ATOM     23  N   UNL     1       7.561   6.743  17.850  0.00  0.00    +0.000 N 
ATOM     24  C   UNL     1       7.919   8.134  17.617  0.00  0.00    +0.000 C 
ATOM     25  C   UNL     1       7.879   6.237  19.180  0.00  0.00    +0.000 C 
ENDBRANCH  20  21
ENDBRANCH   8  20
TORSDOF 4
ENDMDL
MODEL 5
REMARK VINA RESULT:      -6.9      2.893      7.256
REMARK  Name = 
REMARK  7 active torsions:
REMARK  status: ('A' for Active; 'I' for Inactive)
REMARK    1  A    between atoms: C_1  and  C_2
REMARK    2  A    between atoms: C_6  and  C_7
REMARK    3  A    between atoms: C_7  and  N_8
REMARK    4  A    between atoms: N_15  and  C_16
REMARK    5  A    between atoms: C_16  and  C_17
REMARK    6  A    between atoms: N_19  and  C_20
REMARK    7  A    between atoms: N_19  and  C_21
REMARK                            x       y       z     vdW  Elec       q    Type
REMARK                         _______ _______ _______ _____ _____    ______ ____
ROOT
ATOM      1  N   UNL     1       1.513   4.825  20.346  0.00  0.00    +0.000 NA
ATOM      2  C   UNL     1       1.817   3.745  21.298  0.00  0.00    +0.000 C 
ATOM      3  C   UNL     1       3.141   3.038  21.035  0.00  0.00    +0.000 C 
ATOM      4  C   UNL     1       3.337   2.617  19.578  0.00  0.00    +0.000 C 
ATOM      5  C   UNL     1       2.895   3.643  18.505  0.00  0.00    +0.000 C 
ATOM      6  C   UNL     1       2.781   2.855  17.160  0.00  0.00    +0.000 C 
ATOM      7  C   UNL     1       3.991   3.239  16.301  0.00  0.00    +0.000 C 
ATOM      8  N   UNL     1       4.740   4.168  17.093  0.00  0.00    +0.000 N 
ATOM      9  C   UNL     1       3.957   4.679  18.104  0.00  0.00    +0.000 C 
ATOM     10  O   UNL     1       4.110   5.807  18.529  0.00  0.00    +0.000 OA
ATOM     11  C   UNL     1       1.582   4.321  18.952  0.00  0.00    +0.000 C 
ENDROOT
BRANCH   1  12
ATOM     12  C   UNL     1       2.377   6.001  20.581  0.00  0.00    +0.000 C 
BRANCH  12  18
ATOM     13  C   UNL     1       1.802  10.023  17.914  0.00  0.00    +0.000 C 
ATOM     14  C   UNL     1       1.381   9.241  19.119  0.00  0.00    +0.000 A 
ATOM     15  C   UNL     1       0.525   9.791  20.066  0.00  0.00    +0.000 A 
ATOM     16  C   UNL     1       0.290   9.089  21.244  0.00  0.00    +0.000 A 
ATOM     17  C   UNL     1       0.892   7.853  21.436  0.00  0.00    +0.000 A 
ATOM     18  C   UNL     1       1.687   7.341  20.420  0.00  0.00    +0.000 A 
ATOM     19  N   UNL     1       1.926   8.016  19.264  0.00  0.00    +0.000 NA
ENDBRANCH  12  18
ENDBRANCH   1  12
BRANCH   8  20
ATOM     20  C   UNL     1       5.951   4.868  16.648  0.00  0.00    +0.000 C 
BRANCH  20  21
ATOM     21  C   UNL     1       7.156   5.044  17.595  0.00  0.00    +0.000 C 
ATOM     22  O   UNL     1       7.814   4.069  17.969  0.00  0.00    +0.000 OA
ATOM     23  N   UNL     1       7.357   6.317  18.152  0.00  0.00    +0.000 N 
ATOM     24  C   UNL     1       8.317   6.437  19.238  0.00  0.00    +0.000 C 
ATOM     25  C   UNL     1       7.093   7.551  17.421  0.00  0.00    +0.000 C 
ENDBRANCH  20  21
ENDBRANCH   8  20
TORSDOF 4
ENDMDL
MODEL 6
REMARK VINA RESULT:      -6.9      2.854      7.482
REMARK  Name = 
REMARK  7 active torsions:
REMARK  status: ('A' for Active; 'I' for Inactive)
REMARK    1  A    between atoms: C_1  and  C_2
REMARK    2  A    between atoms: C_6  and  C_7
REMARK    3  A    between atoms: C_7  and  N_8
REMARK    4  A    between atoms: N_15  and  C_16
REMARK    5  A    between atoms: C_16  and  C_17
REMARK    6  A    between atoms: N_19  and  C_20
REMARK    7  A    between atoms: N_19  and  C_21
REMARK                            x       y       z     vdW  Elec       q    Type
REMARK                         _______ _______ _______ _____ _____    ______ ____
ROOT
ATOM      1  N   UNL     1       1.578   5.092  20.052  0.00  0.00    +0.000 NA
ATOM      2  C   UNL     1       1.809   4.040  21.054  0.00  0.00    +0.000 C 
ATOM      3  C   UNL     1       3.119   3.283  20.872  0.00  0.00    +0.000 C 
ATOM      4  C   UNL     1       3.359   2.801  19.441  0.00  0.00    +0.000 C 
ATOM      5  C   UNL     1       2.993   3.800  18.314  0.00  0.00    +0.000 C 
ATOM      6  C   UNL     1       2.907   2.965  16.994  0.00  0.00    +0.000 C 
ATOM      7  C   UNL     1       4.162   3.279  16.172  0.00  0.00    +0.000 C 
ATOM      8  N   UNL     1       4.909   4.214  16.960  0.00  0.00    +0.000 N 
ATOM      9  C   UNL     1       4.103   4.786  17.919  0.00  0.00    +0.000 C 
ATOM     10  O   UNL     1       4.276   5.925  18.308  0.00  0.00    +0.000 OA
ATOM     11  C   UNL     1       1.686   4.534  18.682  0.00  0.00    +0.000 C 
ENDROOT
BRANCH   1  12
ATOM     12  C   UNL     1       2.470   6.249  20.279  0.00  0.00    +0.000 C 
BRANCH  12  18
ATOM     13  C   UNL     1      -0.362   9.511  22.507  0.00  0.00    +0.000 C 
ATOM     14  C   UNL     1       0.472   9.177  21.310  0.00  0.00    +0.000 A 
ATOM     15  C   UNL     1       0.483  10.005  20.193  0.00  0.00    +0.000 A 
ATOM     16  C   UNL     1       1.145   9.575  19.047  0.00  0.00    +0.000 A 
ATOM     17  C   UNL     1       1.792   8.347  19.051  0.00  0.00    +0.000 A 
ATOM     18  C   UNL     1       1.787   7.601  20.221  0.00  0.00    +0.000 A 
ATOM     19  N   UNL     1       1.145   8.009  21.348  0.00  0.00    +0.000 NA
ENDBRANCH  12  18
ENDBRANCH   1  12
BRANCH   8  20
ATOM     20  C   UNL     1       6.158   4.858  16.540  0.00  0.00    +0.000 C 
BRANCH  20  21
ATOM     21  C   UNL     1       7.313   5.075  17.540  0.00  0.00    +0.000 C 
ATOM     22  O   UNL     1       7.979   4.120  17.952  0.00  0.00    +0.000 OA
ATOM     23  N   UNL     1       7.453   6.356  18.095  0.00  0.00    +0.000 N 
ATOM     24  C   UNL     1       8.358   6.510  19.224  0.00  0.00    +0.000 C 
ATOM     25  C   UNL     1       7.190   7.577  17.343  0.00  0.00    +0.000 C 
ENDBRANCH  20  21
ENDBRANCH   8  20
TORSDOF 4
ENDMDL
MODEL 7
REMARK VINA RESULT:      -6.7      1.034      1.133
REMARK  Name = 
REMARK  7 active torsions:
REMARK  status: ('A' for Active; 'I' for Inactive)
REMARK    1  A    between atoms: C_1  and  C_2
REMARK    2  A    between atoms: C_6  and  C_7
REMARK    3  A    between atoms: C_7  and  N_8
REMARK    4  A    between atoms: N_15  and  C_16
REMARK    5  A    between atoms: C_16  and  C_17
REMARK    6  A    between atoms: N_19  and  C_20
REMARK    7  A    between atoms: N_19  and  C_21
REMARK                            x       y       z     vdW  Elec       q    Type
REMARK                         _______ _______ _______ _____ _____    ______ ____
ROOT
ATOM      1  N   UNL     1       6.359   5.769  15.613  0.00  0.00    +0.000 NA
ATOM      2  C   UNL     1       7.390   5.874  16.658  0.00  0.00    +0.000 C 
ATOM      3  C   UNL     1       6.912   5.469  18.047  0.00  0.00    +0.000 C 
ATOM      4  C   UNL     1       5.586   6.111  18.455  0.00  0.00    +0.000 C 
ATOM      5  C   UNL     1       4.494   6.178  17.358  0.00  0.00    +0.000 C 
ATOM      6  C   UNL     1       3.439   7.224  17.848  0.00  0.00    +0.000 C 
ATOM      7  C   UNL     1       2.206   6.445  18.316  0.00  0.00    +0.000 C 
ATOM      8  N   UNL     1       2.529   5.064  18.115  0.00  0.00    +0.000 N 
ATOM      9  C   UNL     1       3.591   4.940  17.247  0.00  0.00    +0.000 C 
ATOM     10  O   UNL     1       3.702   3.989  16.499  0.00  0.00    +0.000 OA
ATOM     11  C   UNL     1       5.147   6.529  16.004  0.00  0.00    +0.000 C 
ENDROOT
BRANCH   1  12
ATOM     12  C   UNL     1       6.077   4.355  15.284  0.00  0.00    +0.000 C 
BRANCH  12  18
ATOM     13  C   UNL     1       3.529   3.073  11.349  0.00  0.00    +0.000 C 
ATOM     14  C   UNL     1       4.858   3.464  11.915  0.00  0.00    +0.000 A 
ATOM     15  C   UNL     1       6.013   3.390  11.146  0.00  0.00    +0.000 A 
ATOM     16  C   UNL     1       7.242   3.610  11.760  0.00  0.00    +0.000 A 
ATOM     17  C   UNL     1       7.286   3.918  13.113  0.00  0.00    +0.000 A 
ATOM     18  C   UNL     1       6.088   4.031  13.803  0.00  0.00    +0.000 A 
ATOM     19  N   UNL     1       4.880   3.819  13.216  0.00  0.00    +0.000 NA
ENDBRANCH  12  18
ENDBRANCH   1  12
BRANCH   8  20
ATOM     20  C   UNL     1       1.615   3.942  18.356  0.00  0.00    +0.000 C 
BRANCH  20  21
ATOM     21  C   UNL     1       1.524   3.277  19.745  0.00  0.00    +0.000 C 
ATOM     22  O   UNL     1       0.482   3.334  20.406  0.00  0.00    +0.000 OA
ATOM     23  N   UNL     1       2.712   2.774  20.298  0.00  0.00    +0.000 N 
ATOM     24  C   UNL     1       2.696   2.387  21.701  0.00  0.00    +0.000 C 
ATOM     25  C   UNL     1       3.753   2.145  19.495  0.00  0.00    +0.000 C 
ENDBRANCH  20  21
ENDBRANCH   8  20
TORSDOF 4
ENDMDL
MODEL 8
REMARK VINA RESULT:      -6.7      3.191      5.782
REMARK  Name = 
REMARK  7 active torsions:
REMARK  status: ('A' for Active; 'I' for Inactive)
REMARK    1  A    between atoms: C_1  and  C_2
REMARK    2  A    between atoms: C_6  and  C_7
REMARK    3  A    between atoms: C_7  and  N_8
REMARK    4  A    between atoms: N_15  and  C_16
REMARK    5  A    between atoms: C_16  and  C_17
REMARK    6  A    between atoms: N_19  and  C_20
REMARK    7  A    between atoms: N_19  and  C_21
REMARK                            x       y       z     vdW  Elec       q    Type
REMARK                         _______ _______ _______ _____ _____    ______ ____
ROOT
ATOM      1  N   UNL     1       3.478   3.353  19.280  0.00  0.00    +0.000 NA
ATOM      2  C   UNL     1       2.268   2.561  19.550  0.00  0.00    +0.000 C 
ATOM      3  C   UNL     1       0.965   3.324  19.343  0.00  0.00    +0.000 C 
ATOM      4  C   UNL     1       0.940   4.696  20.019  0.00  0.00    +0.000 C 
ATOM      5  C   UNL     1       2.238   5.534  19.912  0.00  0.00    +0.000 C 
ATOM      6  C   UNL     1       2.135   6.650  21.002  0.00  0.00    +0.000 C 
ATOM      7  C   UNL     1       1.827   7.967  20.282  0.00  0.00    +0.000 C 
ATOM      8  N   UNL     1       1.755   7.631  18.891  0.00  0.00    +0.000 N 
ATOM      9  C   UNL     1       2.356   6.414  18.658  0.00  0.00    +0.000 C 
ATOM     10  O   UNL     1       2.919   6.165  17.610  0.00  0.00    +0.000 OA
ATOM     11  C   UNL     1       3.463   4.607  20.072  0.00  0.00    +0.000 C 
ENDROOT
BRANCH   1  12
ATOM     12  C   UNL     1       3.652   3.583  17.830  0.00  0.00    +0.000 C 
BRANCH  12  18
ATOM     13  C   UNL     1       7.870   5.642  19.089  0.00  0.00    +0.000 C 
ATOM     14  C   UNL     1       7.081   4.934  18.033  0.00  0.00    +0.000 A 
ATOM     15  C   UNL     1       7.574   4.802  16.740  0.00  0.00    +0.000 A 
ATOM     16  C   UNL     1       6.740   4.280  15.755  0.00  0.00    +0.000 A 
ATOM     17  C   UNL     1       5.452   3.884  16.089  0.00  0.00    +0.000 A 
ATOM     18  C   UNL     1       5.050   3.992  17.413  0.00  0.00    +0.000 A 
ATOM     19  N   UNL     1       5.854   4.500  18.385  0.00  0.00    +0.000 NA
ENDBRANCH  12  18
ENDBRANCH   1  12
BRANCH   8  20
ATOM     20  C   UNL     1       1.552   8.594  17.803  0.00  0.00    +0.000 C 
BRANCH  20  21
ATOM     21  C   UNL     1       1.389  10.100  18.098  0.00  0.00    +0.000 C 
ATOM     22  O   UNL     1       2.374  10.843  18.150  0.00  0.00    +0.000 OA
ATOM     23  N   UNL     1       0.115  10.548  18.481  0.00  0.00    +0.000 N 
ATOM     24  C   UNL     1       0.004  11.898  19.012  0.00  0.00    +0.000 C 
ATOM     25  C   UNL     1      -1.116   9.998  17.928  0.00  0.00    +0.000 C 
ENDBRANCH  20  21
ENDBRANCH   8  20
TORSDOF 4
ENDMDL
MODEL 9
REMARK VINA RESULT:      -6.6      3.379      4.885
REMARK  Name = 
REMARK  7 active torsions:
REMARK  status: ('A' for Active; 'I' for Inactive)
REMARK    1  A    between atoms: C_1  and  C_2
REMARK    2  A    between atoms: C_6  and  C_7
REMARK    3  A    between atoms: C_7  and  N_8
REMARK    4  A    between atoms: N_15  and  C_16
REMARK    5  A    between atoms: C_16  and  C_17
REMARK    6  A    between atoms: N_19  and  C_20
REMARK    7  A    between atoms: N_19  and  C_21
REMARK                            x       y       z     vdW  Elec       q    Type
REMARK                         _______ _______ _______ _____ _____    ______ ____
ROOT
ATOM      1  N   UNL     1       5.027   4.820  17.436  0.00  0.00    +0.000 NA
ATOM      2  C   UNL     1       4.156   3.665  17.167  0.00  0.00    +0.000 C 
ATOM      3  C   UNL     1       2.672   4.006  17.102  0.00  0.00    +0.000 C 
ATOM      4  C   UNL     1       2.183   4.857  18.275  0.00  0.00    +0.000 C 
ATOM      5  C   UNL     1       3.121   6.006  18.722  0.00  0.00    +0.000 C 
ATOM      6  C   UNL     1       2.645   6.434  20.149  0.00  0.00    +0.000 C 
ATOM      7  C   UNL     1       1.910   7.771  20.004  0.00  0.00    +0.000 C 
ATOM      8  N   UNL     1       1.957   8.081  18.606  0.00  0.00    +0.000 N 
ATOM      9  C   UNL     1       2.934   7.339  17.981  0.00  0.00    +0.000 C 
ATOM     10  O   UNL     1       3.550   7.763  17.023  0.00  0.00    +0.000 OA
ATOM     11  C   UNL     1       4.587   5.525  18.665  0.00  0.00    +0.000 C 
ENDROOT
BRANCH   1  12
ATOM     12  C   UNL     1       5.113   5.708  16.257  0.00  0.00    +0.000 C 
BRANCH  12  18
ATOM     13  C   UNL     1       8.710   5.777  12.989  0.00  0.00    +0.000 C 
ATOM     14  C   UNL     1       7.483   5.085  13.496  0.00  0.00    +0.000 A 
ATOM     15  C   UNL     1       6.910   4.035  12.789  0.00  0.00    +0.000 A 
ATOM     16  C   UNL     1       5.685   3.530  13.214  0.00  0.00    +0.000 A 
ATOM     17  C   UNL     1       5.077   4.069  14.340  0.00  0.00    +0.000 A 
ATOM     18  C   UNL     1       5.736   5.077  15.028  0.00  0.00    +0.000 A 
ATOM     19  N   UNL     1       6.933   5.580  14.624  0.00  0.00    +0.000 NA
ENDBRANCH  12  18
ENDBRANCH   1  12
BRANCH   8  20
ATOM     20  C   UNL     1       1.440   9.313  17.999  0.00  0.00    +0.000 C 
BRANCH  20  21
ATOM     21  C   UNL     1       0.750  10.391  18.861  0.00  0.00    +0.000 C 
ATOM     22  O   UNL     1       1.405  11.100  19.630  0.00  0.00    +0.000 OA
ATOM     23  N   UNL     1      -0.654  10.405  18.872  0.00  0.00    +0.000 N 
ATOM     24  C   UNL     1      -1.315  11.232  19.870  0.00  0.00    +0.000 C 
ATOM     25  C   UNL     1      -1.457  10.097  17.695  0.00  0.00    +0.000 C 
ENDBRANCH  20  21
ENDBRANCH   8  20
TORSDOF 4
ENDMDL
