MODEL 1
REMARK VINA RESULT:      -6.2      0.000      0.000
REMARK  Name = 
REMARK  11 active torsions:
REMARK  status: ('A' for Active; 'I' for Inactive)
REMARK    1  A    between atoms: C_1  and  O_2
REMARK    2  A    between atoms: O_2  and  C_3
REMARK    3  A    between atoms: C_3  and  C_4
REMARK    4  A    between atoms: C_4  and  N_5
REMARK    5  A    between atoms: N_5  and  C_6
REMARK    6  A    between atoms: N_5  and  C_7
REMARK    7  A    between atoms: C_7  and  C_8
REMARK    8  A    between atoms: C_8  and  N_9
REMARK    9  A    between atoms: C_10  and  C_12
REMARK   10  A    between atoms: C_17  and  O_18
REMARK   11  A    between atoms: O_18  and  C_19
REMARK                            x       y       z     vdW  Elec       q    Type
REMARK                         _______ _______ _______ _____ _____    ______ ____
ROOT
ATOM      1  N   UNL     1       5.791   4.596  19.308  0.00  0.00    +0.000 N 
ATOM      2  C   UNL     1       4.566   5.223  19.149  0.00  0.00    +0.000 C 
ATOM      3  O   UNL     1       4.438   6.310  18.604  0.00  0.00    +0.000 OA
ATOM      4  H   UNL     1       5.842   3.678  19.729  0.00  0.00    +0.000 HD
ENDROOT
BRANCH   2   5
ATOM      5  C   UNL     1       3.400   4.484  19.709  0.00  0.00    +0.000 A 
ATOM      6  C   UNL     1       2.291   5.270  20.097  0.00  0.00    +0.000 A 
ATOM      7  C   UNL     1       1.132   4.684  20.604  0.00  0.00    +0.000 A 
ATOM      8  C   UNL     1       1.059   3.304  20.721  0.00  0.00    +0.000 A 
ATOM      9  C   UNL     1       2.135   2.514  20.313  0.00  0.00    +0.000 A 
ATOM     10  C   UNL     1       3.315   3.085  19.808  0.00  0.00    +0.000 A 
BRANCH  10  11
ATOM     11  O   UNL     1       4.215   2.140  19.396  0.00  0.00    +0.000 OA
ATOM     12  C   UNL     1       3.795   1.221  18.395  0.00  0.00    +0.000 C 
ENDBRANCH  10  11
ENDBRANCH   2   5
BRANCH   1  13
ATOM     13  C   UNL     1       7.014   5.163  18.765  0.00  0.00    +0.000 C 
BRANCH  13  14
ATOM     14  C   UNL     1       7.305   4.705  17.325  0.00  0.00    +0.000 C 
BRANCH  14  15
ATOM     15  N   UNL     1       7.231   5.793  16.315  0.00  0.00    +0.000 NA
ATOM     16  C   UNL     1       7.375   7.084  16.993  0.00  0.00    +0.000 C 
BRANCH  15  17
ATOM     17  C   UNL     1       5.949   5.729  15.576  0.00  0.00    +0.000 C 
BRANCH  17  18
ATOM     18  C   UNL     1       5.709   4.411  14.822  0.00  0.00    +0.000 C 
BRANCH  18  20
ATOM     19  C   UNL     1       6.178   3.501  12.703  0.00  0.00    +0.000 C 
ATOM     20  O   UNL     1       6.677   4.291  13.773  0.00  0.00    +0.000 OA
ENDBRANCH  18  20
ENDBRANCH  17  18
ENDBRANCH  15  17
ENDBRANCH  14  15
ENDBRANCH  13  14
ENDBRANCH   1  13
TORSDOF 8
ENDMDL
MODEL 2
REMARK VINA RESULT:      -6.0      1.235      2.419
REMARK  Name = 
REMARK  11 active torsions:
REMARK  status: ('A' for Active; 'I' for Inactive)
REMARK    1  A    between atoms: C_1  and  O_2
REMARK    2  A    between atoms: O_2  and  C_3
REMARK    3  A    between atoms: C_3  and  C_4
REMARK    4  A    between atoms: C_4  and  N_5
REMARK    5  A    between atoms: N_5  and  C_6
REMARK    6  A    between atoms: N_5  and  C_7
REMARK    7  A    between atoms: C_7  and  C_8
REMARK    8  A    between atoms: C_8  and  N_9
REMARK    9  A    between atoms: C_10  and  C_12
REMARK   10  A    between atoms: C_17  and  O_18
REMARK   11  A    between atoms: O_18  and  C_19
REMARK                            x       y       z     vdW  Elec       q    Type
REMARK                         _______ _______ _______ _____ _____    ______ ____
ROOT
ATOM      1  N   UNL     1       5.887   4.534  18.814  0.00  0.00    +0.000 N 
ATOM      2  C   UNL     1       4.732   3.873  18.427  0.00  0.00    +0.000 C 
ATOM      3  O   UNL     1       4.586   3.379  17.318  0.00  0.00    +0.000 OA
ATOM      4  H   UNL     1       5.977   4.891  19.756  0.00  0.00    +0.000 HD
ENDROOT
BRANCH   2   5
ATOM      5  C   UNL     1       3.659   3.818  19.459  0.00  0.00    +0.000 A 
ATOM      6  C   UNL     1       3.673   2.691  20.312  0.00  0.00    +0.000 A 
ATOM      7  C   UNL     1       2.736   2.549  21.336  0.00  0.00    +0.000 A 
ATOM      8  C   UNL     1       1.780   3.535  21.529  0.00  0.00    +0.000 A 
ATOM      9  C   UNL     1       1.775   4.667  20.713  0.00  0.00    +0.000 A 
ATOM     10  C   UNL     1       2.704   4.825  19.671  0.00  0.00    +0.000 A 
BRANCH  10  11
ATOM     11  O   UNL     1       2.578   6.035  19.041  0.00  0.00    +0.000 OA
ATOM     12  C   UNL     1       2.200   7.154  19.832  0.00  0.00    +0.000 C 
ENDBRANCH  10  11
ENDBRANCH   2   5
BRANCH   1  13
ATOM     13  C   UNL     1       7.044   4.623  17.940  0.00  0.00    +0.000 C 
BRANCH  13  14
ATOM     14  C   UNL     1       7.156   5.981  17.224  0.00  0.00    +0.000 C 
BRANCH  14  15
ATOM     15  N   UNL     1       6.739   5.951  15.797  0.00  0.00    +0.000 NA
ATOM     16  C   UNL     1       5.323   6.316  15.707  0.00  0.00    +0.000 C 
BRANCH  15  17
ATOM     17  C   UNL     1       6.974   4.610  15.215  0.00  0.00    +0.000 C 
BRANCH  17  18
ATOM     18  C   UNL     1       5.939   4.175  14.167  0.00  0.00    +0.000 C 
BRANCH  18  20
ATOM     19  C   UNL     1       5.910   3.072  12.088  0.00  0.00    +0.000 C 
ATOM     20  O   UNL     1       6.594   4.012  12.904  0.00  0.00    +0.000 OA
ENDBRANCH  18  20
ENDBRANCH  17  18
ENDBRANCH  15  17
ENDBRANCH  14  15
ENDBRANCH  13  14
ENDBRANCH   1  13
TORSDOF 8
ENDMDL
MODEL 3
REMARK VINA RESULT:      -5.8      2.138      5.830
REMARK  Name = 
REMARK  11 active torsions:
REMARK  status: ('A' for Active; 'I' for Inactive)
REMARK    1  A    between atoms: C_1  and  O_2
REMARK    2  A    between atoms: O_2  and  C_3
REMARK    3  A    between atoms: C_3  and  C_4
REMARK    4  A    between atoms: C_4  and  N_5
REMARK    5  A    between atoms: N_5  and  C_6
REMARK    6  A    between atoms: N_5  and  C_7
REMARK    7  A    between atoms: C_7  and  C_8
REMARK    8  A    between atoms: C_8  and  N_9
REMARK    9  A    between atoms: C_10  and  C_12
REMARK   10  A    between atoms: C_17  and  O_18
REMARK   11  A    between atoms: O_18  and  C_19
REMARK                            x       y       z     vdW  Elec       q    Type
REMARK                         _______ _______ _______ _____ _____    ______ ____
ROOT
ATOM      1  N   UNL     1       3.852   5.257  19.138  0.00  0.00    +0.000 N 
ATOM      2  C   UNL     1       4.885   4.353  18.951  0.00  0.00    +0.000 C 
ATOM      3  O   UNL     1       5.240   3.558  19.809  0.00  0.00    +0.000 OA
ATOM      4  H   UNL     1       3.568   5.868  18.384  0.00  0.00    +0.000 HD
ENDROOT
BRANCH   2   5
ATOM      5  C   UNL     1       5.556   4.426  17.623  0.00  0.00    +0.000 A 
ATOM      6  C   UNL     1       4.707   4.396  16.493  0.00  0.00    +0.000 A 
ATOM      7  C   UNL     1       5.222   4.490  15.200  0.00  0.00    +0.000 A 
ATOM      8  C   UNL     1       6.590   4.627  15.017  0.00  0.00    +0.000 A 
ATOM      9  C   UNL     1       7.436   4.689  16.125  0.00  0.00    +0.000 A 
ATOM     10  C   UNL     1       6.939   4.587  17.436  0.00  0.00    +0.000 A 
BRANCH  10  11
ATOM     11  O   UNL     1       7.920   4.747  18.377  0.00  0.00    +0.000 OA
ATOM     12  C   UNL     1       7.987   5.996  19.053  0.00  0.00    +0.000 C 
ENDBRANCH  10  11
ENDBRANCH   2   5
BRANCH   1  13
ATOM     13  C   UNL     1       3.064   5.272  20.359  0.00  0.00    +0.000 C 
BRANCH  13  14
ATOM     14  C   UNL     1       1.549   5.180  20.099  0.00  0.00    +0.000 C 
BRANCH  14  15
ATOM     15  N   UNL     1       0.939   3.889  20.513  0.00  0.00    +0.000 NA
ATOM     16  C   UNL     1       1.783   3.270  21.538  0.00  0.00    +0.000 C 
BRANCH  15  17
ATOM     17  C   UNL     1       0.786   2.990  19.346  0.00  0.00    +0.000 C 
BRANCH  17  18
ATOM     18  C   UNL     1       1.812   1.848  19.278  0.00  0.00    +0.000 C 
BRANCH  18  20
ATOM     19  C   UNL     1       3.728   1.156  18.099  0.00  0.00    +0.000 C 
ATOM     20  O   UNL     1       2.564   1.970  18.065  0.00  0.00    +0.000 OA
ENDBRANCH  18  20
ENDBRANCH  17  18
ENDBRANCH  15  17
ENDBRANCH  14  15
ENDBRANCH  13  14
ENDBRANCH   1  13
TORSDOF 8
ENDMDL
MODEL 4
REMARK VINA RESULT:      -5.7      1.827      5.860
REMARK  Name = 
REMARK  11 active torsions:
REMARK  status: ('A' for Active; 'I' for Inactive)
REMARK    1  A    between atoms: C_1  and  O_2
REMARK    2  A    between atoms: O_2  and  C_3
REMARK    3  A    between atoms: C_3  and  C_4
REMARK    4  A    between atoms: C_4  and  N_5
REMARK    5  A    between atoms: N_5  and  C_6
REMARK    6  A    between atoms: N_5  and  C_7
REMARK    7  A    between atoms: C_7  and  C_8
REMARK    8  A    between atoms: C_8  and  N_9
REMARK    9  A    between atoms: C_10  and  C_12
REMARK   10  A    between atoms: C_17  and  O_18
REMARK   11  A    between atoms: O_18  and  C_19
REMARK                            x       y       z     vdW  Elec       q    Type
REMARK                         _______ _______ _______ _____ _____    ______ ____
ROOT
ATOM      1  N   UNL     1       4.079   2.809  17.987  0.00  0.00    +0.000 N 
ATOM      2  C   UNL     1       5.066   3.366  18.784  0.00  0.00    +0.000 C 
ATOM      3  O   UNL     1       5.271   3.013  19.937  0.00  0.00    +0.000 OA
ATOM      4  H   UNL     1       3.973   3.105  17.027  0.00  0.00    +0.000 HD
ENDROOT
BRANCH   2   5
ATOM      5  C   UNL     1       5.859   4.450  18.142  0.00  0.00    +0.000 A 
ATOM      6  C   UNL     1       6.447   5.393  19.015  0.00  0.00    +0.000 A 
ATOM      7  C   UNL     1       7.239   6.433  18.528  0.00  0.00    +0.000 A 
ATOM      8  C   UNL     1       7.464   6.539  17.164  0.00  0.00    +0.000 A 
ATOM      9  C   UNL     1       6.916   5.596  16.294  0.00  0.00    +0.000 A 
ATOM     10  C   UNL     1       6.108   4.546  16.763  0.00  0.00    +0.000 A 
BRANCH  10  11
ATOM     11  O   UNL     1       5.734   3.691  15.761  0.00  0.00    +0.000 OA
ATOM     12  C   UNL     1       5.576   4.232  14.456  0.00  0.00    +0.000 C 
ENDBRANCH  10  11
ENDBRANCH   2   5
BRANCH   1  13
ATOM     13  C   UNL     1       3.257   1.703  18.451  0.00  0.00    +0.000 C 
BRANCH  13  14
ATOM     14  C   UNL     1       1.912   2.158  19.044  0.00  0.00    +0.000 C 
BRANCH  14  15
ATOM     15  N   UNL     1       2.037   3.154  20.140  0.00  0.00    +0.000 NA
ATOM     16  C   UNL     1       1.396   2.620  21.344  0.00  0.00    +0.000 C 
BRANCH  15  17
ATOM     17  C   UNL     1       1.419   4.441  19.744  0.00  0.00    +0.000 C 
BRANCH  17  18
ATOM     18  C   UNL     1       1.976   5.672  20.477  0.00  0.00    +0.000 C 
BRANCH  18  20
ATOM     19  C   UNL     1       2.590   6.139  18.253  0.00  0.00    +0.000 C 
ATOM     20  O   UNL     1       2.912   6.339  19.623  0.00  0.00    +0.000 OA
ENDBRANCH  18  20
ENDBRANCH  17  18
ENDBRANCH  15  17
ENDBRANCH  14  15
ENDBRANCH  13  14
ENDBRANCH   1  13
TORSDOF 8
ENDMDL
MODEL 5
REMARK VINA RESULT:      -5.7      2.043      3.188
REMARK  Name = 
REMARK  11 active torsions:
REMARK  status: ('A' for Active; 'I' for Inactive)
REMARK    1  A    between atoms: C_1  and  O_2
REMARK    2  A    between atoms: O_2  and  C_3
REMARK    3  A    between atoms: C_3  and  C_4
REMARK    4  A    between atoms: C_4  and  N_5
REMARK    5  A    between atoms: N_5  and  C_6
REMARK    6  A    between atoms: N_5  and  C_7
REMARK    7  A    between atoms: C_7  and  C_8
REMARK    8  A    between atoms: C_8  and  N_9
REMARK    9  A    between atoms: C_10  and  C_12
REMARK   10  A    between atoms: C_17  and  O_18
REMARK   11  A    between atoms: O_18  and  C_19
REMARK                            x       y       z     vdW  Elec       q    Type
REMARK                         _______ _______ _______ _____ _____    ______ ____
ROOT
ATOM      1  N   UNL     1       4.559   3.530  17.469  0.00  0.00    +0.000 N 
ATOM      2  C   UNL     1       3.202   3.282  17.593  0.00  0.00    +0.000 C 
ATOM      3  O   UNL     1       2.447   3.201  16.634  0.00  0.00    +0.000 OA
ATOM      4  H   UNL     1       5.150   3.548  18.289  0.00  0.00    +0.000 HD
ENDROOT
BRANCH   2   5
ATOM      5  C   UNL     1       2.711   3.136  18.992  0.00  0.00    +0.000 A 
ATOM      6  C   UNL     1       1.335   3.382  19.199  0.00  0.00    +0.000 A 
ATOM      7  C   UNL     1       0.758   3.244  20.461  0.00  0.00    +0.000 A 
ATOM      8  C   UNL     1       1.545   2.847  21.532  0.00  0.00    +0.000 A 
ATOM      9  C   UNL     1       2.898   2.571  21.335  0.00  0.00    +0.000 A 
ATOM     10  C   UNL     1       3.501   2.712  20.074  0.00  0.00    +0.000 A 
BRANCH  10  11
ATOM     11  O   UNL     1       4.812   2.320  20.078  0.00  0.00    +0.000 OA
ATOM     12  C   UNL     1       5.201   1.326  21.017  0.00  0.00    +0.000 C 
ENDBRANCH  10  11
ENDBRANCH   2   5
BRANCH   1  13
ATOM     13  C   UNL     1       5.199   3.641  16.169  0.00  0.00    +0.000 C 
BRANCH  13  14
ATOM     14  C   UNL     1       5.256   5.088  15.647  0.00  0.00    +0.000 C 
BRANCH  14  15
ATOM     15  N   UNL     1       6.400   5.878  16.173  0.00  0.00    +0.000 NA
ATOM     16  C   UNL     1       7.378   4.963  16.768  0.00  0.00    +0.000 C 
BRANCH  15  17
ATOM     17  C   UNL     1       5.932   6.868  17.170  0.00  0.00    +0.000 C 
BRANCH  17  18
ATOM     18  C   UNL     1       4.404   7.018  17.256  0.00  0.00    +0.000 C 
BRANCH  18  20
ATOM     19  C   UNL     1       2.644   6.887  18.813  0.00  0.00    +0.000 C 
ATOM     20  O   UNL     1       3.946   6.429  18.478  0.00  0.00    +0.000 OA
ENDBRANCH  18  20
ENDBRANCH  17  18
ENDBRANCH  15  17
ENDBRANCH  14  15
ENDBRANCH  13  14
ENDBRANCH   1  13
TORSDOF 8
ENDMDL
MODEL 6
REMARK VINA RESULT:      -5.6      1.460      2.452
REMARK  Name = 
REMARK  11 active torsions:
REMARK  status: ('A' for Active; 'I' for Inactive)
REMARK    1  A    between atoms: C_1  and  O_2
REMARK    2  A    between atoms: O_2  and  C_3
REMARK    3  A    between atoms: C_3  and  C_4
REMARK    4  A    between atoms: C_4  and  N_5
REMARK    5  A    between atoms: N_5  and  C_6
REMARK    6  A    between atoms: N_5  and  C_7
REMARK    7  A    between atoms: C_7  and  C_8
REMARK    8  A    between atoms: C_8  and  N_9
REMARK    9  A    between atoms: C_10  and  C_12
REMARK   10  A    between atoms: C_17  and  O_18
REMARK   11  A    between atoms: O_18  and  C_19
REMARK                            x       y       z     vdW  Elec       q    Type
REMARK                         _______ _______ _______ _____ _____    ______ ____
ROOT
ATOM      1  N   UNL     1       5.703   4.551  19.058  0.00  0.00    +0.000 N 
ATOM      2  C   UNL     1       4.608   3.874  18.545  0.00  0.00    +0.000 C 
ATOM      3  O   UNL     1       4.587   3.394  17.421  0.00  0.00    +0.000 OA
ATOM      4  H   UNL     1       5.688   4.895  20.008  0.00  0.00    +0.000 HD
ENDROOT
BRANCH   2   5
ATOM      5  C   UNL     1       3.436   3.783  19.459  0.00  0.00    +0.000 A 
ATOM      6  C   UNL     1       3.062   2.481  19.865  0.00  0.00    +0.000 A 
ATOM      7  C   UNL     1       1.999   2.277  20.745  0.00  0.00    +0.000 A 
ATOM      8  C   UNL     1       1.303   3.369  21.242  0.00  0.00    +0.000 A 
ATOM      9  C   UNL     1       1.683   4.660  20.874  0.00  0.00    +0.000 A 
ATOM     10  C   UNL     1       2.744   4.888  19.981  0.00  0.00    +0.000 A 
BRANCH  10  11
ATOM     11  O   UNL     1       3.003   6.222  19.811  0.00  0.00    +0.000 OA
ATOM     12  C   UNL     1       2.611   6.819  18.582  0.00  0.00    +0.000 C 
ENDBRANCH  10  11
ENDBRANCH   2   5
BRANCH   1  13
ATOM     13  C   UNL     1       6.942   4.675  18.309  0.00  0.00    +0.000 C 
BRANCH  13  14
ATOM     14  C   UNL     1       7.113   6.056  17.651  0.00  0.00    +0.000 C 
BRANCH  14  15
ATOM     15  N   UNL     1       6.752   6.090  16.209  0.00  0.00    +0.000 NA
ATOM     16  C   UNL     1       5.359   6.526  16.077  0.00  0.00    +0.000 C 
BRANCH  15  17
ATOM     17  C   UNL     1       6.945   4.757  15.594  0.00  0.00    +0.000 C 
BRANCH  17  18
ATOM     18  C   UNL     1       7.077   4.770  14.063  0.00  0.00    +0.000 C 
BRANCH  18  20
ATOM     19  C   UNL     1       8.200   5.888  12.322  0.00  0.00    +0.000 C 
ATOM     20  O   UNL     1       8.224   5.548  13.701  0.00  0.00    +0.000 OA
ENDBRANCH  18  20
ENDBRANCH  17  18
ENDBRANCH  15  17
ENDBRANCH  14  15
ENDBRANCH  13  14
ENDBRANCH   1  13
TORSDOF 8
ENDMDL
MODEL 7
REMARK VINA RESULT:      -5.6      1.925      6.062
REMARK  Name = 
REMARK  11 active torsions:
REMARK  status: ('A' for Active; 'I' for Inactive)
REMARK    1  A    between atoms: C_1  and  O_2
REMARK    2  A    between atoms: O_2  and  C_3
REMARK    3  A    between atoms: C_3  and  C_4
REMARK    4  A    between atoms: C_4  and  N_5
REMARK    5  A    between atoms: N_5  and  C_6
REMARK    6  A    between atoms: N_5  and  C_7
REMARK    7  A    between atoms: C_7  and  C_8
REMARK    8  A    between atoms: C_8  and  N_9
REMARK    9  A    between atoms: C_10  and  C_12
REMARK   10  A    between atoms: C_17  and  O_18
REMARK   11  A    between atoms: O_18  and  C_19
REMARK                            x       y       z     vdW  Elec       q    Type
REMARK                         _______ _______ _______ _____ _____    ______ ____
ROOT
ATOM      1  N   UNL     1       5.033   3.261  19.225  0.00  0.00    +0.000 N 
ATOM      2  C   UNL     1       4.986   4.053  18.090  0.00  0.00    +0.000 C 
ATOM      3  O   UNL     1       4.185   3.873  17.183  0.00  0.00    +0.000 OA
ATOM      4  H   UNL     1       5.687   3.473  19.967  0.00  0.00    +0.000 HD
ENDROOT
BRANCH   2   5
ATOM      5  C   UNL     1       6.001   5.141  18.036  0.00  0.00    +0.000 A 
ATOM      6  C   UNL     1       6.802   5.304  19.189  0.00  0.00    +0.000 A 
ATOM      7  C   UNL     1       7.806   6.271  19.240  0.00  0.00    +0.000 A 
ATOM      8  C   UNL     1       8.032   7.080  18.137  0.00  0.00    +0.000 A 
ATOM      9  C   UNL     1       7.269   6.909  16.982  0.00  0.00    +0.000 A 
ATOM     10  C   UNL     1       6.247   5.948  16.912  0.00  0.00    +0.000 A 
BRANCH  10  11
ATOM     11  O   UNL     1       5.672   5.889  15.671  0.00  0.00    +0.000 OA
ATOM     12  C   UNL     1       6.298   5.071  14.692  0.00  0.00    +0.000 C 
ENDBRANCH  10  11
ENDBRANCH   2   5
BRANCH   1  13
ATOM     13  C   UNL     1       4.073   2.193  19.451  0.00  0.00    +0.000 C 
BRANCH  13  14
ATOM     14  C   UNL     1       2.995   2.561  20.486  0.00  0.00    +0.000 C 
BRANCH  14  15
ATOM     15  N   UNL     1       1.655   2.828  19.900  0.00  0.00    +0.000 NA
ATOM     16  C   UNL     1       1.518   2.063  18.657  0.00  0.00    +0.000 C 
BRANCH  15  17
ATOM     17  C   UNL     1       1.479   4.276  19.647  0.00  0.00    +0.000 C 
BRANCH  17  18
ATOM     18  C   UNL     1       1.941   5.188  20.795  0.00  0.00    +0.000 C 
BRANCH  18  20
ATOM     19  C   UNL     1       2.661   6.652  19.099  0.00  0.00    +0.000 C 
ATOM     20  O   UNL     1       1.966   6.543  20.333  0.00  0.00    +0.000 OA
ENDBRANCH  18  20
ENDBRANCH  17  18
ENDBRANCH  15  17
ENDBRANCH  14  15
ENDBRANCH  13  14
ENDBRANCH   1  13
TORSDOF 8
ENDMDL
MODEL 8
REMARK VINA RESULT:      -5.6      1.288      1.619
REMARK  Name = 
REMARK  11 active torsions:
REMARK  status: ('A' for Active; 'I' for Inactive)
REMARK    1  A    between atoms: C_1  and  O_2
REMARK    2  A    between atoms: O_2  and  C_3
REMARK    3  A    between atoms: C_3  and  C_4
REMARK    4  A    between atoms: C_4  and  N_5
REMARK    5  A    between atoms: N_5  and  C_6
REMARK    6  A    between atoms: N_5  and  C_7
REMARK    7  A    between atoms: C_7  and  C_8
REMARK    8  A    between atoms: C_8  and  N_9
REMARK    9  A    between atoms: C_10  and  C_12
REMARK   10  A    between atoms: C_17  and  O_18
REMARK   11  A    between atoms: O_18  and  C_19
REMARK                            x       y       z     vdW  Elec       q    Type
REMARK                         _______ _______ _______ _____ _____    ______ ____
ROOT
ATOM      1  N   UNL     1       4.230   6.036  17.902  0.00  0.00    +0.000 N 
ATOM      2  C   UNL     1       4.542   5.348  19.063  0.00  0.00    +0.000 C 
ATOM      3  O   UNL     1       5.668   5.318  19.539  0.00  0.00    +0.000 OA
ATOM      4  H   UNL     1       3.276   6.066  17.569  0.00  0.00    +0.000 HD
ENDROOT
BRANCH   2   5
ATOM      5  C   UNL     1       3.405   4.623  19.693  0.00  0.00    +0.000 A 
ATOM      6  C   UNL     1       2.304   5.415  20.091  0.00  0.00    +0.000 A 
ATOM      7  C   UNL     1       1.169   4.840  20.663  0.00  0.00    +0.000 A 
ATOM      8  C   UNL     1       1.112   3.465  20.835  0.00  0.00    +0.000 A 
ATOM      9  C   UNL     1       2.179   2.669  20.417  0.00  0.00    +0.000 A 
ATOM     10  C   UNL     1       3.335   3.228  19.847  0.00  0.00    +0.000 A 
BRANCH  10  11
ATOM     11  O   UNL     1       4.227   2.274  19.438  0.00  0.00    +0.000 OA
ATOM     12  C   UNL     1       3.792   1.342  18.456  0.00  0.00    +0.000 C 
ENDBRANCH  10  11
ENDBRANCH   2   5
BRANCH   1  13
ATOM     13  C   UNL     1       5.219   6.839  17.201  0.00  0.00    +0.000 C 
BRANCH  13  14
ATOM     14  C   UNL     1       5.559   6.291  15.803  0.00  0.00    +0.000 C 
BRANCH  14  15
ATOM     15  N   UNL     1       5.735   4.815  15.755  0.00  0.00    +0.000 NA
ATOM     16  C   UNL     1       7.136   4.493  16.039  0.00  0.00    +0.000 C 
BRANCH  15  17
ATOM     17  C   UNL     1       5.332   4.288  14.431  0.00  0.00    +0.000 C 
BRANCH  17  18
ATOM     18  C   UNL     1       6.491   4.088  13.441  0.00  0.00    +0.000 C 
BRANCH  18  20
ATOM     19  C   UNL     1       4.892   3.358  11.876  0.00  0.00    +0.000 C 
ATOM     20  O   UNL     1       6.132   3.066  12.505  0.00  0.00    +0.000 OA
ENDBRANCH  18  20
ENDBRANCH  17  18
ENDBRANCH  15  17
ENDBRANCH  14  15
ENDBRANCH  13  14
ENDBRANCH   1  13
TORSDOF 8
ENDMDL
MODEL 9
REMARK VINA RESULT:      -5.6      1.166      1.350
REMARK  Name = 
REMARK  11 active torsions:
REMARK  status: ('A' for Active; 'I' for Inactive)
REMARK    1  A    between atoms: C_1  and  O_2
REMARK    2  A    between atoms: O_2  and  C_3
REMARK    3  A    between atoms: C_3  and  C_4
REMARK    4  A    between atoms: C_4  and  N_5
REMARK    5  A    between atoms: N_5  and  C_6
REMARK    6  A    between atoms: N_5  and  C_7
REMARK    7  A    between atoms: C_7  and  C_8
REMARK    8  A    between atoms: C_8  and  N_9
REMARK    9  A    between atoms: C_10  and  C_12
REMARK   10  A    between atoms: C_17  and  O_18
REMARK   11  A    between atoms: O_18  and  C_19
REMARK                            x       y       z     vdW  Elec       q    Type
REMARK                         _______ _______ _______ _____ _____    ______ ____
ROOT
ATOM      1  N   UNL     1       5.551   4.116  17.873  0.00  0.00    +0.000 N 
ATOM      2  C   UNL     1       5.094   4.668  19.059  0.00  0.00    +0.000 C 
ATOM      3  O   UNL     1       5.799   5.341  19.797  0.00  0.00    +0.000 OA
ATOM      4  H   UNL     1       4.920   3.600  17.276  0.00  0.00    +0.000 HD
ENDROOT
BRANCH   2   5
ATOM      5  C   UNL     1       3.673   4.369  19.389  0.00  0.00    +0.000 A 
ATOM      6  C   UNL     1       3.016   5.305  20.220  0.00  0.00    +0.000 A 
ATOM      7  C   UNL     1       1.675   5.144  20.568  0.00  0.00    +0.000 A 
ATOM      8  C   UNL     1       0.968   4.055  20.083  0.00  0.00    +0.000 A 
ATOM      9  C   UNL     1       1.596   3.141  19.236  0.00  0.00    +0.000 A 
ATOM     10  C   UNL     1       2.948   3.278  18.880  0.00  0.00    +0.000 A 
BRANCH  10  11
ATOM     11  O   UNL     1       3.350   2.324  17.984  0.00  0.00    +0.000 OA
ATOM     12  C   UNL     1       3.823   1.088  18.504  0.00  0.00    +0.000 C 
ENDBRANCH  10  11
ENDBRANCH   2   5
BRANCH   1  13
ATOM     13  C   UNL     1       6.898   4.363  17.386  0.00  0.00    +0.000 C 
BRANCH  13  14
ATOM     14  C   UNL     1       7.083   5.783  16.820  0.00  0.00    +0.000 C 
BRANCH  14  15
ATOM     15  N   UNL     1       6.608   5.947  15.421  0.00  0.00    +0.000 NA
ATOM     16  C   UNL     1       5.195   6.333  15.441  0.00  0.00    +0.000 C 
BRANCH  15  17
ATOM     17  C   UNL     1       6.799   4.692  14.658  0.00  0.00    +0.000 C 
BRANCH  17  18
ATOM     18  C   UNL     1       5.498   4.034  14.171  0.00  0.00    +0.000 C 
BRANCH  18  20
ATOM     19  C   UNL     1       6.969   3.929  12.337  0.00  0.00    +0.000 C 
ATOM     20  O   UNL     1       5.659   3.641  12.804  0.00  0.00    +0.000 OA
ENDBRANCH  18  20
ENDBRANCH  17  18
ENDBRANCH  15  17
ENDBRANCH  14  15
ENDBRANCH  13  14
ENDBRANCH   1  13
TORSDOF 8
ENDMDL
