MODEL 1
REMARK VINA RESULT:      -9.0      0.000      0.000
REMARK  Name = 
REMARK  4 active torsions:
REMARK  status: ('A' for Active; 'I' for Inactive)
REMARK    1  A    between atoms: C_4  and  N_5
REMARK    2  A    between atoms: N_5  and  C_6
REMARK    3  A    between atoms: C_8  and  C_9
REMARK    4  A    between atoms: C_9  and  N_10
REMARK                            x       y       z     vdW  Elec       q    Type
REMARK                         _______ _______ _______ _____ _____    ______ ____
ROOT
ATOM      1  C   UNL     1       2.395   6.921  19.847  0.00  0.00    +0.000 A 
ATOM      2  N   UNL     1       3.266   6.454  18.928  0.00  0.00    +0.000 NA
ATOM      3  C   UNL     1       3.492   7.153  17.797  0.00  0.00    +0.000 A 
ATOM      4  N   UNL     1       2.928   8.323  17.484  0.00  0.00    +0.000 NA
ATOM      5  C   UNL     1       2.128   8.808  18.450  0.00  0.00    +0.000 A 
ATOM      6  S   UNL     1       1.322  10.293  18.224  0.00  0.00    +0.000 S 
ATOM      7  C   UNL     1       0.635  10.233  19.775  0.00  0.00    +0.000 A 
ATOM      8  C   UNL     1       1.015   9.102  20.482  0.00  0.00    +0.000 A 
ATOM      9  C   UNL     1       1.834   8.207  19.669  0.00  0.00    +0.000 A 
ATOM     10  C   UNL     1       0.606   8.953  21.923  0.00  0.00    +0.000 C 
ATOM     11  C   UNL     1      -0.650   9.764  22.256  0.00  0.00    +0.000 C 
ATOM     12  C   UNL     1      -0.478  11.211  21.796  0.00  0.00    +0.000 C 
ATOM     13  C   UNL     1      -0.307  11.293  20.271  0.00  0.00    +0.000 C 
ENDROOT
BRANCH   1  14
ATOM     14  N   UNL     1       2.116   6.042  20.904  0.00  0.00    +0.000 N 
ATOM     15  H   UNL     1       2.790   6.222  21.645  0.00  0.00    +0.000 HD
BRANCH  14  19
ATOM     16  C   UNL     1       1.496   1.925  20.298  0.00  0.00    +0.000 A 
ATOM     17  C   UNL     1       2.208   2.343  21.421  0.00  0.00    +0.000 A 
ATOM     18  C   UNL     1       2.352   3.707  21.686  0.00  0.00    +0.000 A 
ATOM     19  C   UNL     1       1.825   4.665  20.807  0.00  0.00    +0.000 A 
ATOM     20  C   UNL     1       1.048   4.230  19.724  0.00  0.00    +0.000 A 
ATOM     21  C   UNL     1       0.901   2.866  19.461  0.00  0.00    +0.000 A 
ENDBRANCH  14  19
ENDBRANCH   1  14
BRANCH   3  22
ATOM     22  C   UNL     1       4.459   6.532  16.793  0.00  0.00    +0.000 C 
BRANCH  22  23
ATOM     23  N   UNL     1       4.966   5.159  17.005  0.00  0.00    +0.000 NA
ATOM     24  C   UNL     1       5.963   5.029  18.077  0.00  0.00    +0.000 C 
ATOM     25  C   UNL     1       7.412   5.292  17.641  0.00  0.00    +0.000 C 
ATOM     26  O   UNL     1       7.777   4.472  16.523  0.00  0.00    +0.000 OA
ATOM     27  C   UNL     1       6.897   4.691  15.414  0.00  0.00    +0.000 C 
ATOM     28  C   UNL     1       5.424   4.460  15.796  0.00  0.00    +0.000 C 
ENDBRANCH  22  23
ENDBRANCH   3  22
TORSDOF 4
ENDMDL
MODEL 2
REMARK VINA RESULT:      -8.6      1.100      1.466
REMARK  Name = 
REMARK  4 active torsions:
REMARK  status: ('A' for Active; 'I' for Inactive)
REMARK    1  A    between atoms: C_4  and  N_5
REMARK    2  A    between atoms: N_5  and  C_6
REMARK    3  A    between atoms: C_8  and  C_9
REMARK    4  A    between atoms: C_9  and  N_10
REMARK                            x       y       z     vdW  Elec       q    Type
REMARK                         _______ _______ _______ _____ _____    ______ ____
ROOT
ATOM      1  C   UNL     1       2.869   6.593  19.334  0.00  0.00    +0.000 A 
ATOM      2  N   UNL     1       3.745   6.268  18.359  0.00  0.00    +0.000 NA
ATOM      3  C   UNL     1       3.904   7.085  17.297  0.00  0.00    +0.000 A 
ATOM      4  N   UNL     1       3.266   8.243  17.108  0.00  0.00    +0.000 NA
ATOM      5  C   UNL     1       2.461   8.585  18.131  0.00  0.00    +0.000 A 
ATOM      6  S   UNL     1       1.567  10.034  18.063  0.00  0.00    +0.000 S 
ATOM      7  C   UNL     1       0.919   9.784  19.613  0.00  0.00    +0.000 A 
ATOM      8  C   UNL     1       1.380   8.616  20.200  0.00  0.00    +0.000 A 
ATOM      9  C   UNL     1       2.231   7.853  19.291  0.00  0.00    +0.000 A 
ATOM     10  C   UNL     1       1.013   8.306  21.626  0.00  0.00    +0.000 C 
ATOM     11  C   UNL     1      -0.280   9.005  22.058  0.00  0.00    +0.000 C 
ATOM     12  C   UNL     1      -0.203  10.497  21.738  0.00  0.00    +0.000 C 
ATOM     13  C   UNL     1      -0.071  10.735  20.225  0.00  0.00    +0.000 C 
ENDROOT
BRANCH   1  14
ATOM     14  N   UNL     1       2.666   5.601  20.306  0.00  0.00    +0.000 N 
ATOM     15  H   UNL     1       3.389   5.706  21.013  0.00  0.00    +0.000 HD
BRANCH  14  19
ATOM     16  C   UNL     1       1.689   1.647  19.253  0.00  0.00    +0.000 A 
ATOM     17  C   UNL     1       3.023   1.974  19.486  0.00  0.00    +0.000 A 
ATOM     18  C   UNL     1       3.360   3.259  19.919  0.00  0.00    +0.000 A 
ATOM     19  C   UNL     1       2.370   4.240  20.079  0.00  0.00    +0.000 A 
ATOM     20  C   UNL     1       1.027   3.875  19.914  0.00  0.00    +0.000 A 
ATOM     21  C   UNL     1       0.690   2.590  19.485  0.00  0.00    +0.000 A 
ENDBRANCH  14  19
ENDBRANCH   1  14
BRANCH   3  22
ATOM     22  C   UNL     1       4.883   6.621  16.221  0.00  0.00    +0.000 C 
BRANCH  22  23
ATOM     23  N   UNL     1       6.339   6.690  16.466  0.00  0.00    +0.000 NA
ATOM     24  C   UNL     1       7.109   5.560  15.927  0.00  0.00    +0.000 C 
ATOM     25  C   UNL     1       7.202   4.344  16.860  0.00  0.00    +0.000 C 
ATOM     26  O   UNL     1       7.704   4.714  18.151  0.00  0.00    +0.000 OA
ATOM     27  C   UNL     1       6.880   5.718  18.755  0.00  0.00    +0.000 C 
ATOM     28  C   UNL     1       6.734   6.958  17.857  0.00  0.00    +0.000 C 
ENDBRANCH  22  23
ENDBRANCH   3  22
TORSDOF 4
ENDMDL
MODEL 3
REMARK VINA RESULT:      -8.2      1.053      1.519
REMARK  Name = 
REMARK  4 active torsions:
REMARK  status: ('A' for Active; 'I' for Inactive)
REMARK    1  A    between atoms: C_4  and  N_5
REMARK    2  A    between atoms: N_5  and  C_6
REMARK    3  A    between atoms: C_8  and  C_9
REMARK    4  A    between atoms: C_9  and  N_10
REMARK                            x       y       z     vdW  Elec       q    Type
REMARK                         _______ _______ _______ _____ _____    ______ ____
ROOT
ATOM      1  C   UNL     1       3.035   6.652  19.396  0.00  0.00    +0.000 A 
ATOM      2  N   UNL     1       3.932   6.350  18.433  0.00  0.00    +0.000 NA
ATOM      3  C   UNL     1       4.003   7.104  17.317  0.00  0.00    +0.000 A 
ATOM      4  N   UNL     1       3.251   8.179  17.059  0.00  0.00    +0.000 NA
ATOM      5  C   UNL     1       2.423   8.508  18.067  0.00  0.00    +0.000 A 
ATOM      6  S   UNL     1       1.389   9.853  17.915  0.00  0.00    +0.000 S 
ATOM      7  C   UNL     1       0.779   9.647  19.486  0.00  0.00    +0.000 A 
ATOM      8  C   UNL     1       1.358   8.572  20.143  0.00  0.00    +0.000 A 
ATOM      9  C   UNL     1       2.274   7.838  19.276  0.00  0.00    +0.000 A 
ATOM     10  C   UNL     1       1.033   8.326  21.592  0.00  0.00    +0.000 C 
ATOM     11  C   UNL     1      -0.321   8.920  21.993  0.00  0.00    +0.000 C 
ATOM     12  C   UNL     1      -0.394  10.388  21.573  0.00  0.00    +0.000 C 
ATOM     13  C   UNL     1      -0.297  10.534  20.046  0.00  0.00    +0.000 C 
ENDROOT
BRANCH   1  14
ATOM     14  N   UNL     1       2.937   5.713  20.434  0.00  0.00    +0.000 N 
ATOM     15  H   UNL     1       3.840   5.671  20.900  0.00  0.00    +0.000 HD
BRANCH  14  19
ATOM     16  C   UNL     1       0.838   2.067  20.438  0.00  0.00    +0.000 A 
ATOM     17  C   UNL     1       1.004   2.750  19.235  0.00  0.00    +0.000 A 
ATOM     18  C   UNL     1       1.770   3.917  19.196  0.00  0.00    +0.000 A 
ATOM     19  C   UNL     1       2.338   4.437  20.369  0.00  0.00    +0.000 A 
ATOM     20  C   UNL     1       2.225   3.701  21.557  0.00  0.00    +0.000 A 
ATOM     21  C   UNL     1       1.463   2.531  21.594  0.00  0.00    +0.000 A 
ENDBRANCH  14  19
ENDBRANCH   1  14
BRANCH   3  22
ATOM     22  C   UNL     1       5.015   6.668  16.262  0.00  0.00    +0.000 C 
BRANCH  22  23
ATOM     23  N   UNL     1       5.647   5.334  16.349  0.00  0.00    +0.000 NA
ATOM     24  C   UNL     1       7.070   5.300  15.985  0.00  0.00    +0.000 C 
ATOM     25  C   UNL     1       7.344   5.121  14.484  0.00  0.00    +0.000 C 
ATOM     26  O   UNL     1       6.673   3.965  13.966  0.00  0.00    +0.000 OA
ATOM     27  C   UNL     1       5.260   4.047  14.187  0.00  0.00    +0.000 C 
ATOM     28  C   UNL     1       4.922   4.246  15.675  0.00  0.00    +0.000 C 
ENDBRANCH  22  23
ENDBRANCH   3  22
TORSDOF 4
ENDMDL
MODEL 4
REMARK VINA RESULT:      -8.1      1.971      4.690
REMARK  Name = 
REMARK  4 active torsions:
REMARK  status: ('A' for Active; 'I' for Inactive)
REMARK    1  A    between atoms: C_4  and  N_5
REMARK    2  A    between atoms: N_5  and  C_6
REMARK    3  A    between atoms: C_8  and  C_9
REMARK    4  A    between atoms: C_9  and  N_10
REMARK                            x       y       z     vdW  Elec       q    Type
REMARK                         _______ _______ _______ _____ _____    ______ ____
ROOT
ATOM      1  C   UNL     1       3.183   6.644  18.744  0.00  0.00    +0.000 A 
ATOM      2  N   UNL     1       3.300   5.379  19.202  0.00  0.00    +0.000 NA
ATOM      3  C   UNL     1       2.652   5.005  20.324  0.00  0.00    +0.000 A 
ATOM      4  N   UNL     1       1.855   5.789  21.056  0.00  0.00    +0.000 NA
ATOM      5  C   UNL     1       1.689   7.019  20.536  0.00  0.00    +0.000 A 
ATOM      6  S   UNL     1       0.704   8.156  21.337  0.00  0.00    +0.000 S 
ATOM      7  C   UNL     1       0.941   9.317  20.121  0.00  0.00    +0.000 A 
ATOM      8  C   UNL     1       1.753   8.855  19.096  0.00  0.00    +0.000 A 
ATOM      9  C   UNL     1       2.271   7.520  19.377  0.00  0.00    +0.000 A 
ATOM     10  C   UNL     1       1.960   9.706  17.872  0.00  0.00    +0.000 C 
ATOM     11  C   UNL     1       1.736  11.195  18.155  0.00  0.00    +0.000 C 
ATOM     12  C   UNL     1       0.388  11.401  18.844  0.00  0.00    +0.000 C 
ATOM     13  C   UNL     1       0.347  10.695  20.208  0.00  0.00    +0.000 C 
ENDROOT
BRANCH   1  14
ATOM     14  N   UNL     1       4.021   6.967  17.667  0.00  0.00    +0.000 N 
ATOM     15  H   UNL     1       3.434   7.277  16.897  0.00  0.00    +0.000 HD
BRANCH  14  19
ATOM     16  C   UNL     1       7.252   4.500  16.581  0.00  0.00    +0.000 A 
ATOM     17  C   UNL     1       6.101   4.492  15.795  0.00  0.00    +0.000 A 
ATOM     18  C   UNL     1       5.051   5.365  16.088  0.00  0.00    +0.000 A 
ATOM     19  C   UNL     1       5.124   6.221  17.198  0.00  0.00    +0.000 A 
ATOM     20  C   UNL     1       6.316   6.272  17.933  0.00  0.00    +0.000 A 
ATOM     21  C   UNL     1       7.367   5.402  17.637  0.00  0.00    +0.000 A 
ENDBRANCH  14  19
ENDBRANCH   1  14
BRANCH   3  22
ATOM     22  C   UNL     1       2.873   3.570  20.794  0.00  0.00    +0.000 C 
BRANCH  22  23
ATOM     23  N   UNL     1       2.320   2.442  20.014  0.00  0.00    +0.000 NA
ATOM     24  C   UNL     1       3.280   1.780  19.120  0.00  0.00    +0.000 C 
ATOM     25  C   UNL     1       3.414   2.425  17.732  0.00  0.00    +0.000 C 
ATOM     26  O   UNL     1       2.138   2.545  17.088  0.00  0.00    +0.000 OA
ATOM     27  C   UNL     1       1.229   3.312  17.886  0.00  0.00    +0.000 C 
ATOM     28  C   UNL     1       1.067   2.723  19.298  0.00  0.00    +0.000 C 
ENDBRANCH  22  23
ENDBRANCH   3  22
TORSDOF 4
ENDMDL
MODEL 5
REMARK VINA RESULT:      -7.7      3.204      7.589
REMARK  Name = 
REMARK  4 active torsions:
REMARK  status: ('A' for Active; 'I' for Inactive)
REMARK    1  A    between atoms: C_4  and  N_5
REMARK    2  A    between atoms: N_5  and  C_6
REMARK    3  A    between atoms: C_8  and  C_9
REMARK    4  A    between atoms: C_9  and  N_10
REMARK                            x       y       z     vdW  Elec       q    Type
REMARK                         _______ _______ _______ _____ _____    ______ ____
ROOT
ATOM      1  C   UNL     1       2.934   6.800  18.267  0.00  0.00    +0.000 A 
ATOM      2  N   UNL     1       2.555   7.952  18.862  0.00  0.00    +0.000 NA
ATOM      3  C   UNL     1       1.776   7.918  19.962  0.00  0.00    +0.000 A 
ATOM      4  N   UNL     1       1.331   6.810  20.563  0.00  0.00    +0.000 NA
ATOM      5  C   UNL     1       1.789   5.676  20.002  0.00  0.00    +0.000 A 
ATOM      6  S   UNL     1       1.325   4.165  20.637  0.00  0.00    +0.000 S 
ATOM      7  C   UNL     1       2.285   3.325  19.517  0.00  0.00    +0.000 A 
ATOM      8  C   UNL     1       2.973   4.174  18.664  0.00  0.00    +0.000 A 
ATOM      9  C   UNL     1       2.617   5.571  18.890  0.00  0.00    +0.000 A 
ATOM     10  C   UNL     1       3.974   3.603  17.696  0.00  0.00    +0.000 C 
ATOM     11  C   UNL     1       3.689   2.135  17.363  0.00  0.00    +0.000 C 
ATOM     12  C   UNL     1       3.526   1.327  18.650  0.00  0.00    +0.000 C 
ATOM     13  C   UNL     1       2.324   1.823  19.469  0.00  0.00    +0.000 C 
ENDROOT
BRANCH   1  14
ATOM     14  N   UNL     1       3.605   6.954  17.045  0.00  0.00    +0.000 N 
ATOM     15  H   UNL     1       2.939   6.770  16.299  0.00  0.00    +0.000 HD
BRANCH  14  19
ATOM     16  C   UNL     1       7.355   5.193  16.314  0.00  0.00    +0.000 A 
ATOM     17  C   UNL     1       6.391   5.170  15.309  0.00  0.00    +0.000 A 
ATOM     18  C   UNL     1       5.170   5.822  15.499  0.00  0.00    +0.000 A 
ATOM     19  C   UNL     1       4.887   6.465  16.715  0.00  0.00    +0.000 A 
ATOM     20  C   UNL     1       5.894   6.544  17.686  0.00  0.00    +0.000 A 
ATOM     21  C   UNL     1       7.115   5.895  17.494  0.00  0.00    +0.000 A 
ENDBRANCH  14  19
ENDBRANCH   1  14
BRANCH   3  22
ATOM     22  C   UNL     1       1.360   9.266  20.545  0.00  0.00    +0.000 C 
BRANCH  22  23
ATOM     23  N   UNL     1      -0.055   9.517  20.892  0.00  0.00    +0.000 NA
ATOM     24  C   UNL     1      -0.485  10.916  20.755  0.00  0.00    +0.000 C 
ATOM     25  C   UNL     1      -0.226  11.791  21.991  0.00  0.00    +0.000 C 
ATOM     26  O   UNL     1      -0.797  11.210  23.171  0.00  0.00    +0.000 OA
ATOM     27  C   UNL     1      -0.280   9.894  23.399  0.00  0.00    +0.000 C 
ATOM     28  C   UNL     1      -0.495   8.973  22.185  0.00  0.00    +0.000 C 
ENDBRANCH  22  23
ENDBRANCH   3  22
TORSDOF 4
ENDMDL
MODEL 6
REMARK VINA RESULT:      -7.7      3.158      7.525
REMARK  Name = 
REMARK  4 active torsions:
REMARK  status: ('A' for Active; 'I' for Inactive)
REMARK    1  A    between atoms: C_4  and  N_5
REMARK    2  A    between atoms: N_5  and  C_6
REMARK    3  A    between atoms: C_8  and  C_9
REMARK    4  A    between atoms: C_9  and  N_10
REMARK                            x       y       z     vdW  Elec       q    Type
REMARK                         _______ _______ _______ _____ _____    ______ ____
ROOT
ATOM      1  C   UNL     1       2.860   6.844  18.515  0.00  0.00    +0.000 A 
ATOM      2  N   UNL     1       2.485   7.952  19.189  0.00  0.00    +0.000 NA
ATOM      3  C   UNL     1       1.729   7.842  20.300  0.00  0.00    +0.000 A 
ATOM      4  N   UNL     1       1.305   6.694  20.838  0.00  0.00    +0.000 NA
ATOM      5  C   UNL     1       1.760   5.602  20.197  0.00  0.00    +0.000 A 
ATOM      6  S   UNL     1       1.320   4.049  20.745  0.00  0.00    +0.000 S 
ATOM      7  C   UNL     1       2.263   3.290  19.555  0.00  0.00    +0.000 A 
ATOM      8  C   UNL     1       2.927   4.198  18.744  0.00  0.00    +0.000 A 
ATOM      9  C   UNL     1       2.565   5.575  19.065  0.00  0.00    +0.000 A 
ATOM     10  C   UNL     1       3.913   3.698  17.721  0.00  0.00    +0.000 C 
ATOM     11  C   UNL     1       3.632   2.252  17.302  0.00  0.00    +0.000 C 
ATOM     12  C   UNL     1       3.501   1.363  18.538  0.00  0.00    +0.000 C 
ATOM     13  C   UNL     1       2.313   1.795  19.411  0.00  0.00    +0.000 C 
ENDROOT
BRANCH   1  14
ATOM     14  N   UNL     1       3.504   7.081  17.292  0.00  0.00    +0.000 N 
ATOM     15  H   UNL     1       2.832   6.911  16.548  0.00  0.00    +0.000 HD
BRANCH  14  19
ATOM     16  C   UNL     1       7.299   5.487  16.418  0.00  0.00    +0.000 A 
ATOM     17  C   UNL     1       6.317   5.475  15.429  0.00  0.00    +0.000 A 
ATOM     18  C   UNL     1       5.079   6.075  15.670  0.00  0.00    +0.000 A 
ATOM     19  C   UNL     1       4.796   6.652  16.917  0.00  0.00    +0.000 A 
ATOM     20  C   UNL     1       5.818   6.723  17.874  0.00  0.00    +0.000 A 
ATOM     21  C   UNL     1       7.057   6.127  17.632  0.00  0.00    +0.000 A 
ENDBRANCH  14  19
ENDBRANCH   1  14
BRANCH   3  22
ATOM     22  C   UNL     1       1.315   9.146  20.976  0.00  0.00    +0.000 C 
BRANCH  22  23
ATOM     23  N   UNL     1      -0.087   9.609  20.893  0.00  0.00    +0.000 NA
ATOM     24  C   UNL     1      -0.483  10.144  19.583  0.00  0.00    +0.000 C 
ATOM     25  C   UNL     1      -0.179  11.635  19.379  0.00  0.00    +0.000 C 
ATOM     26  O   UNL     1      -0.743  12.431  20.430  0.00  0.00    +0.000 OA
ATOM     27  C   UNL     1      -0.256  12.014  21.710  0.00  0.00    +0.000 C 
ATOM     28  C   UNL     1      -0.516  10.519  21.965  0.00  0.00    +0.000 C 
ENDBRANCH  22  23
ENDBRANCH   3  22
TORSDOF 4
ENDMDL
MODEL 7
REMARK VINA RESULT:      -7.5      3.128      7.375
REMARK  Name = 
REMARK  4 active torsions:
REMARK  status: ('A' for Active; 'I' for Inactive)
REMARK    1  A    between atoms: C_4  and  N_5
REMARK    2  A    between atoms: N_5  and  C_6
REMARK    3  A    between atoms: C_8  and  C_9
REMARK    4  A    between atoms: C_9  and  N_10
REMARK                            x       y       z     vdW  Elec       q    Type
REMARK                         _______ _______ _______ _____ _____    ______ ____
ROOT
ATOM      1  C   UNL     1       2.913   6.821  18.361  0.00  0.00    +0.000 A 
ATOM      2  N   UNL     1       2.531   7.960  18.977  0.00  0.00    +0.000 NA
ATOM      3  C   UNL     1       1.747   7.903  20.073  0.00  0.00    +0.000 A 
ATOM      4  N   UNL     1       1.300   6.784  20.648  0.00  0.00    +0.000 NA
ATOM      5  C   UNL     1       1.760   5.662  20.067  0.00  0.00    +0.000 A 
ATOM      6  S   UNL     1       1.293   4.137  20.669  0.00  0.00    +0.000 S 
ATOM      7  C   UNL     1       2.259   3.320  19.537  0.00  0.00    +0.000 A 
ATOM      8  C   UNL     1       2.951   4.186  18.704  0.00  0.00    +0.000 A 
ATOM      9  C   UNL     1       2.593   5.579  18.957  0.00  0.00    +0.000 A 
ATOM     10  C   UNL     1       3.957   3.635  17.730  0.00  0.00    +0.000 C 
ATOM     11  C   UNL     1       3.673   2.175  17.366  0.00  0.00    +0.000 C 
ATOM     12  C   UNL     1       3.504   1.340  18.635  0.00  0.00    +0.000 C 
ATOM     13  C   UNL     1       2.298   1.819  19.458  0.00  0.00    +0.000 C 
ENDROOT
BRANCH   1  14
ATOM     14  N   UNL     1       3.590   6.999  17.145  0.00  0.00    +0.000 N 
ATOM     15  H   UNL     1       2.932   6.814  16.393  0.00  0.00    +0.000 HD
BRANCH  14  19
ATOM     16  C   UNL     1       7.371   5.303  16.418  0.00  0.00    +0.000 A 
ATOM     17  C   UNL     1       6.416   5.286  15.403  0.00  0.00    +0.000 A 
ATOM     18  C   UNL     1       5.185   5.918  15.594  0.00  0.00    +0.000 A 
ATOM     19  C   UNL     1       4.881   6.533  16.818  0.00  0.00    +0.000 A 
ATOM     20  C   UNL     1       5.878   6.608  17.801  0.00  0.00    +0.000 A 
ATOM     21  C   UNL     1       7.110   5.980  17.608  0.00  0.00    +0.000 A 
ENDBRANCH  14  19
ENDBRANCH   1  14
BRANCH   3  22
ATOM     22  C   UNL     1       1.328   9.239  20.681  0.00  0.00    +0.000 C 
BRANCH  22  23
ATOM     23  N   UNL     1       1.089  10.408  19.807  0.00  0.00    +0.000 NA
ATOM     24  C   UNL     1       0.780  11.656  20.518  0.00  0.00    +0.000 C 
ATOM     25  C   UNL     1      -0.705  11.849  20.860  0.00  0.00    +0.000 C 
ATOM     26  O   UNL     1      -1.529  11.726  19.693  0.00  0.00    +0.000 OA
ATOM     27  C   UNL     1      -1.344  10.453  19.064  0.00  0.00    +0.000 C 
ATOM     28  C   UNL     1       0.131  10.194  18.713  0.00  0.00    +0.000 C 
ENDBRANCH  22  23
ENDBRANCH   3  22
TORSDOF 4
ENDMDL
MODEL 8
REMARK VINA RESULT:      -7.5      2.836      6.233
REMARK  Name = 
REMARK  4 active torsions:
REMARK  status: ('A' for Active; 'I' for Inactive)
REMARK    1  A    between atoms: C_4  and  N_5
REMARK    2  A    between atoms: N_5  and  C_6
REMARK    3  A    between atoms: C_8  and  C_9
REMARK    4  A    between atoms: C_9  and  N_10
REMARK                            x       y       z     vdW  Elec       q    Type
REMARK                         _______ _______ _______ _____ _____    ______ ____
ROOT
ATOM      1  C   UNL     1       0.908  10.605  18.887  0.00  0.00    +0.000 A 
ATOM      2  N   UNL     1       1.615   9.584  18.357  0.00  0.00    +0.000 NA
ATOM      3  C   UNL     1       1.849   8.475  19.089  0.00  0.00    +0.000 A 
ATOM      4  N   UNL     1       1.420   8.266  20.337  0.00  0.00    +0.000 NA
ATOM      5  C   UNL     1       0.649   9.261  20.813  0.00  0.00    +0.000 A 
ATOM      6  S   UNL     1       0.013   9.165  22.391  0.00  0.00    +0.000 S 
ATOM      7  C   UNL     1      -0.816  10.636  22.217  0.00  0.00    +0.000 A 
ATOM      8  C   UNL     1      -0.632  11.206  20.967  0.00  0.00    +0.000 A 
ATOM      9  C   UNL     1       0.308  10.438  20.156  0.00  0.00    +0.000 A 
ATOM     10  C   UNL     1      -1.401  12.445  20.595  0.00  0.00    +0.000 C 
ATOM     11  C   UNL     1      -1.838  13.249  21.823  0.00  0.00    +0.000 C 
ATOM     12  C   UNL     1      -2.555  12.338  22.819  0.00  0.00    +0.000 C 
ATOM     13  C   UNL     1      -1.619  11.235  23.338  0.00  0.00    +0.000 C 
ENDROOT
BRANCH   1  14
ATOM     14  N   UNL     1       0.861  11.767  18.102  0.00  0.00    +0.000 N 
ATOM     15  H   UNL     1       0.993  11.493  17.132  0.00  0.00    +0.000 HD
BRANCH  14  19
ATOM     16  C   UNL     1       2.810  15.473  18.513  0.00  0.00    +0.000 A 
ATOM     17  C   UNL     1       1.441  15.398  18.763  0.00  0.00    +0.000 A 
ATOM     18  C   UNL     1       0.791  14.163  18.715  0.00  0.00    +0.000 A 
ATOM     19  C   UNL     1       1.496  12.999  18.372  0.00  0.00    +0.000 A 
ATOM     20  C   UNL     1       2.884  13.078  18.199  0.00  0.00    +0.000 A 
ATOM     21  C   UNL     1       3.535  14.312  18.250  0.00  0.00    +0.000 A 
ENDBRANCH  14  19
ENDBRANCH   1  14
BRANCH   3  22
ATOM     22  C   UNL     1       2.692   7.388  18.429  0.00  0.00    +0.000 C 
BRANCH  22  23
ATOM     23  N   UNL     1       2.595   5.989  18.898  0.00  0.00    +0.000 NA
ATOM     24  C   UNL     1       3.666   5.570  19.813  0.00  0.00    +0.000 C 
ATOM     25  C   UNL     1       4.934   5.049  19.121  0.00  0.00    +0.000 C 
ATOM     26  O   UNL     1       4.630   3.994  18.200  0.00  0.00    +0.000 OA
ATOM     27  C   UNL     1       3.690   4.430  17.210  0.00  0.00    +0.000 C 
ATOM     28  C   UNL     1       2.401   4.982  17.845  0.00  0.00    +0.000 C 
ENDBRANCH  22  23
ENDBRANCH   3  22
TORSDOF 4
ENDMDL
MODEL 9
REMARK VINA RESULT:      -7.5      5.391      9.769
REMARK  Name = 
REMARK  4 active torsions:
REMARK  status: ('A' for Active; 'I' for Inactive)
REMARK    1  A    between atoms: C_4  and  N_5
REMARK    2  A    between atoms: N_5  and  C_6
REMARK    3  A    between atoms: C_8  and  C_9
REMARK    4  A    between atoms: C_9  and  N_10
REMARK                            x       y       z     vdW  Elec       q    Type
REMARK                         _______ _______ _______ _____ _____    ______ ____
ROOT
ATOM      1  C   UNL     1      -0.691  11.740  19.939  0.00  0.00    +0.000 A 
ATOM      2  N   UNL     1      -1.150  12.598  20.875  0.00  0.00    +0.000 NA
ATOM      3  C   UNL     1      -0.977  12.322  22.184  0.00  0.00    +0.000 A 
ATOM      4  N   UNL     1      -0.356  11.246  22.673  0.00  0.00    +0.000 NA
ATOM      5  C   UNL     1       0.165  10.449  21.723  0.00  0.00    +0.000 A 
ATOM      6  S   UNL     1       0.995   9.027  22.163  0.00  0.00    +0.000 S 
ATOM      7  C   UNL     1       1.359   8.659  20.547  0.00  0.00    +0.000 A 
ATOM      8  C   UNL     1       0.870   9.609  19.662  0.00  0.00    +0.000 A 
ATOM      9  C   UNL     1       0.085  10.632  20.346  0.00  0.00    +0.000 A 
ATOM     10  C   UNL     1       1.217   9.510  18.201  0.00  0.00    +0.000 C 
ATOM     11  C   UNL     1       1.565   8.079  17.782  0.00  0.00    +0.000 C 
ATOM     12  C   UNL     1       2.624   7.500  18.720  0.00  0.00    +0.000 C 
ATOM     13  C   UNL     1       2.099   7.409  20.161  0.00  0.00    +0.000 C 
ENDROOT
BRANCH   1  14
ATOM     14  N   UNL     1      -1.064  12.043  18.620  0.00  0.00    +0.000 N 
ATOM     15  H   UNL     1      -1.108  13.055  18.534  0.00  0.00    +0.000 HD
BRANCH  14  19
ATOM     16  C   UNL     1      -4.130  10.539  16.163  0.00  0.00    +0.000 A 
ATOM     17  C   UNL     1      -2.837  10.045  16.008  0.00  0.00    +0.000 A 
ATOM     18  C   UNL     1      -1.821  10.467  16.870  0.00  0.00    +0.000 A 
ATOM     19  C   UNL     1      -2.082  11.423  17.864  0.00  0.00    +0.000 A 
ATOM     20  C   UNL     1      -3.402  11.854  18.055  0.00  0.00    +0.000 A 
ATOM     21  C   UNL     1      -4.417  11.428  17.197  0.00  0.00    +0.000 A 
ENDBRANCH  14  19
ENDBRANCH   1  14
BRANCH   3  22
ATOM     22  C   UNL     1      -1.565  13.324  23.175  0.00  0.00    +0.000 C 
BRANCH  22  23
ATOM     23  N   UNL     1      -2.891  13.075  23.780  0.00  0.00    +0.000 NA
ATOM     24  C   UNL     1      -3.954  12.744  22.820  0.00  0.00    +0.000 C 
ATOM     25  C   UNL     1      -4.671  13.959  22.213  0.00  0.00    +0.000 C 
ATOM     26  O   UNL     1      -5.178  14.829  23.233  0.00  0.00    +0.000 OA
ATOM     27  C   UNL     1      -4.127  15.277  24.097  0.00  0.00    +0.000 C 
ATOM     28  C   UNL     1      -3.358  14.101  24.723  0.00  0.00    +0.000 C 
ENDBRANCH  22  23
ENDBRANCH   3  22
TORSDOF 4
ENDMDL
