MODEL 1
REMARK VINA RESULT:      -6.8      0.000      0.000
REMARK  Name = 
REMARK  9 active torsions:
REMARK  status: ('A' for Active; 'I' for Inactive)
REMARK    1  A    between atoms: C_1  and  O_2
REMARK    2  A    between atoms: O_2  and  C_3
REMARK    3  A    between atoms: C_6  and  C_7
REMARK    4  A    between atoms: C_7  and  N_8
REMARK    5  A    between atoms: N_8  and  C_9
REMARK    6  A    between atoms: C_10  and  C_12
REMARK    7  A    between atoms: C_12  and  O_13
REMARK    8  A    between atoms: O_13  and  C_14
REMARK    9  A    between atoms: C_14  and  C_16
REMARK                            x       y       z     vdW  Elec       q    Type
REMARK                         _______ _______ _______ _____ _____    ______ ____
ROOT
ATOM      1  N   UNL     1       3.217   2.699  18.207  0.00  0.00    +0.000 N 
ATOM      2  C   UNL     1       3.883   1.972  19.278  0.00  0.00    +0.000 C 
ATOM      3  C   UNL     1       1.913   3.193  18.296  0.00  0.00    +0.000 C 
ATOM      4  O   UNL     1       1.393   3.851  17.392  0.00  0.00    +0.000 OA
ENDROOT
BRANCH   1   5
ATOM      5  C   UNL     1       4.041   3.090  17.061  0.00  0.00    +0.000 C 
BRANCH   5   9
ATOM      6  C   UNL     1       7.055   6.068  18.008  0.00  0.00    +0.000 A 
ATOM      7  C   UNL     1       6.950   5.543  16.720  0.00  0.00    +0.000 A 
ATOM      8  C   UNL     1       5.982   4.585  16.414  0.00  0.00    +0.000 A 
ATOM      9  C   UNL     1       5.107   4.110  17.401  0.00  0.00    +0.000 A 
ATOM     10  C   UNL     1       5.211   4.650  18.693  0.00  0.00    +0.000 A 
ATOM     11  C   UNL     1       6.179   5.619  18.996  0.00  0.00    +0.000 A 
BRANCH   6  13
ATOM     12  C   UNL     1       7.804   8.301  17.690  0.00  0.00    +0.000 C 
ATOM     13  O   UNL     1       8.055   6.987  18.170  0.00  0.00    +0.000 OA
ENDBRANCH   6  13
ENDBRANCH   5   9
ENDBRANCH   1   5
BRANCH   3  14
ATOM     14  C   UNL     1       1.127   2.864  19.577  0.00  0.00    +0.000 C 
BRANCH  14  15
ATOM     15  O   UNL     1       0.709   4.014  20.315  0.00  0.00    +0.000 OA
BRANCH  15  16
ATOM     16  C   UNL     1       1.715   4.737  20.859  0.00  0.00    +0.000 C 
ATOM     17  O   UNL     1       2.581   4.315  21.609  0.00  0.00    +0.000 OA
BRANCH  16  18
ATOM     18  C   UNL     1       1.596   6.164  20.484  0.00  0.00    +0.000 A 
ATOM     19  C   UNL     1       0.934   7.097  21.276  0.00  0.00    +0.000 A 
ATOM     20  N   UNL     1       0.853   8.418  20.981  0.00  0.00    +0.000 NA
ATOM     21  C   UNL     1       1.453   8.826  19.838  0.00  0.00    +0.000 A 
ATOM     22 CL   UNL     1       1.309  10.519  19.572  0.00  0.00    +0.000 Cl
ATOM     23  C   UNL     1       2.131   7.972  18.972  0.00  0.00    +0.000 A 
ATOM     24 CL   UNL     1       2.895   8.506  17.523  0.00  0.00    +0.000 Cl
ATOM     25  C   UNL     1       2.200   6.620  19.307  0.00  0.00    +0.000 A 
ENDBRANCH  16  18
ENDBRANCH  15  16
ENDBRANCH  14  15
ENDBRANCH   3  14
TORSDOF 7
ENDMDL
MODEL 2
REMARK VINA RESULT:      -6.8      1.047      1.412
REMARK  Name = 
REMARK  9 active torsions:
REMARK  status: ('A' for Active; 'I' for Inactive)
REMARK    1  A    between atoms: C_1  and  O_2
REMARK    2  A    between atoms: O_2  and  C_3
REMARK    3  A    between atoms: C_6  and  C_7
REMARK    4  A    between atoms: C_7  and  N_8
REMARK    5  A    between atoms: N_8  and  C_9
REMARK    6  A    between atoms: C_10  and  C_12
REMARK    7  A    between atoms: C_12  and  O_13
REMARK    8  A    between atoms: O_13  and  C_14
REMARK    9  A    between atoms: C_14  and  C_16
REMARK                            x       y       z     vdW  Elec       q    Type
REMARK                         _______ _______ _______ _____ _____    ______ ____
ROOT
ATOM      1  N   UNL     1       3.021   2.996  18.316  0.00  0.00    +0.000 N 
ATOM      2  C   UNL     1       3.907   2.471  19.344  0.00  0.00    +0.000 C 
ATOM      3  C   UNL     1       1.779   3.579  18.583  0.00  0.00    +0.000 C 
ATOM      4  O   UNL     1       1.071   4.063  17.696  0.00  0.00    +0.000 OA
ENDROOT
BRANCH   1   5
ATOM      5  C   UNL     1       3.563   3.086  16.957  0.00  0.00    +0.000 C 
BRANCH   5   9
ATOM      6  C   UNL     1       6.764   5.995  16.603  0.00  0.00    +0.000 A 
ATOM      7  C   UNL     1       5.694   6.215  17.470  0.00  0.00    +0.000 A 
ATOM      8  C   UNL     1       4.662   5.280  17.584  0.00  0.00    +0.000 A 
ATOM      9  C   UNL     1       4.668   4.109  16.812  0.00  0.00    +0.000 A 
ATOM     10  C   UNL     1       5.754   3.890  15.951  0.00  0.00    +0.000 A 
ATOM     11  C   UNL     1       6.793   4.827  15.843  0.00  0.00    +0.000 A 
BRANCH   6  13
ATOM     12  C   UNL     1       7.707   7.889  17.689  0.00  0.00    +0.000 C 
ATOM     13  O   UNL     1       7.695   6.999  16.581  0.00  0.00    +0.000 OA
ENDBRANCH   6  13
ENDBRANCH   5   9
ENDBRANCH   1   5
BRANCH   3  14
ATOM     14  C   UNL     1       1.307   3.576  20.047  0.00  0.00    +0.000 C 
BRANCH  14  15
ATOM     15  O   UNL     1       1.060   4.878  20.581  0.00  0.00    +0.000 OA
BRANCH  15  16
ATOM     16  C   UNL     1       2.112   5.728  20.515  0.00  0.00    +0.000 C 
ATOM     17  O   UNL     1       3.289   5.425  20.612  0.00  0.00    +0.000 OA
BRANCH  16  18
ATOM     18  C   UNL     1       1.645   7.127  20.380  0.00  0.00    +0.000 A 
ATOM     19  C   UNL     1       0.951   7.788  21.388  0.00  0.00    +0.000 A 
ATOM     20  N   UNL     1       0.556   9.083  21.311  0.00  0.00    +0.000 NA
ATOM     21  C   UNL     1       0.862   9.747  20.171  0.00  0.00    +0.000 A 
ATOM     22 CL   UNL     1       0.336  11.384  20.187  0.00  0.00    +0.000 Cl
ATOM     23  C   UNL     1       1.543   9.174  19.100  0.00  0.00    +0.000 A 
ATOM     24 CL   UNL     1       1.931  10.032  17.657  0.00  0.00    +0.000 Cl
ATOM     25  C   UNL     1       1.940   7.841  19.214  0.00  0.00    +0.000 A 
ENDBRANCH  16  18
ENDBRANCH  15  16
ENDBRANCH  14  15
ENDBRANCH   3  14
TORSDOF 7
ENDMDL
MODEL 3
REMARK VINA RESULT:      -6.7      1.256      1.729
REMARK  Name = 
REMARK  9 active torsions:
REMARK  status: ('A' for Active; 'I' for Inactive)
REMARK    1  A    between atoms: C_1  and  O_2
REMARK    2  A    between atoms: O_2  and  C_3
REMARK    3  A    between atoms: C_6  and  C_7
REMARK    4  A    between atoms: C_7  and  N_8
REMARK    5  A    between atoms: N_8  and  C_9
REMARK    6  A    between atoms: C_10  and  C_12
REMARK    7  A    between atoms: C_12  and  O_13
REMARK    8  A    between atoms: O_13  and  C_14
REMARK    9  A    between atoms: C_14  and  C_16
REMARK                            x       y       z     vdW  Elec       q    Type
REMARK                         _______ _______ _______ _____ _____    ______ ____
ROOT
ATOM      1  N   UNL     1       2.986   2.738  18.418  0.00  0.00    +0.000 N 
ATOM      2  C   UNL     1       3.614   2.099  19.564  0.00  0.00    +0.000 C 
ATOM      3  C   UNL     1       1.829   3.516  18.497  0.00  0.00    +0.000 C 
ATOM      4  O   UNL     1       1.348   4.089  17.517  0.00  0.00    +0.000 OA
ENDROOT
BRANCH   1   5
ATOM      5  C   UNL     1       3.731   2.713  17.156  0.00  0.00    +0.000 C 
BRANCH   5   9
ATOM      6  C   UNL     1       6.659   5.902  16.839  0.00  0.00    +0.000 A 
ATOM      7  C   UNL     1       5.950   5.471  15.717  0.00  0.00    +0.000 A 
ATOM      8  C   UNL     1       5.008   4.444  15.818  0.00  0.00    +0.000 A 
ATOM      9  C   UNL     1       4.770   3.807  17.045  0.00  0.00    +0.000 A 
ATOM     10  C   UNL     1       5.480   4.254  18.170  0.00  0.00    +0.000 A 
ATOM     11  C   UNL     1       6.420   5.291  18.069  0.00  0.00    +0.000 A 
BRANCH   6  13
ATOM     12  C   UNL     1       7.715   7.888  17.607  0.00  0.00    +0.000 C 
ATOM     13  O   UNL     1       7.558   6.904  16.594  0.00  0.00    +0.000 OA
ENDBRANCH   6  13
ENDBRANCH   5   9
ENDBRANCH   1   5
BRANCH   3  14
ATOM     14  C   UNL     1       1.149   3.618  19.874  0.00  0.00    +0.000 C 
BRANCH  14  15
ATOM     15  O   UNL     1       1.054   4.952  20.379  0.00  0.00    +0.000 OA
BRANCH  15  16
ATOM     16  C   UNL     1       2.199   5.670  20.307  0.00  0.00    +0.000 C 
ATOM     17  O   UNL     1       3.321   5.261  20.557  0.00  0.00    +0.000 OA
BRANCH  16  18
ATOM     18  C   UNL     1       1.912   7.077  19.949  0.00  0.00    +0.000 A 
ATOM     19  C   UNL     1       2.199   7.608  18.696  0.00  0.00    +0.000 A 
ATOM     20  N   UNL     1       1.902   8.878  18.325  0.00  0.00    +0.000 NA
ATOM     21  C   UNL     1       1.295   9.657  19.252  0.00  0.00    +0.000 A 
ATOM     22 CL   UNL     1       0.943  11.238  18.672  0.00  0.00    +0.000 Cl
ATOM     23  C   UNL     1       0.974   9.226  20.537  0.00  0.00    +0.000 A 
ATOM     24 CL   UNL     1       0.197  10.227  21.704  0.00  0.00    +0.000 Cl
ATOM     25  C   UNL     1       1.289   7.912  20.884  0.00  0.00    +0.000 A 
ENDBRANCH  16  18
ENDBRANCH  15  16
ENDBRANCH  14  15
ENDBRANCH   3  14
TORSDOF 7
ENDMDL
MODEL 4
REMARK VINA RESULT:      -6.5      3.772      7.677
REMARK  Name = 
REMARK  9 active torsions:
REMARK  status: ('A' for Active; 'I' for Inactive)
REMARK    1  A    between atoms: C_1  and  O_2
REMARK    2  A    between atoms: O_2  and  C_3
REMARK    3  A    between atoms: C_6  and  C_7
REMARK    4  A    between atoms: C_7  and  N_8
REMARK    5  A    between atoms: N_8  and  C_9
REMARK    6  A    between atoms: C_10  and  C_12
REMARK    7  A    between atoms: C_12  and  O_13
REMARK    8  A    between atoms: O_13  and  C_14
REMARK    9  A    between atoms: C_14  and  C_16
REMARK                            x       y       z     vdW  Elec       q    Type
REMARK                         _______ _______ _______ _____ _____    ______ ____
ROOT
ATOM      1  N   UNL     1       1.050   8.889  20.397  0.00  0.00    +0.000 N 
ATOM      2  C   UNL     1       0.151   8.743  21.532  0.00  0.00    +0.000 C 
ATOM      3  C   UNL     1       1.768   7.832  19.832  0.00  0.00    +0.000 C 
ATOM      4  O   UNL     1       2.482   7.974  18.837  0.00  0.00    +0.000 OA
ENDROOT
BRANCH   1   5
ATOM      5  C   UNL     1       1.036  10.179  19.703  0.00  0.00    +0.000 C 
BRANCH   5   9
ATOM      6  C   UNL     1      -2.721  11.137  17.750  0.00  0.00    +0.000 A 
ATOM      7  C   UNL     1      -2.327  11.809  18.906  0.00  0.00    +0.000 A 
ATOM      8  C   UNL     1      -1.118  11.501  19.536  0.00  0.00    +0.000 A 
ATOM      9  C   UNL     1      -0.285  10.493  19.033  0.00  0.00    +0.000 A 
ATOM     10  C   UNL     1      -0.683   9.828  17.863  0.00  0.00    +0.000 A 
ATOM     11  C   UNL     1      -1.893  10.143  17.227  0.00  0.00    +0.000 A 
BRANCH   6  13
ATOM     12  C   UNL     1      -5.090  11.073  17.933  0.00  0.00    +0.000 C 
ATOM     13  O   UNL     1      -3.932  11.529  17.247  0.00  0.00    +0.000 OA
ENDBRANCH   6  13
ENDBRANCH   5   9
ENDBRANCH   1   5
BRANCH   3  14
ATOM     14  C   UNL     1       1.652   6.461  20.521  0.00  0.00    +0.000 C 
BRANCH  14  15
ATOM     15  O   UNL     1       2.804   5.631  20.364  0.00  0.00    +0.000 OA
BRANCH  15  16
ATOM     16  C   UNL     1       2.666   4.631  19.462  0.00  0.00    +0.000 C 
ATOM     17  O   UNL     1       1.759   3.816  19.425  0.00  0.00    +0.000 OA
BRANCH  16  18
ATOM     18  C   UNL     1       3.823   4.597  18.539  0.00  0.00    +0.000 A 
ATOM     19  C   UNL     1       3.735   4.102  17.242  0.00  0.00    +0.000 A 
ATOM     20  N   UNL     1       4.766   4.104  16.360  0.00  0.00    +0.000 NA
ATOM     21  C   UNL     1       5.940   4.618  16.796  0.00  0.00    +0.000 A 
ATOM     22 CL   UNL     1       7.170   4.592  15.594  0.00  0.00    +0.000 Cl
ATOM     23  C   UNL     1       6.136   5.128  18.077  0.00  0.00    +0.000 A 
ATOM     24 CL   UNL     1       7.635   5.783  18.617  0.00  0.00    +0.000 Cl
ATOM     25  C   UNL     1       5.054   5.115  18.958  0.00  0.00    +0.000 A 
ENDBRANCH  16  18
ENDBRANCH  15  16
ENDBRANCH  14  15
ENDBRANCH   3  14
TORSDOF 7
ENDMDL
MODEL 5
REMARK VINA RESULT:      -6.5      3.597      7.408
REMARK  Name = 
REMARK  9 active torsions:
REMARK  status: ('A' for Active; 'I' for Inactive)
REMARK    1  A    between atoms: C_1  and  O_2
REMARK    2  A    between atoms: O_2  and  C_3
REMARK    3  A    between atoms: C_6  and  C_7
REMARK    4  A    between atoms: C_7  and  N_8
REMARK    5  A    between atoms: N_8  and  C_9
REMARK    6  A    between atoms: C_10  and  C_12
REMARK    7  A    between atoms: C_12  and  O_13
REMARK    8  A    between atoms: O_13  and  C_14
REMARK    9  A    between atoms: C_14  and  C_16
REMARK                            x       y       z     vdW  Elec       q    Type
REMARK                         _______ _______ _______ _____ _____    ______ ____
ROOT
ATOM      1  N   UNL     1       1.522   8.534  19.895  0.00  0.00    +0.000 N 
ATOM      2  C   UNL     1       0.750   8.580  21.128  0.00  0.00    +0.000 C 
ATOM      3  C   UNL     1       2.084   7.366  19.372  0.00  0.00    +0.000 C 
ATOM      4  O   UNL     1       2.690   7.348  18.298  0.00  0.00    +0.000 OA
ENDROOT
BRANCH   1   5
ATOM      5  C   UNL     1       1.533   9.748  19.076  0.00  0.00    +0.000 C 
BRANCH   5   9
ATOM      6  C   UNL     1      -2.452  11.302  18.338  0.00  0.00    +0.000 A 
ATOM      7  C   UNL     1      -1.960  10.222  17.604  0.00  0.00    +0.000 A 
ATOM      8  C   UNL     1      -0.677   9.722  17.840  0.00  0.00    +0.000 A 
ATOM      9  C   UNL     1       0.154  10.309  18.804  0.00  0.00    +0.000 A 
ATOM     10  C   UNL     1      -0.352  11.388  19.546  0.00  0.00    +0.000 A 
ATOM     11  C   UNL     1      -1.644  11.884  19.313  0.00  0.00    +0.000 A 
BRANCH   6  13
ATOM     12  C   UNL     1      -4.720  10.690  17.973  0.00  0.00    +0.000 C 
ATOM     13  O   UNL     1      -3.716  11.697  17.993  0.00  0.00    +0.000 OA
ENDBRANCH   6  13
ENDBRANCH   5   9
ENDBRANCH   1   5
BRANCH   3  14
ATOM     14  C   UNL     1       1.936   6.084  20.209  0.00  0.00    +0.000 C 
BRANCH  14  15
ATOM     15  O   UNL     1       1.920   4.883  19.436  0.00  0.00    +0.000 OA
BRANCH  15  16
ATOM     16  C   UNL     1       2.923   4.016  19.711  0.00  0.00    +0.000 C 
ATOM     17  O   UNL     1       2.974   3.254  20.663  0.00  0.00    +0.000 OA
BRANCH  16  18
ATOM     18  C   UNL     1       4.021   4.158  18.728  0.00  0.00    +0.000 A 
ATOM     19  C   UNL     1       3.907   3.735  17.408  0.00  0.00    +0.000 A 
ATOM     20  N   UNL     1       4.878   3.897  16.475  0.00  0.00    +0.000 NA
ATOM     21  C   UNL     1       6.018   4.504  16.881  0.00  0.00    +0.000 A 
ATOM     22 CL   UNL     1       7.171   4.679  15.617  0.00  0.00    +0.000 Cl
ATOM     23  C   UNL     1       6.236   4.954  18.180  0.00  0.00    +0.000 A 
ATOM     24 CL   UNL     1       7.691   5.729  18.682  0.00  0.00    +0.000 Cl
ATOM     25  C   UNL     1       5.215   4.776  19.114  0.00  0.00    +0.000 A 
ENDBRANCH  16  18
ENDBRANCH  15  16
ENDBRANCH  14  15
ENDBRANCH   3  14
TORSDOF 7
ENDMDL
MODEL 6
REMARK VINA RESULT:      -6.5      1.507      2.211
REMARK  Name = 
REMARK  9 active torsions:
REMARK  status: ('A' for Active; 'I' for Inactive)
REMARK    1  A    between atoms: C_1  and  O_2
REMARK    2  A    between atoms: O_2  and  C_3
REMARK    3  A    between atoms: C_6  and  C_7
REMARK    4  A    between atoms: C_7  and  N_8
REMARK    5  A    between atoms: N_8  and  C_9
REMARK    6  A    between atoms: C_10  and  C_12
REMARK    7  A    between atoms: C_12  and  O_13
REMARK    8  A    between atoms: O_13  and  C_14
REMARK    9  A    between atoms: C_14  and  C_16
REMARK                            x       y       z     vdW  Elec       q    Type
REMARK                         _______ _______ _______ _____ _____    ______ ____
ROOT
ATOM      1  N   UNL     1       3.965   2.920  17.975  0.00  0.00    +0.000 N 
ATOM      2  C   UNL     1       2.653   2.570  17.454  0.00  0.00    +0.000 C 
ATOM      3  C   UNL     1       4.290   2.913  19.334  0.00  0.00    +0.000 C 
ATOM      4  O   UNL     1       5.426   3.164  19.744  0.00  0.00    +0.000 OA
ENDROOT
BRANCH   1   5
ATOM      5  C   UNL     1       5.040   3.098  16.996  0.00  0.00    +0.000 C 
BRANCH   5   9
ATOM      6  C   UNL     1       6.801   7.062  17.150  0.00  0.00    +0.000 A 
ATOM      7  C   UNL     1       5.528   6.868  16.613  0.00  0.00    +0.000 A 
ATOM      8  C   UNL     1       4.961   5.592  16.563  0.00  0.00    +0.000 A 
ATOM      9  C   UNL     1       5.668   4.474  17.028  0.00  0.00    +0.000 A 
ATOM     10  C   UNL     1       6.944   4.680  17.576  0.00  0.00    +0.000 A 
ATOM     11  C   UNL     1       7.509   5.963  17.633  0.00  0.00    +0.000 A 
BRANCH   6  13
ATOM     12  C   UNL     1       8.247   8.716  18.061  0.00  0.00    +0.000 C 
ATOM     13  O   UNL     1       7.239   8.359  17.124  0.00  0.00    +0.000 OA
ENDBRANCH   6  13
ENDBRANCH   5   9
ENDBRANCH   1   5
BRANCH   3  14
ATOM     14  C   UNL     1       3.155   2.595  20.322  0.00  0.00    +0.000 C 
BRANCH  14  15
ATOM     15  O   UNL     1       2.622   3.743  20.985  0.00  0.00    +0.000 OA
BRANCH  15  16
ATOM     16  C   UNL     1       1.489   4.242  20.437  0.00  0.00    +0.000 C 
ATOM     17  O   UNL     1       0.442   3.637  20.274  0.00  0.00    +0.000 OA
BRANCH  16  18
ATOM     18  C   UNL     1       1.700   5.633  19.977  0.00  0.00    +0.000 A 
ATOM     19  C   UNL     1       2.137   5.941  18.693  0.00  0.00    +0.000 A 
ATOM     20  N   UNL     1       2.291   7.207  18.229  0.00  0.00    +0.000 NA
ATOM     21  C   UNL     1       2.001   8.211  19.091  0.00  0.00    +0.000 A 
ATOM     22 CL   UNL     1       2.208   9.771  18.396  0.00  0.00    +0.000 Cl
ATOM     23  C   UNL     1       1.568   8.009  20.399  0.00  0.00    +0.000 A 
ATOM     24 CL   UNL     1       1.199   9.296  21.482  0.00  0.00    +0.000 Cl
ATOM     25  C   UNL     1       1.416   6.695  20.842  0.00  0.00    +0.000 A 
ENDBRANCH  16  18
ENDBRANCH  15  16
ENDBRANCH  14  15
ENDBRANCH   3  14
TORSDOF 7
ENDMDL
MODEL 7
REMARK VINA RESULT:      -6.4      3.825      7.636
REMARK  Name = 
REMARK  9 active torsions:
REMARK  status: ('A' for Active; 'I' for Inactive)
REMARK    1  A    between atoms: C_1  and  O_2
REMARK    2  A    between atoms: O_2  and  C_3
REMARK    3  A    between atoms: C_6  and  C_7
REMARK    4  A    between atoms: C_7  and  N_8
REMARK    5  A    between atoms: N_8  and  C_9
REMARK    6  A    between atoms: C_10  and  C_12
REMARK    7  A    between atoms: C_12  and  O_13
REMARK    8  A    between atoms: O_13  and  C_14
REMARK    9  A    between atoms: C_14  and  C_16
REMARK                            x       y       z     vdW  Elec       q    Type
REMARK                         _______ _______ _______ _____ _____    ______ ____
ROOT
ATOM      1  N   UNL     1       2.157   7.791  19.183  0.00  0.00    +0.000 N 
ATOM      2  C   UNL     1       2.354   8.772  18.127  0.00  0.00    +0.000 C 
ATOM      3  C   UNL     1       2.692   6.501  19.157  0.00  0.00    +0.000 C 
ATOM      4  O   UNL     1       2.553   5.707  20.090  0.00  0.00    +0.000 OA
ENDROOT
BRANCH   1   5
ATOM      5  C   UNL     1       1.526   8.265  20.418  0.00  0.00    +0.000 C 
BRANCH   5   9
ATOM      6  C   UNL     1      -0.960  11.787  19.912  0.00  0.00    +0.000 A 
ATOM      7  C   UNL     1      -1.165  10.651  19.129  0.00  0.00    +0.000 A 
ATOM      8  C   UNL     1      -0.365   9.517  19.290  0.00  0.00    +0.000 A 
ATOM      9  C   UNL     1       0.678   9.504  20.227  0.00  0.00    +0.000 A 
ATOM     10  C   UNL     1       0.871  10.647  21.019  0.00  0.00    +0.000 A 
ATOM     11  C   UNL     1       0.061  11.782  20.861  0.00  0.00    +0.000 A 
BRANCH   6  13
ATOM     12  C   UNL     1      -1.622  14.020  20.391  0.00  0.00    +0.000 C 
ATOM     13  O   UNL     1      -1.806  12.828  19.639  0.00  0.00    +0.000 OA
ENDBRANCH   6  13
ENDBRANCH   5   9
ENDBRANCH   1   5
BRANCH   3  14
ATOM     14  C   UNL     1       3.459   6.089  17.888  0.00  0.00    +0.000 C 
BRANCH  14  15
ATOM     15  O   UNL     1       3.807   4.703  17.842  0.00  0.00    +0.000 OA
BRANCH  15  16
ATOM     16  C   UNL     1       5.132   4.447  17.935  0.00  0.00    +0.000 C 
ATOM     17  O   UNL     1       5.733   4.119  18.946  0.00  0.00    +0.000 OA
BRANCH  16  18
ATOM     18  C   UNL     1       5.803   4.689  16.638  0.00  0.00    +0.000 A 
ATOM     19  C   UNL     1       6.940   5.482  16.517  0.00  0.00    +0.000 A 
ATOM     20  N   UNL     1       7.603   5.681  15.351  0.00  0.00    +0.000 NA
ATOM     21  C   UNL     1       7.104   5.065  14.253  0.00  0.00    +0.000 A 
ATOM     22 CL   UNL     1       8.031   5.365  12.836  0.00  0.00    +0.000 Cl
ATOM     23  C   UNL     1       5.967   4.261  14.265  0.00  0.00    +0.000 A 
ATOM     24 CL   UNL     1       5.345   3.480  12.861  0.00  0.00    +0.000 Cl
ATOM     25  C   UNL     1       5.312   4.073  15.482  0.00  0.00    +0.000 A 
ENDBRANCH  16  18
ENDBRANCH  15  16
ENDBRANCH  14  15
ENDBRANCH   3  14
TORSDOF 7
ENDMDL
MODEL 8
REMARK VINA RESULT:      -6.4      2.523      3.537
REMARK  Name = 
REMARK  9 active torsions:
REMARK  status: ('A' for Active; 'I' for Inactive)
REMARK    1  A    between atoms: C_1  and  O_2
REMARK    2  A    between atoms: O_2  and  C_3
REMARK    3  A    between atoms: C_6  and  C_7
REMARK    4  A    between atoms: C_7  and  N_8
REMARK    5  A    between atoms: N_8  and  C_9
REMARK    6  A    between atoms: C_10  and  C_12
REMARK    7  A    between atoms: C_12  and  O_13
REMARK    8  A    between atoms: O_13  and  C_14
REMARK    9  A    between atoms: C_14  and  C_16
REMARK                            x       y       z     vdW  Elec       q    Type
REMARK                         _______ _______ _______ _____ _____    ______ ____
ROOT
ATOM      1  N   UNL     1       3.039   4.343  18.418  0.00  0.00    +0.000 N 
ATOM      2  C   UNL     1       1.734   4.057  17.840  0.00  0.00    +0.000 C 
ATOM      3  C   UNL     1       3.265   5.333  19.377  0.00  0.00    +0.000 C 
ATOM      4  O   UNL     1       4.372   5.520  19.888  0.00  0.00    +0.000 OA
ENDROOT
BRANCH   1   5
ATOM      5  C   UNL     1       4.120   3.404  18.108  0.00  0.00    +0.000 C 
BRANCH   5   9
ATOM      6  C   UNL     1       6.992   5.035  15.291  0.00  0.00    +0.000 A 
ATOM      7  C   UNL     1       5.692   4.730  14.887  0.00  0.00    +0.000 A 
ATOM      8  C   UNL     1       4.767   4.204  15.793  0.00  0.00    +0.000 A 
ATOM      9  C   UNL     1       5.131   3.949  17.123  0.00  0.00    +0.000 A 
ATOM     10  C   UNL     1       6.438   4.270  17.523  0.00  0.00    +0.000 A 
ATOM     11  C   UNL     1       7.363   4.805  16.615  0.00  0.00    +0.000 A 
BRANCH   6  13
ATOM     12  C   UNL     1       7.598   5.005  12.992  0.00  0.00    +0.000 C 
ATOM     13  O   UNL     1       7.795   5.530  14.299  0.00  0.00    +0.000 OA
ENDBRANCH   6  13
ENDBRANCH   5   9
ENDBRANCH   1   5
BRANCH   3  14
ATOM     14  C   UNL     1       2.066   6.215  19.767  0.00  0.00    +0.000 C 
BRANCH  14  15
ATOM     15  O   UNL     1       2.378   7.605  19.880  0.00  0.00    +0.000 OA
BRANCH  15  16
ATOM     16  C   UNL     1       1.879   8.382  18.890  0.00  0.00    +0.000 C 
ATOM     17  O   UNL     1       2.211   8.352  17.716  0.00  0.00    +0.000 OA
BRANCH  16  18
ATOM     18  C   UNL     1       0.905   9.356  19.431  0.00  0.00    +0.000 A 
ATOM     19  C   UNL     1       0.615   9.455  20.787  0.00  0.00    +0.000 A 
ATOM     20  N   UNL     1      -0.236  10.370  21.315  0.00  0.00    +0.000 NA
ATOM     21  C   UNL     1      -0.830  11.222  20.446  0.00  0.00    +0.000 A 
ATOM     22 CL   UNL     1      -1.870  12.353  21.220  0.00  0.00    +0.000 Cl
ATOM     23  C   UNL     1      -0.617  11.200  19.070  0.00  0.00    +0.000 A 
ATOM     24 CL   UNL     1      -1.376  12.293  17.976  0.00  0.00    +0.000 Cl
ATOM     25  C   UNL     1       0.268  10.249  18.561  0.00  0.00    +0.000 A 
ENDBRANCH  16  18
ENDBRANCH  15  16
ENDBRANCH  14  15
ENDBRANCH   3  14
TORSDOF 7
ENDMDL
MODEL 9
REMARK VINA RESULT:      -6.3      2.822      5.907
REMARK  Name = 
REMARK  9 active torsions:
REMARK  status: ('A' for Active; 'I' for Inactive)
REMARK    1  A    between atoms: C_1  and  O_2
REMARK    2  A    between atoms: O_2  and  C_3
REMARK    3  A    between atoms: C_6  and  C_7
REMARK    4  A    between atoms: C_7  and  N_8
REMARK    5  A    between atoms: N_8  and  C_9
REMARK    6  A    between atoms: C_10  and  C_12
REMARK    7  A    between atoms: C_12  and  O_13
REMARK    8  A    between atoms: O_13  and  C_14
REMARK    9  A    between atoms: C_14  and  C_16
REMARK                            x       y       z     vdW  Elec       q    Type
REMARK                         _______ _______ _______ _____ _____    ______ ____
ROOT
ATOM      1  N   UNL     1       1.899   5.280  19.227  0.00  0.00    +0.000 N 
ATOM      2  C   UNL     1       1.722   5.626  17.825  0.00  0.00    +0.000 C 
ATOM      3  C   UNL     1       1.695   3.998  19.744  0.00  0.00    +0.000 C 
ATOM      4  O   UNL     1       1.903   3.721  20.928  0.00  0.00    +0.000 OA
ENDROOT
BRANCH   1   5
ATOM      5  C   UNL     1       2.510   6.296  20.088  0.00  0.00    +0.000 C 
BRANCH   5   9
ATOM      6  C   UNL     1       0.453  10.118  20.106  0.00  0.00    +0.000 A 
ATOM      7  C   UNL     1       0.366   9.256  21.200  0.00  0.00    +0.000 A 
ATOM      8  C   UNL     1       1.027   8.026  21.194  0.00  0.00    +0.000 A 
ATOM      9  C   UNL     1       1.774   7.618  20.080  0.00  0.00    +0.000 A 
ATOM     10  C   UNL     1       1.865   8.496  18.988  0.00  0.00    +0.000 A 
ATOM     11  C   UNL     1       1.207   9.735  18.998  0.00  0.00    +0.000 A 
BRANCH   6  13
ATOM     12  C   UNL     1       0.053  12.095  21.366  0.00  0.00    +0.000 C 
ATOM     13  O   UNL     1      -0.255  11.282  20.241  0.00  0.00    +0.000 OA
ENDBRANCH   6  13
ENDBRANCH   5   9
ENDBRANCH   1   5
BRANCH   3  14
ATOM     14  C   UNL     1       1.172   2.928  18.771  0.00  0.00    +0.000 C 
BRANCH  14  15
ATOM     15  O   UNL     1       2.075   2.615  17.708  0.00  0.00    +0.000 OA
BRANCH  15  16
ATOM     16  C   UNL     1       3.290   2.171  18.106  0.00  0.00    +0.000 C 
ATOM     17  O   UNL     1       3.533   1.076  18.588  0.00  0.00    +0.000 OA
BRANCH  16  18
ATOM     18  C   UNL     1       4.311   3.231  17.952  0.00  0.00    +0.000 A 
ATOM     19  C   UNL     1       5.082   3.692  19.014  0.00  0.00    +0.000 A 
ATOM     20  N   UNL     1       6.058   4.626  18.891  0.00  0.00    +0.000 NA
ATOM     21  C   UNL     1       6.268   5.129  17.651  0.00  0.00    +0.000 A 
ATOM     22 CL   UNL     1       7.539   6.287  17.604  0.00  0.00    +0.000 Cl
ATOM     23  C   UNL     1       5.544   4.744  16.526  0.00  0.00    +0.000 A 
ATOM     24 CL   UNL     1       5.826   5.389  14.954  0.00  0.00    +0.000 Cl
ATOM     25  C   UNL     1       4.551   3.777  16.686  0.00  0.00    +0.000 A 
ENDBRANCH  16  18
ENDBRANCH  15  16
ENDBRANCH  14  15
ENDBRANCH   3  14
TORSDOF 7
ENDMDL
