MODEL 1
REMARK VINA RESULT:      -6.9      0.000      0.000
REMARK  Name = 
REMARK  4 active torsions:
REMARK  status: ('A' for Active; 'I' for Inactive)
REMARK    1  A    between atoms: C_1  and  C_2
REMARK    2  A    between atoms: C_2  and  N_3
REMARK    3  A    between atoms: C_7  and  C_8
REMARK    4  A    between atoms: N_10  and  C_11
REMARK                            x       y       z     vdW  Elec       q    Type
REMARK                         _______ _______ _______ _____ _____    ______ ____
ROOT
ATOM      1  C   UNL     1       3.476   5.642  17.720  0.00  0.00    +0.000 C 
ATOM      2  O   UNL     1       2.500   4.963  18.012  0.00  0.00    +0.000 OA
ATOM      3  N   UNL     1       3.533   7.027  17.822  0.00  0.00    +0.000 N 
ATOM      4  H   UNL     1       4.288   7.479  17.324  0.00  0.00    +0.000 HD
ENDROOT
BRANCH   3   5
ATOM      5  C   UNL     1       2.558   7.882  18.383  0.00  0.00    +0.000 A 
ATOM      6  C   UNL     1       1.909   8.884  17.658  0.00  0.00    +0.000 A 
ATOM      7  C   UNL     1       0.958   9.707  18.274  0.00  0.00    +0.000 A 
ATOM      8  C   UNL     1       0.661   9.543  19.624  0.00  0.00    +0.000 A 
ATOM      9  C   UNL     1       1.277   8.522  20.349  0.00  0.00    +0.000 A 
ATOM     10  C   UNL     1       2.214   7.689  19.729  0.00  0.00    +0.000 A 
ATOM     11  O   UNL     1       1.029   8.292  21.679  0.00  0.00    +0.000 OA
ATOM     12  C   UNL     1      -0.150   8.976  22.125  0.00  0.00    +0.000 C 
ATOM     13  C   UNL     1      -0.196  10.402  21.598  0.00  0.00    +0.000 C 
ATOM     14  O   UNL     1      -0.249  10.413  20.165  0.00  0.00    +0.000 OA
ENDBRANCH   3   5
BRANCH   1  19
ATOM     15  N   UNL     1       5.928   5.008  17.790  0.00  0.00    +0.000 N 
ATOM     16  N   UNL     1       6.864   4.381  17.036  0.00  0.00    +0.000 NA
ATOM     17  C   UNL     1       6.236   4.093  15.902  0.00  0.00    +0.000 A 
ATOM     18  C   UNL     1       4.891   4.482  15.931  0.00  0.00    +0.000 A 
ATOM     19  C   UNL     1       4.692   5.062  17.177  0.00  0.00    +0.000 A 
BRANCH  15  21
ATOM     20  C   UNL     1       7.767   5.799  19.278  0.00  0.00    +0.000 C 
ATOM     21  C   UNL     1       6.305   5.384  19.144  0.00  0.00    +0.000 C 
ENDBRANCH  15  21
ENDBRANCH   1  19
TORSDOF 3
ENDMDL
MODEL 2
REMARK VINA RESULT:      -6.9      3.707      7.573
REMARK  Name = 
REMARK  4 active torsions:
REMARK  status: ('A' for Active; 'I' for Inactive)
REMARK    1  A    between atoms: C_1  and  C_2
REMARK    2  A    between atoms: C_2  and  N_3
REMARK    3  A    between atoms: C_7  and  C_8
REMARK    4  A    between atoms: N_10  and  C_11
REMARK                            x       y       z     vdW  Elec       q    Type
REMARK                         _______ _______ _______ _____ _____    ______ ____
ROOT
ATOM      1  C   UNL     1       4.008   3.542  18.600  0.00  0.00    +0.000 C 
ATOM      2  O   UNL     1       5.050   3.354  19.216  0.00  0.00    +0.000 OA
ATOM      3  N   UNL     1       3.932   4.112  17.335  0.00  0.00    +0.000 N 
ATOM      4  H   UNL     1       3.018   4.436  17.047  0.00  0.00    +0.000 HD
ENDROOT
BRANCH   3   5
ATOM      5  C   UNL     1       5.009   4.456  16.488  0.00  0.00    +0.000 A 
ATOM      6  C   UNL     1       6.078   5.260  16.893  0.00  0.00    +0.000 A 
ATOM      7  C   UNL     1       7.111   5.574  16.003  0.00  0.00    +0.000 A 
ATOM      8  C   UNL     1       7.075   5.100  14.694  0.00  0.00    +0.000 A 
ATOM      9  C   UNL     1       6.032   4.267  14.288  0.00  0.00    +0.000 A 
ATOM     10  C   UNL     1       5.009   3.939  15.184  0.00  0.00    +0.000 A 
ATOM     11  O   UNL     1       5.934   3.752  13.020  0.00  0.00    +0.000 OA
ATOM     12  C   UNL     1       7.164   3.884  12.296  0.00  0.00    +0.000 C 
ATOM     13  C   UNL     1       7.776   5.262  12.492  0.00  0.00    +0.000 C 
ATOM     14  O   UNL     1       8.101   5.484  13.871  0.00  0.00    +0.000 OA
ENDBRANCH   3   5
BRANCH   1  19
ATOM     15  N   UNL     1       2.048   3.913  20.161  0.00  0.00    +0.000 N 
ATOM     16  N   UNL     1       0.835   3.386  20.453  0.00  0.00    +0.000 NA
ATOM     17  C   UNL     1       0.747   2.311  19.679  0.00  0.00    +0.000 A 
ATOM     18  C   UNL     1       1.868   2.164  18.853  0.00  0.00    +0.000 A 
ATOM     19  C   UNL     1       2.707   3.226  19.160  0.00  0.00    +0.000 A 
BRANCH  15  21
ATOM     20  C   UNL     1       2.246   6.387  19.912  0.00  0.00    +0.000 C 
ATOM     21  C   UNL     1       2.405   5.166  20.812  0.00  0.00    +0.000 C 
ENDBRANCH  15  21
ENDBRANCH   1  19
TORSDOF 3
ENDMDL
MODEL 3
REMARK VINA RESULT:      -6.9      1.988      2.489
REMARK  Name = 
REMARK  4 active torsions:
REMARK  status: ('A' for Active; 'I' for Inactive)
REMARK    1  A    between atoms: C_1  and  C_2
REMARK    2  A    between atoms: C_2  and  N_3
REMARK    3  A    between atoms: C_7  and  C_8
REMARK    4  A    between atoms: N_10  and  C_11
REMARK                            x       y       z     vdW  Elec       q    Type
REMARK                         _______ _______ _______ _____ _____    ______ ____
ROOT
ATOM      1  C   UNL     1       2.564   5.145  18.989  0.00  0.00    +0.000 C 
ATOM      2  O   UNL     1       1.829   5.022  18.017  0.00  0.00    +0.000 OA
ATOM      3  N   UNL     1       2.825   6.349  19.633  0.00  0.00    +0.000 N 
ATOM      4  H   UNL     1       3.625   6.358  20.251  0.00  0.00    +0.000 HD
ENDROOT
BRANCH   3   5
ATOM      5  C   UNL     1       2.219   7.600  19.382  0.00  0.00    +0.000 A 
ATOM      6  C   UNL     1       2.298   8.258  18.152  0.00  0.00    +0.000 A 
ATOM      7  C   UNL     1       1.683   9.502  17.969  0.00  0.00    +0.000 A 
ATOM      8  C   UNL     1       0.998  10.106  19.020  0.00  0.00    +0.000 A 
ATOM      9  C   UNL     1       0.881   9.441  20.242  0.00  0.00    +0.000 A 
ATOM     10  C   UNL     1       1.481   8.190  20.418  0.00  0.00    +0.000 A 
ATOM     11  O   UNL     1       0.213   9.966  21.319  0.00  0.00    +0.000 OA
ATOM     12  C   UNL     1      -0.613  11.076  20.943  0.00  0.00    +0.000 C 
ATOM     13  C   UNL     1       0.118  12.014  19.996  0.00  0.00    +0.000 C 
ATOM     14  O   UNL     1       0.458  11.341  18.775  0.00  0.00    +0.000 OA
ENDBRANCH   3   5
BRANCH   1  19
ATOM     15  N   UNL     1       4.589   3.647  19.258  0.00  0.00    +0.000 N 
ATOM     16  N   UNL     1       5.001   2.572  19.971  0.00  0.00    +0.000 NA
ATOM     17  C   UNL     1       3.938   2.219  20.683  0.00  0.00    +0.000 A 
ATOM     18  C   UNL     1       2.856   3.083  20.476  0.00  0.00    +0.000 A 
ATOM     19  C   UNL     1       3.295   4.027  19.557  0.00  0.00    +0.000 A 
BRANCH  15  21
ATOM     20  C   UNL     1       6.366   5.394  19.157  0.00  0.00    +0.000 C 
ATOM     21  C   UNL     1       5.578   4.314  18.424  0.00  0.00    +0.000 C 
ENDBRANCH  15  21
ENDBRANCH   1  19
TORSDOF 3
ENDMDL
MODEL 4
REMARK VINA RESULT:      -6.8      1.264      2.003
REMARK  Name = 
REMARK  4 active torsions:
REMARK  status: ('A' for Active; 'I' for Inactive)
REMARK    1  A    between atoms: C_1  and  C_2
REMARK    2  A    between atoms: C_2  and  N_3
REMARK    3  A    between atoms: C_7  and  C_8
REMARK    4  A    between atoms: N_10  and  C_11
REMARK                            x       y       z     vdW  Elec       q    Type
REMARK                         _______ _______ _______ _____ _____    ______ ____
ROOT
ATOM      1  C   UNL     1       4.310   5.393  17.799  0.00  0.00    +0.000 C 
ATOM      2  O   UNL     1       3.891   4.619  18.651  0.00  0.00    +0.000 OA
ATOM      3  N   UNL     1       3.845   6.689  17.613  0.00  0.00    +0.000 N 
ATOM      4  H   UNL     1       4.089   7.128  16.735  0.00  0.00    +0.000 HD
ENDROOT
BRANCH   3   5
ATOM      5  C   UNL     1       2.922   7.389  18.422  0.00  0.00    +0.000 A 
ATOM      6  C   UNL     1       2.522   6.948  19.686  0.00  0.00    +0.000 A 
ATOM      7  C   UNL     1       1.595   7.681  20.436  0.00  0.00    +0.000 A 
ATOM      8  C   UNL     1       1.049   8.854  19.921  0.00  0.00    +0.000 A 
ATOM      9  C   UNL     1       1.468   9.323  18.676  0.00  0.00    +0.000 A 
ATOM     10  C   UNL     1       2.408   8.599  17.934  0.00  0.00    +0.000 A 
ATOM     11  O   UNL     1       0.985  10.474  18.107  0.00  0.00    +0.000 OA
ATOM     12  C   UNL     1       0.287  11.286  19.061  0.00  0.00    +0.000 C 
ATOM     13  C   UNL     1      -0.633  10.446  19.933  0.00  0.00    +0.000 C 
ATOM     14  O   UNL     1       0.119   9.494  20.697  0.00  0.00    +0.000 OA
ENDBRANCH   3   5
BRANCH   1  19
ATOM     15  N   UNL     1       6.665   5.358  16.866  0.00  0.00    +0.000 N 
ATOM     16  N   UNL     1       7.370   4.828  15.837  0.00  0.00    +0.000 NA
ATOM     17  C   UNL     1       6.461   4.193  15.106  0.00  0.00    +0.000 A 
ATOM     18  C   UNL     1       5.184   4.264  15.675  0.00  0.00    +0.000 A 
ATOM     19  C   UNL     1       5.328   5.011  16.837  0.00  0.00    +0.000 A 
BRANCH  15  21
ATOM     20  C   UNL     1       7.610   7.546  17.600  0.00  0.00    +0.000 C 
ATOM     21  C   UNL     1       7.415   6.062  17.895  0.00  0.00    +0.000 C 
ENDBRANCH  15  21
ENDBRANCH   1  19
TORSDOF 3
ENDMDL
MODEL 5
REMARK VINA RESULT:      -6.7      3.671      7.566
REMARK  Name = 
REMARK  4 active torsions:
REMARK  status: ('A' for Active; 'I' for Inactive)
REMARK    1  A    between atoms: C_1  and  C_2
REMARK    2  A    between atoms: C_2  and  N_3
REMARK    3  A    between atoms: C_7  and  C_8
REMARK    4  A    between atoms: N_10  and  C_11
REMARK                            x       y       z     vdW  Elec       q    Type
REMARK                         _______ _______ _______ _____ _____    ______ ____
ROOT
ATOM      1  C   UNL     1       3.394   4.855  18.250  0.00  0.00    +0.000 C 
ATOM      2  O   UNL     1       2.956   5.830  17.651  0.00  0.00    +0.000 OA
ATOM      3  N   UNL     1       4.535   4.151  17.884  0.00  0.00    +0.000 N 
ATOM      4  H   UNL     1       4.646   3.237  18.301  0.00  0.00    +0.000 HD
ENDROOT
BRANCH   3   5
ATOM      5  C   UNL     1       5.452   4.485  16.863  0.00  0.00    +0.000 A 
ATOM      6  C   UNL     1       6.557   5.316  17.067  0.00  0.00    +0.000 A 
ATOM      7  C   UNL     1       7.425   5.618  16.011  0.00  0.00    +0.000 A 
ATOM      8  C   UNL     1       7.186   5.104  14.739  0.00  0.00    +0.000 A 
ATOM      9  C   UNL     1       6.107   4.244  14.532  0.00  0.00    +0.000 A 
ATOM     10  C   UNL     1       5.250   3.928  15.592  0.00  0.00    +0.000 A 
ATOM     11  O   UNL     1       5.813   3.690  13.312  0.00  0.00    +0.000 OA
ATOM     12  C   UNL     1       6.907   3.818  12.393  0.00  0.00    +0.000 C 
ATOM     13  C   UNL     1       7.515   5.210  12.448  0.00  0.00    +0.000 C 
ATOM     14  O   UNL     1       8.057   5.478  13.749  0.00  0.00    +0.000 OA
ENDBRANCH   3   5
BRANCH   1  19
ATOM     15  N   UNL     1       2.155   3.032  19.500  0.00  0.00    +0.000 N 
ATOM     16  N   UNL     1       1.622   2.785  20.721  0.00  0.00    +0.000 NA
ATOM     17  C   UNL     1       1.790   3.918  21.392  0.00  0.00    +0.000 A 
ATOM     18  C   UNL     1       2.470   4.881  20.636  0.00  0.00    +0.000 A 
ATOM     19  C   UNL     1       2.723   4.288  19.407  0.00  0.00    +0.000 A 
BRANCH  15  21
ATOM     20  C   UNL     1       3.526   1.205  18.500  0.00  0.00    +0.000 C 
ATOM     21  C   UNL     1       2.186   1.931  18.550  0.00  0.00    +0.000 C 
ENDBRANCH  15  21
ENDBRANCH   1  19
TORSDOF 3
ENDMDL
MODEL 6
REMARK VINA RESULT:      -6.6      1.808      2.276
REMARK  Name = 
REMARK  4 active torsions:
REMARK  status: ('A' for Active; 'I' for Inactive)
REMARK    1  A    between atoms: C_1  and  C_2
REMARK    2  A    between atoms: C_2  and  N_3
REMARK    3  A    between atoms: C_7  and  C_8
REMARK    4  A    between atoms: N_10  and  C_11
REMARK                            x       y       z     vdW  Elec       q    Type
REMARK                         _______ _______ _______ _____ _____    ______ ____
ROOT
ATOM      1  C   UNL     1       2.626   5.735  19.087  0.00  0.00    +0.000 C 
ATOM      2  O   UNL     1       2.067   5.908  18.010  0.00  0.00    +0.000 OA
ATOM      3  N   UNL     1       2.605   6.641  20.141  0.00  0.00    +0.000 N 
ATOM      4  H   UNL     1       3.297   6.497  20.864  0.00  0.00    +0.000 HD
ENDROOT
BRANCH   3   5
ATOM      5  C   UNL     1       1.857   7.836  20.224  0.00  0.00    +0.000 A 
ATOM      6  C   UNL     1       1.652   8.689  19.137  0.00  0.00    +0.000 A 
ATOM      7  C   UNL     1       0.909   9.867  19.286  0.00  0.00    +0.000 A 
ATOM      8  C   UNL     1       0.379  10.207  20.527  0.00  0.00    +0.000 A 
ATOM      9  C   UNL     1       0.547   9.345  21.612  0.00  0.00    +0.000 A 
ATOM     10  C   UNL     1       1.275   8.160  21.458  0.00  0.00    +0.000 A 
ATOM     11  O   UNL     1       0.046   9.606  22.862  0.00  0.00    +0.000 OA
ATOM     12  C   UNL     1      -0.928  10.658  22.835  0.00  0.00    +0.000 C 
ATOM     13  C   UNL     1      -0.467  11.816  21.964  0.00  0.00    +0.000 C 
ATOM     14  O   UNL     1      -0.301  11.394  20.603  0.00  0.00    +0.000 OA
ENDBRANCH   3   5
BRANCH   1  19
ATOM     15  N   UNL     1       4.794   4.427  19.185  0.00  0.00    +0.000 N 
ATOM     16  N   UNL     1       5.260   3.210  19.556  0.00  0.00    +0.000 NA
ATOM     17  C   UNL     1       4.173   2.534  19.912  0.00  0.00    +0.000 A 
ATOM     18  C   UNL     1       3.015   3.315  19.822  0.00  0.00    +0.000 A 
ATOM     19  C   UNL     1       3.430   4.558  19.364  0.00  0.00    +0.000 A 
BRANCH  15  21
ATOM     20  C   UNL     1       6.980   4.859  18.065  0.00  0.00    +0.000 C 
ATOM     21  C   UNL     1       5.777   5.432  18.808  0.00  0.00    +0.000 C 
ENDBRANCH  15  21
ENDBRANCH   1  19
TORSDOF 3
ENDMDL
MODEL 7
REMARK VINA RESULT:      -6.5      3.874      7.604
REMARK  Name = 
REMARK  4 active torsions:
REMARK  status: ('A' for Active; 'I' for Inactive)
REMARK    1  A    between atoms: C_1  and  C_2
REMARK    2  A    between atoms: C_2  and  N_3
REMARK    3  A    between atoms: C_7  and  C_8
REMARK    4  A    between atoms: N_10  and  C_11
REMARK                            x       y       z     vdW  Elec       q    Type
REMARK                         _______ _______ _______ _____ _____    ______ ____
ROOT
ATOM      1  C   UNL     1       4.393   4.524  18.884  0.00  0.00    +0.000 C 
ATOM      2  O   UNL     1       5.463   4.204  19.387  0.00  0.00    +0.000 OA
ATOM      3  N   UNL     1       4.239   4.988  17.584  0.00  0.00    +0.000 N 
ATOM      4  H   UNL     1       3.362   5.445  17.375  0.00  0.00    +0.000 HD
ENDROOT
BRANCH   3   5
ATOM      5  C   UNL     1       5.231   5.058  16.580  0.00  0.00    +0.000 A 
ATOM      6  C   UNL     1       6.431   5.756  16.736  0.00  0.00    +0.000 A 
ATOM      7  C   UNL     1       7.371   5.798  15.699  0.00  0.00    +0.000 A 
ATOM      8  C   UNL     1       7.111   5.154  14.493  0.00  0.00    +0.000 A 
ATOM      9  C   UNL     1       5.932   4.423  14.339  0.00  0.00    +0.000 A 
ATOM     10  C   UNL     1       5.001   4.367  15.382  0.00  0.00    +0.000 A 
ATOM     11  O   UNL     1       5.610   3.754  13.185  0.00  0.00    +0.000 OA
ATOM     12  C   UNL     1       6.744   3.612  12.319  0.00  0.00    +0.000 C 
ATOM     13  C   UNL     1       7.536   4.907  12.229  0.00  0.00    +0.000 C 
ATOM     14  O   UNL     1       8.061   5.273  13.512  0.00  0.00    +0.000 OA
ENDBRANCH   3   5
BRANCH   1  19
ATOM     15  N   UNL     1       2.264   3.438  19.727  0.00  0.00    +0.000 N 
ATOM     16  N   UNL     1       1.197   3.713  20.515  0.00  0.00    +0.000 NA
ATOM     17  C   UNL     1       1.364   4.981  20.869  0.00  0.00    +0.000 A 
ATOM     18  C   UNL     1       2.553   5.517  20.360  0.00  0.00    +0.000 A 
ATOM     19  C   UNL     1       3.146   4.497  19.629  0.00  0.00    +0.000 A 
BRANCH  15  21
ATOM     20  C   UNL     1       2.327   1.960  17.719  0.00  0.00    +0.000 C 
ATOM     21  C   UNL     1       2.400   2.074  19.238  0.00  0.00    +0.000 C 
ENDBRANCH  15  21
ENDBRANCH   1  19
TORSDOF 3
ENDMDL
MODEL 8
REMARK VINA RESULT:      -6.5      2.188      3.114
REMARK  Name = 
REMARK  4 active torsions:
REMARK  status: ('A' for Active; 'I' for Inactive)
REMARK    1  A    between atoms: C_1  and  C_2
REMARK    2  A    between atoms: C_2  and  N_3
REMARK    3  A    between atoms: C_7  and  C_8
REMARK    4  A    between atoms: N_10  and  C_11
REMARK                            x       y       z     vdW  Elec       q    Type
REMARK                         _______ _______ _______ _____ _____    ______ ____
ROOT
ATOM      1  C   UNL     1       2.918   6.895  18.897  0.00  0.00    +0.000 C 
ATOM      2  O   UNL     1       2.966   7.557  17.868  0.00  0.00    +0.000 OA
ATOM      3  N   UNL     1       2.287   7.299  20.067  0.00  0.00    +0.000 N 
ATOM      4  H   UNL     1       2.529   6.785  20.904  0.00  0.00    +0.000 HD
ENDROOT
BRANCH   3   5
ATOM      5  C   UNL     1       1.495   8.454  20.254  0.00  0.00    +0.000 A 
ATOM      6  C   UNL     1       1.111   9.298  19.209  0.00  0.00    +0.000 A 
ATOM      7  C   UNL     1       0.334  10.435  19.461  0.00  0.00    +0.000 A 
ATOM      8  C   UNL     1      -0.052  10.745  20.762  0.00  0.00    +0.000 A 
ATOM      9  C   UNL     1       0.295   9.890  21.809  0.00  0.00    +0.000 A 
ATOM     10  C   UNL     1       1.057   8.744  21.555  0.00  0.00    +0.000 A 
ATOM     11  O   UNL     1      -0.057  10.122  23.115  0.00  0.00    +0.000 OA
ATOM     12  C   UNL     1      -1.079  11.122  23.220  0.00  0.00    +0.000 C 
ATOM     13  C   UNL     1      -0.792  12.304  22.308  0.00  0.00    +0.000 C 
ATOM     14  O   UNL     1      -0.777  11.895  20.933  0.00  0.00    +0.000 OA
ENDBRANCH   3   5
BRANCH   1  19
ATOM     15  N   UNL     1       2.962   4.369  19.097  0.00  0.00    +0.000 N 
ATOM     16  N   UNL     1       3.846   3.347  19.186  0.00  0.00    +0.000 NA
ATOM     17  C   UNL     1       5.033   3.940  19.237  0.00  0.00    +0.000 A 
ATOM     18  C   UNL     1       4.931   5.332  19.132  0.00  0.00    +0.000 A 
ATOM     19  C   UNL     1       3.574   5.605  19.022  0.00  0.00    +0.000 A 
BRANCH  15  21
ATOM     20  C   UNL     1       0.877   3.651  20.262  0.00  0.00    +0.000 C 
ATOM     21  C   UNL     1       1.556   4.024  18.949  0.00  0.00    +0.000 C 
ENDBRANCH  15  21
ENDBRANCH   1  19
TORSDOF 3
ENDMDL
MODEL 9
REMARK VINA RESULT:      -6.5      2.479      2.902
REMARK  Name = 
REMARK  4 active torsions:
REMARK  status: ('A' for Active; 'I' for Inactive)
REMARK    1  A    between atoms: C_1  and  C_2
REMARK    2  A    between atoms: C_2  and  N_3
REMARK    3  A    between atoms: C_7  and  C_8
REMARK    4  A    between atoms: N_10  and  C_11
REMARK                            x       y       z     vdW  Elec       q    Type
REMARK                         _______ _______ _______ _____ _____    ______ ____
ROOT
ATOM      1  C   UNL     1       3.536   5.265  19.047  0.00  0.00    +0.000 C 
ATOM      2  O   UNL     1       4.492   5.830  19.566  0.00  0.00    +0.000 OA
ATOM      3  N   UNL     1       2.328   5.880  18.741  0.00  0.00    +0.000 N 
ATOM      4  H   UNL     1       1.550   5.262  18.552  0.00  0.00    +0.000 HD
ENDROOT
BRANCH   3   5
ATOM      5  C   UNL     1       2.020   7.255  18.845  0.00  0.00    +0.000 A 
ATOM      6  C   UNL     1       2.140   8.150  17.780  0.00  0.00    +0.000 A 
ATOM      7  C   UNL     1       1.828   9.505  17.949  0.00  0.00    +0.000 A 
ATOM      8  C   UNL     1       1.409   9.977  19.190  0.00  0.00    +0.000 A 
ATOM      9  C   UNL     1       1.251   9.085  20.252  0.00  0.00    +0.000 A 
ATOM     10  C   UNL     1       1.546   7.728  20.077  0.00  0.00    +0.000 A 
ATOM     11  O   UNL     1       0.833   9.472  21.500  0.00  0.00    +0.000 OA
ATOM     12  C   UNL     1       0.267  10.789  21.485  0.00  0.00    +0.000 C 
ATOM     13  C   UNL     1       1.110  11.745  20.656  0.00  0.00    +0.000 C 
ATOM     14  O   UNL     1       1.162  11.321  19.287  0.00  0.00    +0.000 OA
ENDBRANCH   3   5
BRANCH   1  19
ATOM     15  N   UNL     1       3.301   2.806  19.607  0.00  0.00    +0.000 N 
ATOM     16  N   UNL     1       3.364   1.591  19.010  0.00  0.00    +0.000 NA
ATOM     17  C   UNL     1       3.723   1.855  17.759  0.00  0.00    +0.000 A 
ATOM     18  C   UNL     1       3.844   3.231  17.526  0.00  0.00    +0.000 A 
ATOM     19  C   UNL     1       3.548   3.847  18.734  0.00  0.00    +0.000 A 
BRANCH  15  21
ATOM     20  C   UNL     1       1.347   3.052  21.138  0.00  0.00    +0.000 C 
ATOM     21  C   UNL     1       2.851   2.846  20.991  0.00  0.00    +0.000 C 
ENDBRANCH  15  21
ENDBRANCH   1  19
TORSDOF 3
ENDMDL
