MODEL 1
REMARK VINA RESULT:      -8.9      0.000      0.000
REMARK  Name = 
REMARK  9 active torsions:
REMARK  status: ('A' for Active; 'I' for Inactive)
REMARK    1  A    between atoms: C_1  and  N_2
REMARK    2  A    between atoms: N_2  and  C_14
REMARK    3  A    between atoms: C_3  and  C_5
REMARK    4  A    between atoms: C_5  and  C_6
REMARK    5  A    between atoms: N_17  and  C_18
REMARK    6  A    between atoms: C_18  and  C_19
REMARK    7  A    between atoms: C_19  and  C_20
REMARK    8  A    between atoms: C_20  and  C_21
REMARK    9  A    between atoms: C_20  and  C_27
REMARK                            x       y       z     vdW  Elec       q    Type
REMARK                         _______ _______ _______ _____ _____    ______ ____
ROOT
ATOM      1  C   UNL     1      -0.301  11.069  19.536  0.00  0.00    +0.000 C 
ATOM      2  C   UNL     1      -0.737  10.188  18.351  0.00  0.00    +0.000 C 
ATOM      3  C   UNL     1       0.350   9.202  17.912  0.00  0.00    +0.000 C 
ATOM      4  N   UNL     1       1.683   9.799  17.740  0.00  0.00    +0.000 NA
ATOM      5  C   UNL     1       2.072  10.680  18.841  0.00  0.00    +0.000 C 
ATOM      6  C   UNL     1       1.014  11.732  19.080  0.00  0.00    +0.000 C 
ENDROOT
BRANCH   1   8
ATOM      7  C   UNL     1       0.014   8.947  20.948  0.00  0.00    +0.000 C 
ATOM      8  N   UNL     1      -0.215  10.390  20.870  0.00  0.00    +0.000 N 
ATOM      9  C   UNL     1      -0.339  11.040  22.102  0.00  0.00    +0.000 C 
ATOM     10  O   UNL     1      -0.069  10.475  23.166  0.00  0.00    +0.000 OA
BRANCH   9  11
ATOM     11  C   UNL     1      -0.801  12.484  22.116  0.00  0.00    +0.000 C 
BRANCH  11  12
ATOM     12  C   UNL     1      -2.281  12.643  22.309  0.00  0.00    +0.000 A 
ATOM     13  C   UNL     1      -3.126  12.902  21.217  0.00  0.00    +0.000 A 
ATOM     14  C   UNL     1      -4.498  13.005  21.413  0.00  0.00    +0.000 A 
ATOM     15  C   UNL     1      -5.022  12.858  22.693  0.00  0.00    +0.000 A 
ATOM     16  F   UNL     1      -6.349  12.947  22.872  0.00  0.00    +0.000 F 
ATOM     17  C   UNL     1      -4.190  12.620  23.778  0.00  0.00    +0.000 A 
ATOM     18  F   UNL     1      -4.698  12.480  25.008  0.00  0.00    +0.000 F 
ATOM     19  C   UNL     1      -2.820  12.516  23.592  0.00  0.00    +0.000 A 
ENDBRANCH  11  12
ENDBRANCH   9  11
ENDBRANCH   1   8
BRANCH   4  20
ATOM     20  C   UNL     1       2.730   8.774  17.610  0.00  0.00    +0.000 C 
BRANCH  20  21
ATOM     21  C   UNL     1       2.533   7.550  18.497  0.00  0.00    +0.000 C 
BRANCH  21  22
ATOM     22  C   UNL     1       2.848   6.201  17.806  0.00  0.00    +0.000 C 
BRANCH  22  23
ATOM     23  C   UNL     1       4.356   5.999  17.641  0.00  0.00    +0.000 A 
ATOM     24  C   UNL     1       4.975   6.016  16.382  0.00  0.00    +0.000 A 
ATOM     25  C   UNL     1       6.299   5.602  16.223  0.00  0.00    +0.000 A 
ATOM     26  C   UNL     1       7.035   5.177  17.323  0.00  0.00    +0.000 A 
ATOM     27  C   UNL     1       6.460   5.204  18.590  0.00  0.00    +0.000 A 
ATOM     28  C   UNL     1       5.133   5.616  18.750  0.00  0.00    +0.000 A 
ENDBRANCH  22  23
BRANCH  22  29
ATOM     29  C   UNL     1       2.096   5.095  18.544  0.00  0.00    +0.000 A 
ATOM     30  C   UNL     1       1.814   5.230  19.912  0.00  0.00    +0.000 A 
ATOM     31  C   UNL     1       1.239   4.175  20.629  0.00  0.00    +0.000 A 
ATOM     32  C   UNL     1       0.931   2.977  19.989  0.00  0.00    +0.000 A 
ATOM     33  C   UNL     1       1.207   2.825  18.635  0.00  0.00    +0.000 A 
ATOM     34  C   UNL     1       1.789   3.872  17.923  0.00  0.00    +0.000 A 
ENDBRANCH  22  29
ENDBRANCH  21  22
ENDBRANCH  20  21
ENDBRANCH   4  20
TORSDOF 8
ENDMDL
MODEL 2
REMARK VINA RESULT:      -8.8      1.034      3.493
REMARK  Name = 
REMARK  9 active torsions:
REMARK  status: ('A' for Active; 'I' for Inactive)
REMARK    1  A    between atoms: C_1  and  N_2
REMARK    2  A    between atoms: N_2  and  C_14
REMARK    3  A    between atoms: C_3  and  C_5
REMARK    4  A    between atoms: C_5  and  C_6
REMARK    5  A    between atoms: N_17  and  C_18
REMARK    6  A    between atoms: C_18  and  C_19
REMARK    7  A    between atoms: C_19  and  C_20
REMARK    8  A    between atoms: C_20  and  C_21
REMARK    9  A    between atoms: C_20  and  C_27
REMARK                            x       y       z     vdW  Elec       q    Type
REMARK                         _______ _______ _______ _____ _____    ______ ____
ROOT
ATOM      1  C   UNL     1      -0.684  10.483  20.613  0.00  0.00    +0.000 C 
ATOM      2  C   UNL     1      -0.043   9.172  21.101  0.00  0.00    +0.000 C 
ATOM      3  C   UNL     1       1.240   8.819  20.343  0.00  0.00    +0.000 C 
ATOM      4  N   UNL     1       1.129   8.907  18.879  0.00  0.00    +0.000 NA
ATOM      5  C   UNL     1       0.470  10.130  18.419  0.00  0.00    +0.000 C 
ATOM      6  C   UNL     1      -0.872  10.296  19.094  0.00  0.00    +0.000 C 
ENDROOT
BRANCH   1   8
ATOM      7  C   UNL     1       1.165  12.218  20.201  0.00  0.00    +0.000 C 
ATOM      8  N   UNL     1       0.026  11.749  20.991  0.00  0.00    +0.000 N 
ATOM      9  C   UNL     1      -0.316  12.558  22.079  0.00  0.00    +0.000 C 
ATOM     10  O   UNL     1       0.172  13.682  22.233  0.00  0.00    +0.000 OA
BRANCH   9  11
ATOM     11  C   UNL     1      -1.329  12.036  23.079  0.00  0.00    +0.000 C 
BRANCH  11  12
ATOM     12  C   UNL     1      -2.723  12.543  22.847  0.00  0.00    +0.000 A 
ATOM     13  C   UNL     1      -3.084  13.120  21.617  0.00  0.00    +0.000 A 
ATOM     14  C   UNL     1      -4.390  13.545  21.410  0.00  0.00    +0.000 A 
ATOM     15  C   UNL     1      -5.329  13.403  22.426  0.00  0.00    +0.000 A 
ATOM     16  F   UNL     1      -6.591  13.805  22.214  0.00  0.00    +0.000 F 
ATOM     17  C   UNL     1      -4.973  12.851  23.649  0.00  0.00    +0.000 A 
ATOM     18  F   UNL     1      -5.878  12.716  24.625  0.00  0.00    +0.000 F 
ATOM     19  C   UNL     1      -3.671  12.424  23.865  0.00  0.00    +0.000 A 
ENDBRANCH  11  12
ENDBRANCH   9  11
ENDBRANCH   1   8
BRANCH   4  20
ATOM     20  C   UNL     1       2.446   8.849  18.226  0.00  0.00    +0.000 C 
BRANCH  20  21
ATOM     21  C   UNL     1       2.768   7.513  17.566  0.00  0.00    +0.000 C 
BRANCH  21  22
ATOM     22  C   UNL     1       3.412   6.471  18.513  0.00  0.00    +0.000 C 
BRANCH  22  23
ATOM     23  C   UNL     1       2.406   5.392  18.919  0.00  0.00    +0.000 A 
ATOM     24  C   UNL     1       2.009   5.208  20.253  0.00  0.00    +0.000 A 
ATOM     25  C   UNL     1       1.279   4.084  20.641  0.00  0.00    +0.000 A 
ATOM     26  C   UNL     1       0.918   3.126  19.699  0.00  0.00    +0.000 A 
ATOM     27  C   UNL     1       1.253   3.313  18.362  0.00  0.00    +0.000 A 
ATOM     28  C   UNL     1       1.985   4.439  17.972  0.00  0.00    +0.000 A 
ENDBRANCH  22  23
BRANCH  22  29
ATOM     29  C   UNL     1       4.710   5.978  17.876  0.00  0.00    +0.000 A 
ATOM     30  C   UNL     1       4.914   6.126  16.495  0.00  0.00    +0.000 A 
ATOM     31  C   UNL     1       6.038   5.570  15.876  0.00  0.00    +0.000 A 
ATOM     32  C   UNL     1       6.976   4.865  16.628  0.00  0.00    +0.000 A 
ATOM     33  C   UNL     1       6.787   4.705  17.996  0.00  0.00    +0.000 A 
ATOM     34  C   UNL     1       5.661   5.251  18.610  0.00  0.00    +0.000 A 
ENDBRANCH  22  29
ENDBRANCH  21  22
ENDBRANCH  20  21
ENDBRANCH   4  20
TORSDOF 8
ENDMDL
MODEL 3
REMARK VINA RESULT:      -8.7      1.477      2.312
REMARK  Name = 
REMARK  9 active torsions:
REMARK  status: ('A' for Active; 'I' for Inactive)
REMARK    1  A    between atoms: C_1  and  N_2
REMARK    2  A    between atoms: N_2  and  C_14
REMARK    3  A    between atoms: C_3  and  C_5
REMARK    4  A    between atoms: C_5  and  C_6
REMARK    5  A    between atoms: N_17  and  C_18
REMARK    6  A    between atoms: C_18  and  C_19
REMARK    7  A    between atoms: C_19  and  C_20
REMARK    8  A    between atoms: C_20  and  C_21
REMARK    9  A    between atoms: C_20  and  C_27
REMARK                            x       y       z     vdW  Elec       q    Type
REMARK                         _______ _______ _______ _____ _____    ______ ____
ROOT
ATOM      1  C   UNL     1       0.229  11.574  19.493  0.00  0.00    +0.000 C 
ATOM      2  C   UNL     1       1.442  11.616  18.547  0.00  0.00    +0.000 C 
ATOM      3  C   UNL     1       1.774  10.248  17.944  0.00  0.00    +0.000 C 
ATOM      4  N   UNL     1       1.830   9.148  18.919  0.00  0.00    +0.000 NA
ATOM      5  C   UNL     1       0.703   9.142  19.853  0.00  0.00    +0.000 C 
ATOM      6  C   UNL     1       0.569  10.486  20.531  0.00  0.00    +0.000 C 
ENDROOT
BRANCH   1   8
ATOM      7  C   UNL     1      -1.277  10.475  17.727  0.00  0.00    +0.000 C 
ATOM      8  N   UNL     1      -1.112  11.404  18.845  0.00  0.00    +0.000 N 
ATOM      9  C   UNL     1      -2.272  12.085  19.227  0.00  0.00    +0.000 C 
ATOM     10  O   UNL     1      -3.384  11.771  18.793  0.00  0.00    +0.000 OA
BRANCH   9  11
ATOM     11  C   UNL     1      -2.149  13.227  20.217  0.00  0.00    +0.000 C 
BRANCH  11  12
ATOM     12  C   UNL     1      -2.788  12.945  21.546  0.00  0.00    +0.000 A 
ATOM     13  C   UNL     1      -2.155  12.117  22.489  0.00  0.00    +0.000 A 
ATOM     14  C   UNL     1      -2.746  11.902  23.728  0.00  0.00    +0.000 A 
ATOM     15  C   UNL     1      -3.966  12.504  24.021  0.00  0.00    +0.000 A 
ATOM     16  F   UNL     1      -4.524  12.301  25.225  0.00  0.00    +0.000 F 
ATOM     17  C   UNL     1      -4.604  13.308  23.087  0.00  0.00    +0.000 A 
ATOM     18  F   UNL     1      -5.777  13.884  23.372  0.00  0.00    +0.000 F 
ATOM     19  C   UNL     1      -4.022  13.527  21.847  0.00  0.00    +0.000 A 
ENDBRANCH  11  12
ENDBRANCH   9  11
ENDBRANCH   1   8
BRANCH   4  20
ATOM     20  C   UNL     1       1.857   7.833  18.260  0.00  0.00    +0.000 C 
BRANCH  20  21
ATOM     21  C   UNL     1       3.197   7.111  18.339  0.00  0.00    +0.000 C 
BRANCH  21  22
ATOM     22  C   UNL     1       3.184   5.673  17.766  0.00  0.00    +0.000 C 
BRANCH  22  23
ATOM     23  C   UNL     1       4.566   5.267  17.250  0.00  0.00    +0.000 A 
ATOM     24  C   UNL     1       5.695   6.081  17.428  0.00  0.00    +0.000 A 
ATOM     25  C   UNL     1       6.890   5.815  16.756  0.00  0.00    +0.000 A 
ATOM     26  C   UNL     1       6.983   4.720  15.904  0.00  0.00    +0.000 A 
ATOM     27  C   UNL     1       5.894   3.868  15.754  0.00  0.00    +0.000 A 
ATOM     28  C   UNL     1       4.696   4.134  16.425  0.00  0.00    +0.000 A 
ENDBRANCH  22  23
BRANCH  22  29
ATOM     29  C   UNL     1       2.552   4.746  18.804  0.00  0.00    +0.000 A 
ATOM     30  C   UNL     1       1.580   3.813  18.411  0.00  0.00    +0.000 A 
ATOM     31  C   UNL     1       0.902   3.046  19.364  0.00  0.00    +0.000 A 
ATOM     32  C   UNL     1       1.191   3.194  20.719  0.00  0.00    +0.000 A 
ATOM     33  C   UNL     1       2.148   4.117  21.125  0.00  0.00    +0.000 A 
ATOM     34  C   UNL     1       2.816   4.888  20.176  0.00  0.00    +0.000 A 
ENDBRANCH  22  29
ENDBRANCH  21  22
ENDBRANCH  20  21
ENDBRANCH   4  20
TORSDOF 8
ENDMDL
MODEL 4
REMARK VINA RESULT:      -8.6      1.386      3.805
REMARK  Name = 
REMARK  9 active torsions:
REMARK  status: ('A' for Active; 'I' for Inactive)
REMARK    1  A    between atoms: C_1  and  N_2
REMARK    2  A    between atoms: N_2  and  C_14
REMARK    3  A    between atoms: C_3  and  C_5
REMARK    4  A    between atoms: C_5  and  C_6
REMARK    5  A    between atoms: N_17  and  C_18
REMARK    6  A    between atoms: C_18  and  C_19
REMARK    7  A    between atoms: C_19  and  C_20
REMARK    8  A    between atoms: C_20  and  C_21
REMARK    9  A    between atoms: C_20  and  C_27
REMARK                            x       y       z     vdW  Elec       q    Type
REMARK                         _______ _______ _______ _____ _____    ______ ____
ROOT
ATOM      1  C   UNL     1       0.138  11.721  19.380  0.00  0.00    +0.000 C 
ATOM      2  C   UNL     1       1.361  11.459  18.484  0.00  0.00    +0.000 C 
ATOM      3  C   UNL     1       1.671   9.968  18.320  0.00  0.00    +0.000 C 
ATOM      4  N   UNL     1       1.693   9.208  19.580  0.00  0.00    +0.000 NA
ATOM      5  C   UNL     1       0.558   9.500  20.455  0.00  0.00    +0.000 C 
ATOM      6  C   UNL     1       0.444  10.986  20.700  0.00  0.00    +0.000 C 
ENDROOT
BRANCH   1   8
ATOM      7  C   UNL     1      -1.305  10.403  17.714  0.00  0.00    +0.000 C 
ATOM      8  N   UNL     1      -1.199  11.389  18.790  0.00  0.00    +0.000 N 
ATOM      9  C   UNL     1      -2.411  11.961  19.193  0.00  0.00    +0.000 C 
ATOM     10  O   UNL     1      -3.499  11.516  18.813  0.00  0.00    +0.000 OA
BRANCH   9  11
ATOM     11  C   UNL     1      -2.373  13.147  20.136  0.00  0.00    +0.000 C 
BRANCH  11  12
ATOM     12  C   UNL     1      -3.012  12.880  21.467  0.00  0.00    +0.000 A 
ATOM     13  C   UNL     1      -2.283  12.282  22.509  0.00  0.00    +0.000 A 
ATOM     14  C   UNL     1      -2.883  12.081  23.746  0.00  0.00    +0.000 A 
ATOM     15  C   UNL     1      -4.205  12.467  23.940  0.00  0.00    +0.000 A 
ATOM     16  F   UNL     1      -4.773  12.281  25.142  0.00  0.00    +0.000 F 
ATOM     17  C   UNL     1      -4.936  13.042  22.909  0.00  0.00    +0.000 A 
ATOM     18  F   UNL     1      -6.206  13.411  23.099  0.00  0.00    +0.000 F 
ATOM     19  C   UNL     1      -4.345  13.246  21.671  0.00  0.00    +0.000 A 
ENDBRANCH  11  12
ENDBRANCH   9  11
ENDBRANCH   1   8
BRANCH   4  20
ATOM     20  C   UNL     1       1.700   7.756  19.343  0.00  0.00    +0.000 C 
BRANCH  20  21
ATOM     21  C   UNL     1       2.865   7.256  18.496  0.00  0.00    +0.000 C 
BRANCH  21  22
ATOM     22  C   UNL     1       3.540   5.970  19.032  0.00  0.00    +0.000 C 
BRANCH  22  23
ATOM     23  C   UNL     1       2.512   4.867  19.292  0.00  0.00    +0.000 A 
ATOM     24  C   UNL     1       2.207   4.424  20.588  0.00  0.00    +0.000 A 
ATOM     25  C   UNL     1       1.449   3.270  20.797  0.00  0.00    +0.000 A 
ATOM     26  C   UNL     1       0.969   2.544  19.712  0.00  0.00    +0.000 A 
ATOM     27  C   UNL     1       1.211   2.995  18.418  0.00  0.00    +0.000 A 
ATOM     28  C   UNL     1       1.971   4.150  18.208  0.00  0.00    +0.000 A 
ENDBRANCH  22  23
BRANCH  22  29
ATOM     29  C   UNL     1       4.696   5.609  18.101  0.00  0.00    +0.000 A 
ATOM     30  C   UNL     1       5.813   4.923  18.603  0.00  0.00    +0.000 A 
ATOM     31  C   UNL     1       6.933   4.696  17.796  0.00  0.00    +0.000 A 
ATOM     32  C   UNL     1       6.949   5.144  16.477  0.00  0.00    +0.000 A 
ATOM     33  C   UNL     1       5.853   5.830  15.965  0.00  0.00    +0.000 A 
ATOM     34  C   UNL     1       4.742   6.064  16.773  0.00  0.00    +0.000 A 
ENDBRANCH  22  29
ENDBRANCH  21  22
ENDBRANCH  20  21
ENDBRANCH   4  20
TORSDOF 8
ENDMDL
MODEL 5
REMARK VINA RESULT:      -8.5      1.527      3.714
REMARK  Name = 
REMARK  9 active torsions:
REMARK  status: ('A' for Active; 'I' for Inactive)
REMARK    1  A    between atoms: C_1  and  N_2
REMARK    2  A    between atoms: N_2  and  C_14
REMARK    3  A    between atoms: C_3  and  C_5
REMARK    4  A    between atoms: C_5  and  C_6
REMARK    5  A    between atoms: N_17  and  C_18
REMARK    6  A    between atoms: C_18  and  C_19
REMARK    7  A    between atoms: C_19  and  C_20
REMARK    8  A    between atoms: C_20  and  C_21
REMARK    9  A    between atoms: C_20  and  C_27
REMARK                            x       y       z     vdW  Elec       q    Type
REMARK                         _______ _______ _______ _____ _____    ______ ____
ROOT
ATOM      1  C   UNL     1       0.329  11.499  19.217  0.00  0.00    +0.000 C 
ATOM      2  C   UNL     1       1.536  11.159  18.325  0.00  0.00    +0.000 C 
ATOM      3  C   UNL     1       1.815   9.654  18.250  0.00  0.00    +0.000 C 
ATOM      4  N   UNL     1       1.838   8.972  19.553  0.00  0.00    +0.000 NA
ATOM      5  C   UNL     1       0.719   9.339  20.421  0.00  0.00    +0.000 C 
ATOM      6  C   UNL     1       0.637  10.840  20.576  0.00  0.00    +0.000 C 
ENDROOT
BRANCH   1   8
ATOM      7  C   UNL     1      -1.154  10.140  17.620  0.00  0.00    +0.000 C 
ATOM      8  N   UNL     1      -1.022  11.158  18.663  0.00  0.00    +0.000 N 
ATOM      9  C   UNL     1      -2.221  11.751  19.070  0.00  0.00    +0.000 C 
ATOM     10  O   UNL     1      -3.319  11.303  18.725  0.00  0.00    +0.000 OA
BRANCH   9  11
ATOM     11  C   UNL     1      -2.158  12.966  19.974  0.00  0.00    +0.000 C 
BRANCH  11  12
ATOM     12  C   UNL     1      -2.775  12.746  21.325  0.00  0.00    +0.000 A 
ATOM     13  C   UNL     1      -2.049  12.125  22.356  0.00  0.00    +0.000 A 
ATOM     14  C   UNL     1      -2.626  11.968  23.610  0.00  0.00    +0.000 A 
ATOM     15  C   UNL     1      -3.923  12.420  23.832  0.00  0.00    +0.000 A 
ATOM     16  F   UNL     1      -4.468  12.276  25.049  0.00  0.00    +0.000 F 
ATOM     17  C   UNL     1      -4.651  13.017  22.812  0.00  0.00    +0.000 A 
ATOM     18  F   UNL     1      -5.898  13.450  23.029  0.00  0.00    +0.000 F 
ATOM     19  C   UNL     1      -4.083  13.178  21.557  0.00  0.00    +0.000 A 
ENDBRANCH  11  12
ENDBRANCH   9  11
ENDBRANCH   1   8
BRANCH   4  20
ATOM     20  C   UNL     1       1.814   7.509  19.405  0.00  0.00    +0.000 C 
BRANCH  20  21
ATOM     21  C   UNL     1       2.650   6.974  18.248  0.00  0.00    +0.000 C 
BRANCH  21  22
ATOM     22  C   UNL     1       3.564   5.780  18.618  0.00  0.00    +0.000 C 
BRANCH  22  23
ATOM     23  C   UNL     1       2.756   4.621  19.207  0.00  0.00    +0.000 A 
ATOM     24  C   UNL     1       1.713   4.006  18.498  0.00  0.00    +0.000 A 
ATOM     25  C   UNL     1       0.839   3.117  19.127  0.00  0.00    +0.000 A 
ATOM     26  C   UNL     1       1.000   2.815  20.475  0.00  0.00    +0.000 A 
ATOM     27  C   UNL     1       2.060   3.371  21.184  0.00  0.00    +0.000 A 
ATOM     28  C   UNL     1       2.935   4.262  20.556  0.00  0.00    +0.000 A 
ENDBRANCH  22  23
BRANCH  22  29
ATOM     29  C   UNL     1       4.436   5.448  17.408  0.00  0.00    +0.000 A 
ATOM     30  C   UNL     1       4.722   6.440  16.456  0.00  0.00    +0.000 A 
ATOM     31  C   UNL     1       5.412   6.123  15.282  0.00  0.00    +0.000 A 
ATOM     32  C   UNL     1       5.831   4.815  15.045  0.00  0.00    +0.000 A 
ATOM     33  C   UNL     1       5.552   3.820  15.975  0.00  0.00    +0.000 A 
ATOM     34  C   UNL     1       4.856   4.134  17.141  0.00  0.00    +0.000 A 
ENDBRANCH  22  29
ENDBRANCH  21  22
ENDBRANCH  20  21
ENDBRANCH   4  20
TORSDOF 8
ENDMDL
MODEL 6
REMARK VINA RESULT:      -8.5      1.025      3.473
REMARK  Name = 
REMARK  9 active torsions:
REMARK  status: ('A' for Active; 'I' for Inactive)
REMARK    1  A    between atoms: C_1  and  N_2
REMARK    2  A    between atoms: N_2  and  C_14
REMARK    3  A    between atoms: C_3  and  C_5
REMARK    4  A    between atoms: C_5  and  C_6
REMARK    5  A    between atoms: N_17  and  C_18
REMARK    6  A    between atoms: C_18  and  C_19
REMARK    7  A    between atoms: C_19  and  C_20
REMARK    8  A    between atoms: C_20  and  C_21
REMARK    9  A    between atoms: C_20  and  C_27
REMARK                            x       y       z     vdW  Elec       q    Type
REMARK                         _______ _______ _______ _____ _____    ______ ____
ROOT
ATOM      1  C   UNL     1      -0.704  10.555  19.865  0.00  0.00    +0.000 C 
ATOM      2  C   UNL     1      -0.126   9.365  20.651  0.00  0.00    +0.000 C 
ATOM      3  C   UNL     1       1.237   8.908  20.122  0.00  0.00    +0.000 C 
ATOM      4  N   UNL     1       1.297   8.731  18.663  0.00  0.00    +0.000 NA
ATOM      5  C   UNL     1       0.697   9.839  17.918  0.00  0.00    +0.000 C 
ATOM      6  C   UNL     1      -0.714  10.096  18.394  0.00  0.00    +0.000 C 
ENDROOT
BRANCH   1   8
ATOM      7  C   UNL     1       0.821  12.457  19.056  0.00  0.00    +0.000 C 
ATOM      8  N   UNL     1      -0.041  11.882  20.089  0.00  0.00    +0.000 N 
ATOM      9  C   UNL     1      -0.178  12.653  21.247  0.00  0.00    +0.000 C 
ATOM     10  O   UNL     1       0.228  13.818  21.305  0.00  0.00    +0.000 OA
BRANCH   9  11
ATOM     11  C   UNL     1      -0.862  12.037  22.451  0.00  0.00    +0.000 C 
BRANCH  11  12
ATOM     12  C   UNL     1      -2.313  12.400  22.572  0.00  0.00    +0.000 A 
ATOM     13  C   UNL     1      -3.007  12.965  21.489  0.00  0.00    +0.000 A 
ATOM     14  C   UNL     1      -4.360  13.255  21.610  0.00  0.00    +0.000 A 
ATOM     15  C   UNL     1      -5.016  12.990  22.808  0.00  0.00    +0.000 A 
ATOM     16  F   UNL     1      -6.326  13.262  22.913  0.00  0.00    +0.000 F 
ATOM     17  C   UNL     1      -4.331  12.450  23.888  0.00  0.00    +0.000 A 
ATOM     18  F   UNL     1      -4.964  12.197  25.038  0.00  0.00    +0.000 F 
ATOM     19  C   UNL     1      -2.980  12.157  23.776  0.00  0.00    +0.000 A 
ENDBRANCH  11  12
ENDBRANCH   9  11
ENDBRANCH   1   8
BRANCH   4  20
ATOM     20  C   UNL     1       2.681   8.583  18.186  0.00  0.00    +0.000 C 
BRANCH  20  21
ATOM     21  C   UNL     1       2.976   7.258  17.494  0.00  0.00    +0.000 C 
BRANCH  21  22
ATOM     22  C   UNL     1       3.762   6.245  18.361  0.00  0.00    +0.000 C 
BRANCH  22  23
ATOM     23  C   UNL     1       2.847   5.143  18.899  0.00  0.00    +0.000 A 
ATOM     24  C   UNL     1       2.350   4.120  18.076  0.00  0.00    +0.000 A 
ATOM     25  C   UNL     1       1.340   3.264  18.518  0.00  0.00    +0.000 A 
ATOM     26  C   UNL     1       0.815   3.406  19.798  0.00  0.00    +0.000 A 
ATOM     27  C   UNL     1       1.329   4.377  20.651  0.00  0.00    +0.000 A 
ATOM     28  C   UNL     1       2.341   5.236  20.209  0.00  0.00    +0.000 A 
ENDBRANCH  22  23
BRANCH  22  29
ATOM     29  C   UNL     1       4.984   5.780  17.569  0.00  0.00    +0.000 A 
ATOM     30  C   UNL     1       4.995   5.885  16.170  0.00  0.00    +0.000 A 
ATOM     31  C   UNL     1       6.049   5.351  15.423  0.00  0.00    +0.000 A 
ATOM     32  C   UNL     1       7.110   4.712  16.063  0.00  0.00    +0.000 A 
ATOM     33  C   UNL     1       7.113   4.596  17.448  0.00  0.00    +0.000 A 
ATOM     34  C   UNL     1       6.057   5.120  18.191  0.00  0.00    +0.000 A 
ENDBRANCH  22  29
ENDBRANCH  21  22
ENDBRANCH  20  21
ENDBRANCH   4  20
TORSDOF 8
ENDMDL
MODEL 7
REMARK VINA RESULT:      -8.5      1.337      3.642
REMARK  Name = 
REMARK  9 active torsions:
REMARK  status: ('A' for Active; 'I' for Inactive)
REMARK    1  A    between atoms: C_1  and  N_2
REMARK    2  A    between atoms: N_2  and  C_14
REMARK    3  A    between atoms: C_3  and  C_5
REMARK    4  A    between atoms: C_5  and  C_6
REMARK    5  A    between atoms: N_17  and  C_18
REMARK    6  A    between atoms: C_18  and  C_19
REMARK    7  A    between atoms: C_19  and  C_20
REMARK    8  A    between atoms: C_20  and  C_21
REMARK    9  A    between atoms: C_20  and  C_27
REMARK                            x       y       z     vdW  Elec       q    Type
REMARK                         _______ _______ _______ _____ _____    ______ ____
ROOT
ATOM      1  C   UNL     1      -0.869  10.526  20.149  0.00  0.00    +0.000 C 
ATOM      2  C   UNL     1      -0.101   9.394  20.855  0.00  0.00    +0.000 C 
ATOM      3  C   UNL     1       1.242   9.082  20.188  0.00  0.00    +0.000 C 
ATOM      4  N   UNL     1       1.177   8.923  18.727  0.00  0.00    +0.000 NA
ATOM      5  C   UNL     1       0.399   9.970  18.064  0.00  0.00    +0.000 C 
ATOM      6  C   UNL     1      -0.977  10.079  18.678  0.00  0.00    +0.000 C 
ENDROOT
BRANCH   1   8
ATOM      7  C   UNL     1       1.036  12.106  20.832  0.00  0.00    +0.000 C 
ATOM      8  N   UNL     1      -0.324  11.910  20.331  0.00  0.00    +0.000 N 
ATOM      9  C   UNL     1      -1.030  13.086  20.053  0.00  0.00    +0.000 C 
ATOM     10  O   UNL     1      -0.476  14.189  20.035  0.00  0.00    +0.000 OA
BRANCH   9  11
ATOM     11  C   UNL     1      -2.512  12.986  19.750  0.00  0.00    +0.000 C 
BRANCH  11  12
ATOM     12  C   UNL     1      -3.382  13.015  20.973  0.00  0.00    +0.000 A 
ATOM     13  C   UNL     1      -4.767  12.797  20.877  0.00  0.00    +0.000 A 
ATOM     14  C   UNL     1      -5.547  12.789  22.027  0.00  0.00    +0.000 A 
ATOM     15  C   UNL     1      -4.950  13.005  23.264  0.00  0.00    +0.000 A 
ATOM     16  F   UNL     1      -5.708  12.984  24.371  0.00  0.00    +0.000 F 
ATOM     17  C   UNL     1      -3.585  13.240  23.363  0.00  0.00    +0.000 A 
ATOM     18  F   UNL     1      -3.014  13.449  24.554  0.00  0.00    +0.000 F 
ATOM     19  C   UNL     1      -2.799  13.250  22.220  0.00  0.00    +0.000 A 
ENDBRANCH  11  12
ENDBRANCH   9  11
ENDBRANCH   1   8
BRANCH   4  20
ATOM     20  C   UNL     1       2.515   8.920  18.116  0.00  0.00    +0.000 C 
BRANCH  20  21
ATOM     21  C   UNL     1       2.904   7.607  17.447  0.00  0.00    +0.000 C 
BRANCH  21  22
ATOM     22  C   UNL     1       3.520   6.558  18.405  0.00  0.00    +0.000 C 
BRANCH  22  23
ATOM     23  C   UNL     1       2.477   5.530  18.848  0.00  0.00    +0.000 A 
ATOM     24  C   UNL     1       2.045   5.435  20.180  0.00  0.00    +0.000 A 
ATOM     25  C   UNL     1       1.278   4.353  20.614  0.00  0.00    +0.000 A 
ATOM     26  C   UNL     1       0.915   3.350  19.722  0.00  0.00    +0.000 A 
ATOM     27  C   UNL     1       1.286   3.450  18.384  0.00  0.00    +0.000 A 
ATOM     28  C   UNL     1       2.055   4.533  17.948  0.00  0.00    +0.000 A 
ENDBRANCH  22  23
BRANCH  22  29
ATOM     29  C   UNL     1       4.787   6.000  17.759  0.00  0.00    +0.000 A 
ATOM     30  C   UNL     1       4.938   6.038  16.364  0.00  0.00    +0.000 A 
ATOM     31  C   UNL     1       6.031   5.420  15.748  0.00  0.00    +0.000 A 
ATOM     32  C   UNL     1       6.991   4.764  16.516  0.00  0.00    +0.000 A 
ATOM     33  C   UNL     1       6.854   4.714  17.899  0.00  0.00    +0.000 A 
ATOM     34  C   UNL     1       5.759   5.321  18.511  0.00  0.00    +0.000 A 
ENDBRANCH  22  29
ENDBRANCH  21  22
ENDBRANCH  20  21
ENDBRANCH   4  20
TORSDOF 8
ENDMDL
MODEL 8
REMARK VINA RESULT:      -8.5      1.160      1.965
REMARK  Name = 
REMARK  9 active torsions:
REMARK  status: ('A' for Active; 'I' for Inactive)
REMARK    1  A    between atoms: C_1  and  N_2
REMARK    2  A    between atoms: N_2  and  C_14
REMARK    3  A    between atoms: C_3  and  C_5
REMARK    4  A    between atoms: C_5  and  C_6
REMARK    5  A    between atoms: N_17  and  C_18
REMARK    6  A    between atoms: C_18  and  C_19
REMARK    7  A    between atoms: C_19  and  C_20
REMARK    8  A    between atoms: C_20  and  C_21
REMARK    9  A    between atoms: C_20  and  C_27
REMARK                            x       y       z     vdW  Elec       q    Type
REMARK                         _______ _______ _______ _____ _____    ______ ____
ROOT
ATOM      1  C   UNL     1      -0.504  10.278  20.202  0.00  0.00    +0.000 C 
ATOM      2  C   UNL     1       0.055   8.962  20.772  0.00  0.00    +0.000 C 
ATOM      3  C   UNL     1       1.350   8.518  20.083  0.00  0.00    +0.000 C 
ATOM      4  N   UNL     1       1.299   8.546  18.613  0.00  0.00    +0.000 NA
ATOM      5  C   UNL     1       0.716   9.775  18.075  0.00  0.00    +0.000 C 
ATOM      6  C   UNL     1      -0.641  10.032  18.686  0.00  0.00    +0.000 C 
ENDROOT
BRANCH   1   8
ATOM      7  C   UNL     1       1.324  12.007  19.685  0.00  0.00    +0.000 C 
ATOM      8  N   UNL     1       0.249  11.526  20.554  0.00  0.00    +0.000 N 
ATOM      9  C   UNL     1       0.008  12.307  21.689  0.00  0.00    +0.000 C 
ATOM     10  O   UNL     1       0.519  13.421  21.833  0.00  0.00    +0.000 OA
BRANCH   9  11
ATOM     11  C   UNL     1      -0.924  11.766  22.755  0.00  0.00    +0.000 C 
BRANCH  11  12
ATOM     12  C   UNL     1      -2.333  12.271  22.638  0.00  0.00    +0.000 A 
ATOM     13  C   UNL     1      -3.170  12.340  23.765  0.00  0.00    +0.000 A 
ATOM     14  C   UNL     1      -4.457  12.848  23.641  0.00  0.00    +0.000 A 
ATOM     15  C   UNL     1      -4.909  13.278  22.398  0.00  0.00    +0.000 A 
ATOM     16  F   UNL     1      -6.149  13.779  22.289  0.00  0.00    +0.000 F 
ATOM     17  C   UNL     1      -4.094  13.195  21.278  0.00  0.00    +0.000 A 
ATOM     18  F   UNL     1      -4.533  13.608  20.084  0.00  0.00    +0.000 F 
ATOM     19  C   UNL     1      -2.808  12.688  21.392  0.00  0.00    +0.000 A 
ENDBRANCH  11  12
ENDBRANCH   9  11
ENDBRANCH   1   8
BRANCH   4  20
ATOM     20  C   UNL     1       2.636   8.400  18.017  0.00  0.00    +0.000 C 
BRANCH  20  21
ATOM     21  C   UNL     1       3.458   7.244  18.577  0.00  0.00    +0.000 C 
BRANCH  21  22
ATOM     22  C   UNL     1       3.315   5.918  17.791  0.00  0.00    +0.000 C 
BRANCH  22  23
ATOM     23  C   UNL     1       4.683   5.334  17.431  0.00  0.00    +0.000 A 
ATOM     24  C   UNL     1       5.867   5.785  18.036  0.00  0.00    +0.000 A 
ATOM     25  C   UNL     1       7.118   5.416  17.538  0.00  0.00    +0.000 A 
ATOM     26  C   UNL     1       7.210   4.576  16.434  0.00  0.00    +0.000 A 
ATOM     27  C   UNL     1       6.051   4.072  15.852  0.00  0.00    +0.000 A 
ATOM     28  C   UNL     1       4.797   4.442  16.348  0.00  0.00    +0.000 A 
ENDBRANCH  22  23
BRANCH  22  29
ATOM     29  C   UNL     1       2.372   4.999  18.565  0.00  0.00    +0.000 A 
ATOM     30  C   UNL     1       2.302   5.082  19.964  0.00  0.00    +0.000 A 
ATOM     31  C   UNL     1       1.540   4.166  20.697  0.00  0.00    +0.000 A 
ATOM     32  C   UNL     1       0.832   3.160  20.042  0.00  0.00    +0.000 A 
ATOM     33  C   UNL     1       0.893   3.061  18.656  0.00  0.00    +0.000 A 
ATOM     34  C   UNL     1       1.661   3.968  17.928  0.00  0.00    +0.000 A 
ENDBRANCH  22  29
ENDBRANCH  21  22
ENDBRANCH  20  21
ENDBRANCH   4  20
TORSDOF 8
ENDMDL
MODEL 9
REMARK VINA RESULT:      -8.4      1.262      3.686
REMARK  Name = 
REMARK  9 active torsions:
REMARK  status: ('A' for Active; 'I' for Inactive)
REMARK    1  A    between atoms: C_1  and  N_2
REMARK    2  A    between atoms: N_2  and  C_14
REMARK    3  A    between atoms: C_3  and  C_5
REMARK    4  A    between atoms: C_5  and  C_6
REMARK    5  A    between atoms: N_17  and  C_18
REMARK    6  A    between atoms: C_18  and  C_19
REMARK    7  A    between atoms: C_19  and  C_20
REMARK    8  A    between atoms: C_20  and  C_21
REMARK    9  A    between atoms: C_20  and  C_27
REMARK                            x       y       z     vdW  Elec       q    Type
REMARK                         _______ _______ _______ _____ _____    ______ ____
ROOT
ATOM      1  C   UNL     1      -0.631  10.364  20.742  0.00  0.00    +0.000 C 
ATOM      2  C   UNL     1       0.088   9.073  21.170  0.00  0.00    +0.000 C 
ATOM      3  C   UNL     1       1.333   8.778  20.328  0.00  0.00    +0.000 C 
ATOM      4  N   UNL     1       1.125   8.879  18.875  0.00  0.00    +0.000 NA
ATOM      5  C   UNL     1       0.393  10.081  18.475  0.00  0.00    +0.000 C 
ATOM      6  C   UNL     1      -0.908  10.188  19.236  0.00  0.00    +0.000 C 
ENDROOT
BRANCH   1   8
ATOM      7  C   UNL     1       1.246  12.075  20.357  0.00  0.00    +0.000 C 
ATOM      8  N   UNL     1       0.054  11.651  21.092  0.00  0.00    +0.000 N 
ATOM      9  C   UNL     1      -0.361  12.523  22.104  0.00  0.00    +0.000 C 
ATOM     10  O   UNL     1       0.117  13.655  22.225  0.00  0.00    +0.000 OA
BRANCH   9  11
ATOM     11  C   UNL     1      -1.442  12.059  23.061  0.00  0.00    +0.000 C 
BRANCH  11  12
ATOM     12  C   UNL     1      -2.770  12.722  22.838  0.00  0.00    +0.000 A 
ATOM     13  C   UNL     1      -3.483  13.287  23.909  0.00  0.00    +0.000 A 
ATOM     14  C   UNL     1      -4.691  13.930  23.673  0.00  0.00    +0.000 A 
ATOM     15  C   UNL     1      -5.190  14.002  22.377  0.00  0.00    +0.000 A 
ATOM     16  F   UNL     1      -6.352  14.636  22.155  0.00  0.00    +0.000 F 
ATOM     17  C   UNL     1      -4.500  13.429  21.317  0.00  0.00    +0.000 A 
ATOM     18  F   UNL     1      -4.983  13.500  20.072  0.00  0.00    +0.000 F 
ATOM     19  C   UNL     1      -3.293  12.785  21.543  0.00  0.00    +0.000 A 
ENDBRANCH  11  12
ENDBRANCH   9  11
ENDBRANCH   1   8
BRANCH   4  20
ATOM     20  C   UNL     1       2.399   8.879  18.138  0.00  0.00    +0.000 C 
BRANCH  20  21
ATOM     21  C   UNL     1       2.757   7.548  17.489  0.00  0.00    +0.000 C 
BRANCH  21  22
ATOM     22  C   UNL     1       3.407   6.521  18.448  0.00  0.00    +0.000 C 
BRANCH  22  23
ATOM     23  C   UNL     1       2.399   5.459  18.893  0.00  0.00    +0.000 A 
ATOM     24  C   UNL     1       2.042   5.290  20.240  0.00  0.00    +0.000 A 
ATOM     25  C   UNL     1       1.309   4.178  20.659  0.00  0.00    +0.000 A 
ATOM     26  C   UNL     1       0.907   3.219  19.736  0.00  0.00    +0.000 A 
ATOM     27  C   UNL     1       1.202   3.393  18.387  0.00  0.00    +0.000 A 
ATOM     28  C   UNL     1       1.937   4.506  17.967  0.00  0.00    +0.000 A 
ENDBRANCH  22  23
BRANCH  22  29
ATOM     29  C   UNL     1       4.692   6.005  17.803  0.00  0.00    +0.000 A 
ATOM     30  C   UNL     1       5.748   5.550  18.608  0.00  0.00    +0.000 A 
ATOM     31  C   UNL     1       6.975   5.193  18.040  0.00  0.00    +0.000 A 
ATOM     32  C   UNL     1       7.161   5.277  16.661  0.00  0.00    +0.000 A 
ATOM     33  C   UNL     1       6.126   5.729  15.850  0.00  0.00    +0.000 A 
ATOM     34  C   UNL     1       4.907   6.095  16.417  0.00  0.00    +0.000 A 
ENDBRANCH  22  29
ENDBRANCH  21  22
ENDBRANCH  20  21
ENDBRANCH   4  20
TORSDOF 8
ENDMDL
