MODEL 1
REMARK VINA RESULT:      -8.5      0.000      0.000
REMARK  Name = 
REMARK  9 active torsions:
REMARK  status: ('A' for Active; 'I' for Inactive)
REMARK    1  A    between atoms: C_1  and  C_2
REMARK    2  A    between atoms: C_2  and  N_3
REMARK    3  A    between atoms: N_3  and  C_4
REMARK    4  A    between atoms: N_3  and  C_11
REMARK    5  A    between atoms: C_4  and  C_5
REMARK    6  A    between atoms: C_15  and  C_16
REMARK    7  A    between atoms: C_24  and  O_25
REMARK    8  A    between atoms: O_25  and  S_26
REMARK    9  A    between atoms: S_26  and  N_27
REMARK                            x       y       z     vdW  Elec       q    Type
REMARK                         _______ _______ _______ _____ _____    ______ ____
ROOT
ATOM      1  C   UNL     1       1.037   9.913  20.378  0.00  0.00    +0.000 C 
ATOM      2  O   UNL     1       1.429  10.296  21.485  0.00  0.00    +0.000 OA
ATOM      3  N   UNL     1       1.301   8.608  19.946  0.00  0.00    +0.000 N 
ATOM      4  C   UNL     1       1.589   7.666  21.032  0.00  0.00    +0.000 C 
ATOM      5  C   UNL     1       1.340   6.237  20.568  0.00  0.00    +0.000 C 
ATOM      6  C   UNL     1       2.444   5.977  19.581  0.00  0.00    +0.000 A 
ATOM      7  C   UNL     1       3.311   4.905  19.788  0.00  0.00    +0.000 A 
ATOM      8  C   UNL     1       4.525   4.892  19.123  0.00  0.00    +0.000 A 
ATOM      9  C   UNL     1       4.848   5.907  18.218  0.00  0.00    +0.000 A 
ATOM     10  C   UNL     1       3.929   6.928  17.916  0.00  0.00    +0.000 A 
ATOM     11  C   UNL     1       2.721   6.996  18.634  0.00  0.00    +0.000 A 
ATOM     12  C   UNL     1       1.747   8.194  18.584  0.00  0.00    +0.000 C 
ENDROOT
BRANCH   1  17
ATOM     13  C   UNL     1      -1.867  10.963  18.126  0.00  0.00    +0.000 A 
ATOM     14  C   UNL     1      -1.527  12.313  17.938  0.00  0.00    +0.000 A 
ATOM     15  C   UNL     1      -0.395  12.895  18.529  0.00  0.00    +0.000 A 
ATOM     16  C   UNL     1       0.433  12.155  19.370  0.00  0.00    +0.000 A 
ATOM     17  C   UNL     1       0.115  10.829  19.639  0.00  0.00    +0.000 A 
ATOM     18  C   UNL     1      -1.015  10.251  19.000  0.00  0.00    +0.000 A 
BRANCH  13  19
ATOM     19  N   UNL     1      -2.950  10.370  17.471  0.00  0.00    +0.000 N 
BRANCH  19  21
ATOM     20  C   UNL     1      -3.167  10.728  15.023  0.00  0.00    +0.000 C 
ATOM     21  C   UNL     1      -2.814   9.754  16.137  0.00  0.00    +0.000 C 
ENDBRANCH  19  21
BRANCH  19  22
ATOM     22  C   UNL     1      -4.278  10.241  18.094  0.00  0.00    +0.000 C 
BRANCH  22  23
ATOM     23  C   UNL     1      -5.022  11.552  18.267  0.00  0.00    +0.000 A 
ATOM     24  C   UNL     1      -5.049  12.268  19.467  0.00  0.00    +0.000 A 
ATOM     25  C   UNL     1      -5.756  13.461  19.528  0.00  0.00    +0.000 A 
ATOM     26  N   UNL     1      -6.450  13.981  18.494  0.00  0.00    +0.000 NA
ATOM     27  C   UNL     1      -6.429  13.275  17.346  0.00  0.00    +0.000 A 
ATOM     28  C   UNL     1      -5.753  12.072  17.188  0.00  0.00    +0.000 A 
ENDBRANCH  22  23
ENDBRANCH  19  22
ENDBRANCH  13  19
ENDBRANCH   1  17
BRANCH   9  29
ATOM     29  O   UNL     1       6.182   5.923  17.908  0.00  0.00    +0.000 OA
BRANCH  29  30
ATOM     30  S   UNL     1       6.883   5.058  16.734  0.00  0.00    +0.000 S 
ATOM     31  O   UNL     1       5.956   4.060  16.255  0.00  0.00    +0.000 OA
ATOM     32  O   UNL     1       7.621   5.916  15.840  0.00  0.00    +0.000 OA
BRANCH  30  33
ATOM     33  N   UNL     1       8.039   4.193  17.594  0.00  0.00    +0.000 NA
ATOM     34  H   UNL     1       8.888   4.750  17.685  0.00  0.00    +0.000 HD
ATOM     35  H   UNL     1       7.654   3.898  18.489  0.00  0.00    +0.000 HD
ENDBRANCH  30  33
ENDBRANCH  29  30
ENDBRANCH   9  29
TORSDOF 8
ENDMDL
MODEL 2
REMARK VINA RESULT:      -8.3      1.026      1.127
REMARK  Name = 
REMARK  9 active torsions:
REMARK  status: ('A' for Active; 'I' for Inactive)
REMARK    1  A    between atoms: C_1  and  C_2
REMARK    2  A    between atoms: C_2  and  N_3
REMARK    3  A    between atoms: N_3  and  C_4
REMARK    4  A    between atoms: N_3  and  C_11
REMARK    5  A    between atoms: C_4  and  C_5
REMARK    6  A    between atoms: C_15  and  C_16
REMARK    7  A    between atoms: C_24  and  O_25
REMARK    8  A    between atoms: O_25  and  S_26
REMARK    9  A    between atoms: S_26  and  N_27
REMARK                            x       y       z     vdW  Elec       q    Type
REMARK                         _______ _______ _______ _____ _____    ______ ____
ROOT
ATOM      1  C   UNL     1       1.098   9.783  20.834  0.00  0.00    +0.000 C 
ATOM      2  O   UNL     1       1.439   9.974  22.005  0.00  0.00    +0.000 OA
ATOM      3  N   UNL     1       1.300   8.535  20.232  0.00  0.00    +0.000 N 
ATOM      4  C   UNL     1       1.448   7.430  21.184  0.00  0.00    +0.000 C 
ATOM      5  C   UNL     1       1.132   6.104  20.503  0.00  0.00    +0.000 C 
ATOM      6  C   UNL     1       2.281   5.901  19.554  0.00  0.00    +0.000 A 
ATOM      7  C   UNL     1       3.056   4.746  19.651  0.00  0.00    +0.000 A 
ATOM      8  C   UNL     1       4.309   4.733  19.063  0.00  0.00    +0.000 A 
ATOM      9  C   UNL     1       4.762   5.837  18.336  0.00  0.00    +0.000 A 
ATOM     10  C   UNL     1       3.939   6.958  18.133  0.00  0.00    +0.000 A 
ATOM     11  C   UNL     1       2.691   7.019  18.782  0.00  0.00    +0.000 A 
ATOM     12  C   UNL     1       1.809   8.284  18.851  0.00  0.00    +0.000 C 
ENDROOT
BRANCH   1  17
ATOM     13  C   UNL     1      -1.451  11.376  18.473  0.00  0.00    +0.000 A 
ATOM     14  C   UNL     1      -1.082  12.724  18.624  0.00  0.00    +0.000 A 
ATOM     15  C   UNL     1      -0.046  13.132  19.477  0.00  0.00    +0.000 A 
ATOM     16  C   UNL     1       0.652  12.205  20.249  0.00  0.00    +0.000 A 
ATOM     17  C   UNL     1       0.294  10.863  20.184  0.00  0.00    +0.000 A 
ATOM     18  C   UNL     1      -0.734  10.470  19.286  0.00  0.00    +0.000 A 
BRANCH  13  19
ATOM     19  N   UNL     1      -2.429  10.970  17.562  0.00  0.00    +0.000 N 
BRANCH  19  21
ATOM     20  C   UNL     1      -3.017   9.795  15.455  0.00  0.00    +0.000 C 
ATOM     21  C   UNL     1      -2.315   9.711  16.802  0.00  0.00    +0.000 C 
ENDBRANCH  19  21
BRANCH  19  22
ATOM     22  C   UNL     1      -3.680  11.721  17.357  0.00  0.00    +0.000 C 
BRANCH  22  23
ATOM     23  C   UNL     1      -4.676  11.608  18.498  0.00  0.00    +0.000 A 
ATOM     24  C   UNL     1      -4.611  12.390  19.655  0.00  0.00    +0.000 A 
ATOM     25  C   UNL     1      -5.569  12.216  20.643  0.00  0.00    +0.000 A 
ATOM     26  N   UNL     1      -6.569  11.314  20.575  0.00  0.00    +0.000 NA
ATOM     27  C   UNL     1      -6.614  10.555  19.462  0.00  0.00    +0.000 A 
ATOM     28  C   UNL     1      -5.701  10.653  18.421  0.00  0.00    +0.000 A 
ENDBRANCH  22  23
ENDBRANCH  19  22
ENDBRANCH  13  19
ENDBRANCH   1  17
BRANCH   9  29
ATOM     29  O   UNL     1       6.112   5.792  18.109  0.00  0.00    +0.000 OA
BRANCH  29  30
ATOM     30  S   UNL     1       6.816   5.388  16.709  0.00  0.00    +0.000 S 
ATOM     31  O   UNL     1       5.880   4.642  15.900  0.00  0.00    +0.000 OA
ATOM     32  O   UNL     1       7.577   6.495  16.184  0.00  0.00    +0.000 OA
BRANCH  30  33
ATOM     33  N   UNL     1       7.949   4.254  17.213  0.00  0.00    +0.000 NA
ATOM     34  H   UNL     1       8.536   3.980  16.426  0.00  0.00    +0.000 HD
ATOM     35  H   UNL     1       8.478   4.623  18.001  0.00  0.00    +0.000 HD
ENDBRANCH  30  33
ENDBRANCH  29  30
ENDBRANCH   9  29
TORSDOF 8
ENDMDL
MODEL 3
REMARK VINA RESULT:      -8.2      1.270      1.542
REMARK  Name = 
REMARK  9 active torsions:
REMARK  status: ('A' for Active; 'I' for Inactive)
REMARK    1  A    between atoms: C_1  and  C_2
REMARK    2  A    between atoms: C_2  and  N_3
REMARK    3  A    between atoms: N_3  and  C_4
REMARK    4  A    between atoms: N_3  and  C_11
REMARK    5  A    between atoms: C_4  and  C_5
REMARK    6  A    between atoms: C_15  and  C_16
REMARK    7  A    between atoms: C_24  and  O_25
REMARK    8  A    between atoms: O_25  and  S_26
REMARK    9  A    between atoms: S_26  and  N_27
REMARK                            x       y       z     vdW  Elec       q    Type
REMARK                         _______ _______ _______ _____ _____    ______ ____
ROOT
ATOM      1  C   UNL     1       1.204   9.556  20.856  0.00  0.00    +0.000 C 
ATOM      2  O   UNL     1       1.537   9.684  22.037  0.00  0.00    +0.000 OA
ATOM      3  N   UNL     1       1.384   8.333  20.198  0.00  0.00    +0.000 N 
ATOM      4  C   UNL     1       1.496   7.182  21.099  0.00  0.00    +0.000 C 
ATOM      5  C   UNL     1       1.158   5.897  20.353  0.00  0.00    +0.000 C 
ATOM      6  C   UNL     1       2.312   5.711  19.407  0.00  0.00    +0.000 A 
ATOM      7  C   UNL     1       3.058   4.535  19.458  0.00  0.00    +0.000 A 
ATOM      8  C   UNL     1       4.317   4.520  18.882  0.00  0.00    +0.000 A 
ATOM      9  C   UNL     1       4.804   5.645  18.212  0.00  0.00    +0.000 A 
ATOM     10  C   UNL     1       4.008   6.794  18.054  0.00  0.00    +0.000 A 
ATOM     11  C   UNL     1       2.756   6.854  18.693  0.00  0.00    +0.000 A 
ATOM     12  C   UNL     1       1.902   8.135  18.812  0.00  0.00    +0.000 C 
ENDROOT
BRANCH   1  17
ATOM     13  C   UNL     1      -1.425  11.300  18.699  0.00  0.00    +0.000 A 
ATOM     14  C   UNL     1      -0.932  12.614  18.765  0.00  0.00    +0.000 A 
ATOM     15  C   UNL     1       0.215  12.953  19.498  0.00  0.00    +0.000 A 
ATOM     16  C   UNL     1       0.906  11.991  20.231  0.00  0.00    +0.000 A 
ATOM     17  C   UNL     1       0.433  10.684  20.249  0.00  0.00    +0.000 A 
ATOM     18  C   UNL     1      -0.709  10.357  19.470  0.00  0.00    +0.000 A 
BRANCH  13  19
ATOM     19  N   UNL     1      -2.521  10.955  17.903  0.00  0.00    +0.000 N 
BRANCH  19  21
ATOM     20  C   UNL     1      -2.929   9.773  15.758  0.00  0.00    +0.000 C 
ATOM     21  C   UNL     1      -2.625   9.641  17.242  0.00  0.00    +0.000 C 
ENDBRANCH  19  21
BRANCH  19  22
ATOM     22  C   UNL     1      -3.686  11.841  17.734  0.00  0.00    +0.000 C 
BRANCH  22  23
ATOM     23  C   UNL     1      -4.759  11.679  18.795  0.00  0.00    +0.000 A 
ATOM     24  C   UNL     1      -5.854  10.820  18.656  0.00  0.00    +0.000 A 
ATOM     25  C   UNL     1      -6.783  10.737  19.683  0.00  0.00    +0.000 A 
ATOM     26  N   UNL     1      -6.715  11.455  20.823  0.00  0.00    +0.000 NA
ATOM     27  C   UNL     1      -5.663  12.290  20.941  0.00  0.00    +0.000 A 
ATOM     28  C   UNL     1      -4.684  12.444  19.969  0.00  0.00    +0.000 A 
ENDBRANCH  22  23
ENDBRANCH  19  22
ENDBRANCH  13  19
ENDBRANCH   1  17
BRANCH   9  29
ATOM     29  O   UNL     1       6.155   5.579  17.996  0.00  0.00    +0.000 OA
BRANCH  29  30
ATOM     30  S   UNL     1       6.878   5.622  16.550  0.00  0.00    +0.000 S 
ATOM     31  O   UNL     1       7.890   4.593  16.489  0.00  0.00    +0.000 OA
ATOM     32  O   UNL     1       5.906   5.809  15.500  0.00  0.00    +0.000 OA
BRANCH  30  33
ATOM     33  N   UNL     1       7.734   7.064  16.641  0.00  0.00    +0.000 NA
ATOM     34  H   UNL     1       7.147   7.835  16.325  0.00  0.00    +0.000 HD
ATOM     35  H   UNL     1       8.094   7.192  17.585  0.00  0.00    +0.000 HD
ENDBRANCH  30  33
ENDBRANCH  29  30
ENDBRANCH   9  29
TORSDOF 8
ENDMDL
MODEL 4
REMARK VINA RESULT:      -8.1      4.956     10.797
REMARK  Name = 
REMARK  9 active torsions:
REMARK  status: ('A' for Active; 'I' for Inactive)
REMARK    1  A    between atoms: C_1  and  C_2
REMARK    2  A    between atoms: C_2  and  N_3
REMARK    3  A    between atoms: N_3  and  C_4
REMARK    4  A    between atoms: N_3  and  C_11
REMARK    5  A    between atoms: C_4  and  C_5
REMARK    6  A    between atoms: C_15  and  C_16
REMARK    7  A    between atoms: C_24  and  O_25
REMARK    8  A    between atoms: O_25  and  S_26
REMARK    9  A    between atoms: S_26  and  N_27
REMARK                            x       y       z     vdW  Elec       q    Type
REMARK                         _______ _______ _______ _____ _____    ______ ____
ROOT
ATOM      1  C   UNL     1       0.169  10.756  21.270  0.00  0.00    +0.000 C 
ATOM      2  O   UNL     1       0.561  10.368  22.374  0.00  0.00    +0.000 OA
ATOM      3  N   UNL     1      -0.639  11.895  21.166  0.00  0.00    +0.000 N 
ATOM      4  C   UNL     1      -0.545  12.800  22.315  0.00  0.00    +0.000 C 
ATOM      5  C   UNL     1      -0.996  14.201  21.919  0.00  0.00    +0.000 C 
ATOM      6  C   UNL     1      -2.479  14.059  21.708  0.00  0.00    +0.000 A 
ATOM      7  C   UNL     1      -3.356  14.855  22.443  0.00  0.00    +0.000 A 
ATOM      8  C   UNL     1      -4.682  14.472  22.540  0.00  0.00    +0.000 A 
ATOM      9  C   UNL     1      -5.143  13.338  21.865  0.00  0.00    +0.000 A 
ATOM     10  C   UNL     1      -4.291  12.598  21.027  0.00  0.00    +0.000 A 
ATOM     11  C   UNL     1      -2.925  12.931  20.972  0.00  0.00    +0.000 A 
ATOM     12  C   UNL     1      -1.844  12.056  20.300  0.00  0.00    +0.000 C 
ENDROOT
BRANCH   1  17
ATOM     13  C   UNL     1       1.847   8.005  19.215  0.00  0.00    +0.000 A 
ATOM     14  C   UNL     1       2.175   8.751  18.070  0.00  0.00    +0.000 A 
ATOM     15  C   UNL     1       1.856  10.111  17.938  0.00  0.00    +0.000 A 
ATOM     16  C   UNL     1       1.159  10.782  18.941  0.00  0.00    +0.000 A 
ATOM     17  C   UNL     1       0.758  10.082  20.073  0.00  0.00    +0.000 A 
ATOM     18  C   UNL     1       1.124   8.715  20.199  0.00  0.00    +0.000 A 
BRANCH  13  19
ATOM     19  N   UNL     1       2.238   6.673  19.372  0.00  0.00    +0.000 N 
BRANCH  19  21
ATOM     20  C   UNL     1       1.421   4.537  20.340  0.00  0.00    +0.000 C 
ATOM     21  C   UNL     1       1.980   5.924  20.616  0.00  0.00    +0.000 C 
ENDBRANCH  19  21
BRANCH  19  22
ATOM     22  C   UNL     1       2.857   5.896  18.284  0.00  0.00    +0.000 C 
BRANCH  22  23
ATOM     23  C   UNL     1       4.374   5.941  18.262  0.00  0.00    +0.000 A 
ATOM     24  C   UNL     1       5.176   5.291  19.205  0.00  0.00    +0.000 A 
ATOM     25  C   UNL     1       6.556   5.389  19.101  0.00  0.00    +0.000 A 
ATOM     26  N   UNL     1       7.193   6.097  18.146  0.00  0.00    +0.000 NA
ATOM     27  C   UNL     1       6.410   6.732  17.250  0.00  0.00    +0.000 A 
ATOM     28  C   UNL     1       5.022   6.695  17.273  0.00  0.00    +0.000 A 
ENDBRANCH  22  23
ENDBRANCH  19  22
ENDBRANCH  13  19
ENDBRANCH   1  17
BRANCH   9  29
ATOM     29  O   UNL     1      -6.366  12.922  22.321  0.00  0.00    +0.000 OA
BRANCH  29  30
ATOM     30  S   UNL     1      -6.730  12.588  23.862  0.00  0.00    +0.000 S 
ATOM     31  O   UNL     1      -5.566  12.043  24.521  0.00  0.00    +0.000 OA
ATOM     32  O   UNL     1      -7.517  13.649  24.441  0.00  0.00    +0.000 OA
BRANCH  30  33
ATOM     33  N   UNL     1      -7.776  11.285  23.689  0.00  0.00    +0.000 NA
ATOM     34  H   UNL     1      -8.401  11.236  24.492  0.00  0.00    +0.000 HD
ATOM     35  H   UNL     1      -8.268  11.354  22.800  0.00  0.00    +0.000 HD
ENDBRANCH  30  33
ENDBRANCH  29  30
ENDBRANCH   9  29
TORSDOF 8
ENDMDL
MODEL 5
REMARK VINA RESULT:      -8.1      0.644      1.135
REMARK  Name = 
REMARK  9 active torsions:
REMARK  status: ('A' for Active; 'I' for Inactive)
REMARK    1  A    between atoms: C_1  and  C_2
REMARK    2  A    between atoms: C_2  and  N_3
REMARK    3  A    between atoms: N_3  and  C_4
REMARK    4  A    between atoms: N_3  and  C_11
REMARK    5  A    between atoms: C_4  and  C_5
REMARK    6  A    between atoms: C_15  and  C_16
REMARK    7  A    between atoms: C_24  and  O_25
REMARK    8  A    between atoms: O_25  and  S_26
REMARK    9  A    between atoms: S_26  and  N_27
REMARK                            x       y       z     vdW  Elec       q    Type
REMARK                         _______ _______ _______ _____ _____    ______ ____
ROOT
ATOM      1  C   UNL     1       1.054  10.060  20.321  0.00  0.00    +0.000 C 
ATOM      2  O   UNL     1       1.479  10.486  21.399  0.00  0.00    +0.000 OA
ATOM      3  N   UNL     1       1.306   8.738  19.933  0.00  0.00    +0.000 N 
ATOM      4  C   UNL     1       1.629   7.841  21.047  0.00  0.00    +0.000 C 
ATOM      5  C   UNL     1       1.367   6.394  20.648  0.00  0.00    +0.000 C 
ATOM      6  C   UNL     1       2.441   6.095  19.638  0.00  0.00    +0.000 A 
ATOM      7  C   UNL     1       3.316   5.033  19.860  0.00  0.00    +0.000 A 
ATOM      8  C   UNL     1       4.509   4.994  19.160  0.00  0.00    +0.000 A 
ATOM      9  C   UNL     1       4.803   5.972  18.205  0.00  0.00    +0.000 A 
ATOM     10  C   UNL     1       3.873   6.979  17.891  0.00  0.00    +0.000 A 
ATOM     11  C   UNL     1       2.687   7.076  18.643  0.00  0.00    +0.000 A 
ATOM     12  C   UNL     1       1.711   8.271  18.575  0.00  0.00    +0.000 C 
ENDROOT
BRANCH   1  17
ATOM     13  C   UNL     1      -1.960  11.025  18.177  0.00  0.00    +0.000 A 
ATOM     14  C   UNL     1      -1.602  12.349  17.873  0.00  0.00    +0.000 A 
ATOM     15  C   UNL     1      -0.424  12.941  18.352  0.00  0.00    +0.000 A 
ATOM     16  C   UNL     1       0.438  12.240  19.193  0.00  0.00    +0.000 A 
ATOM     17  C   UNL     1       0.108  10.945  19.575  0.00  0.00    +0.000 A 
ATOM     18  C   UNL     1      -1.071  10.354  19.047  0.00  0.00    +0.000 A 
BRANCH  13  19
ATOM     19  N   UNL     1      -3.093  10.415  17.632  0.00  0.00    +0.000 N 
BRANCH  19  21
ATOM     20  C   UNL     1      -2.760  10.623  15.180  0.00  0.00    +0.000 C 
ATOM     21  C   UNL     1      -3.049   9.691  16.348  0.00  0.00    +0.000 C 
ENDBRANCH  19  21
BRANCH  19  22
ATOM     22  C   UNL     1      -4.387  10.379  18.334  0.00  0.00    +0.000 C 
BRANCH  22  23
ATOM     23  C   UNL     1      -5.171  11.677  18.278  0.00  0.00    +0.000 A 
ATOM     24  C   UNL     1      -5.730  12.187  17.102  0.00  0.00    +0.000 A 
ATOM     25  C   UNL     1      -6.433  13.382  17.150  0.00  0.00    +0.000 A 
ATOM     26  N   UNL     1      -6.604  14.114  18.271  0.00  0.00    +0.000 NA
ATOM     27  C   UNL     1      -6.048  13.620  19.396  0.00  0.00    +0.000 A 
ATOM     28  C   UNL     1      -5.326  12.435  19.448  0.00  0.00    +0.000 A 
ENDBRANCH  22  23
ENDBRANCH  19  22
ENDBRANCH  13  19
ENDBRANCH   1  17
BRANCH   9  29
ATOM     29  O   UNL     1       6.126   5.975  17.853  0.00  0.00    +0.000 OA
BRANCH  29  30
ATOM     30  S   UNL     1       6.860   4.854  16.948  0.00  0.00    +0.000 S 
ATOM     31  O   UNL     1       7.993   4.322  17.668  0.00  0.00    +0.000 OA
ATOM     32  O   UNL     1       5.888   4.003  16.304  0.00  0.00    +0.000 OA
BRANCH  30  33
ATOM     33  N   UNL     1       7.528   5.790  15.723  0.00  0.00    +0.000 NA
ATOM     34  H   UNL     1       8.225   5.246  15.216  0.00  0.00    +0.000 HD
ATOM     35  H   UNL     1       6.789   6.154  15.126  0.00  0.00    +0.000 HD
ENDBRANCH  30  33
ENDBRANCH  29  30
ENDBRANCH   9  29
TORSDOF 8
ENDMDL
MODEL 6
REMARK VINA RESULT:      -8.0      2.512      3.583
REMARK  Name = 
REMARK  9 active torsions:
REMARK  status: ('A' for Active; 'I' for Inactive)
REMARK    1  A    between atoms: C_1  and  C_2
REMARK    2  A    between atoms: C_2  and  N_3
REMARK    3  A    between atoms: N_3  and  C_4
REMARK    4  A    between atoms: N_3  and  C_11
REMARK    5  A    between atoms: C_4  and  C_5
REMARK    6  A    between atoms: C_15  and  C_16
REMARK    7  A    between atoms: C_24  and  O_25
REMARK    8  A    between atoms: O_25  and  S_26
REMARK    9  A    between atoms: S_26  and  N_27
REMARK                            x       y       z     vdW  Elec       q    Type
REMARK                         _______ _______ _______ _____ _____    ______ ____
ROOT
ATOM      1  C   UNL     1       1.257   8.975  20.670  0.00  0.00    +0.000 C 
ATOM      2  O   UNL     1       1.404   9.166  21.880  0.00  0.00    +0.000 OA
ATOM      3  N   UNL     1       1.522   7.717  20.114  0.00  0.00    +0.000 N 
ATOM      4  C   UNL     1       1.479   6.616  21.081  0.00  0.00    +0.000 C 
ATOM      5  C   UNL     1       1.245   5.294  20.362  0.00  0.00    +0.000 C 
ATOM      6  C   UNL     1       2.529   5.052  19.617  0.00  0.00    +0.000 A 
ATOM      7  C   UNL     1       3.245   3.879  19.846  0.00  0.00    +0.000 A 
ATOM      8  C   UNL     1       4.578   3.828  19.475  0.00  0.00    +0.000 A 
ATOM      9  C   UNL     1       5.176   4.913  18.829  0.00  0.00    +0.000 A 
ATOM     10  C   UNL     1       4.428   6.055  18.488  0.00  0.00    +0.000 A 
ATOM     11  C   UNL     1       3.092   6.153  18.921  0.00  0.00    +0.000 A 
ATOM     12  C   UNL     1       2.245   7.442  18.838  0.00  0.00    +0.000 C 
ENDROOT
BRANCH   1  17
ATOM     13  C   UNL     1       0.054  12.506  19.837  0.00  0.00    +0.000 A 
ATOM     14  C   UNL     1      -0.815  12.201  18.777  0.00  0.00    +0.000 A 
ATOM     15  C   UNL     1      -1.012  10.891  18.315  0.00  0.00    +0.000 A 
ATOM     16  C   UNL     1      -0.315   9.823  18.876  0.00  0.00    +0.000 A 
ATOM     17  C   UNL     1       0.602  10.070  19.891  0.00  0.00    +0.000 A 
ATOM     18  C   UNL     1       0.756  11.400  20.367  0.00  0.00    +0.000 A 
BRANCH  13  19
ATOM     19  N   UNL     1       0.184  13.802  20.344  0.00  0.00    +0.000 N 
BRANCH  19  21
ATOM     20  C   UNL     1      -0.342  15.955  19.225  0.00  0.00    +0.000 C 
ATOM     21  C   UNL     1       0.720  14.909  19.531  0.00  0.00    +0.000 C 
ENDBRANCH  19  21
BRANCH  19  22
ATOM     22  C   UNL     1      -0.281  14.174  21.692  0.00  0.00    +0.000 C 
BRANCH  22  23
ATOM     23  C   UNL     1      -1.618  13.574  22.084  0.00  0.00    +0.000 A 
ATOM     24  C   UNL     1      -2.832  13.953  21.502  0.00  0.00    +0.000 A 
ATOM     25  C   UNL     1      -4.004  13.345  21.926  0.00  0.00    +0.000 A 
ATOM     26  N   UNL     1      -4.062  12.407  22.894  0.00  0.00    +0.000 NA
ATOM     27  C   UNL     1      -2.888  12.058  23.459  0.00  0.00    +0.000 A 
ATOM     28  C   UNL     1      -1.664  12.611  23.104  0.00  0.00    +0.000 A 
ENDBRANCH  22  23
ENDBRANCH  19  22
ENDBRANCH  13  19
ENDBRANCH   1  17
BRANCH   9  29
ATOM     29  O   UNL     1       6.543   4.831  18.829  0.00  0.00    +0.000 OA
BRANCH  29  30
ATOM     30  S   UNL     1       7.480   4.765  17.512  0.00  0.00    +0.000 S 
ATOM     31  O   UNL     1       7.567   6.079  16.920  0.00  0.00    +0.000 OA
ATOM     32  O   UNL     1       8.646   3.952  17.757  0.00  0.00    +0.000 OA
BRANCH  30  33
ATOM     33  N   UNL     1       6.520   3.879  16.456  0.00  0.00    +0.000 NA
ATOM     34  H   UNL     1       6.842   4.017  15.499  0.00  0.00    +0.000 HD
ATOM     35  H   UNL     1       6.507   2.901  16.739  0.00  0.00    +0.000 HD
ENDBRANCH  30  33
ENDBRANCH  29  30
ENDBRANCH   9  29
TORSDOF 8
ENDMDL
MODEL 7
REMARK VINA RESULT:      -7.9      1.322      1.817
REMARK  Name = 
REMARK  9 active torsions:
REMARK  status: ('A' for Active; 'I' for Inactive)
REMARK    1  A    between atoms: C_1  and  C_2
REMARK    2  A    between atoms: C_2  and  N_3
REMARK    3  A    between atoms: N_3  and  C_4
REMARK    4  A    between atoms: N_3  and  C_11
REMARK    5  A    between atoms: C_4  and  C_5
REMARK    6  A    between atoms: C_15  and  C_16
REMARK    7  A    between atoms: C_24  and  O_25
REMARK    8  A    between atoms: O_25  and  S_26
REMARK    9  A    between atoms: S_26  and  N_27
REMARK                            x       y       z     vdW  Elec       q    Type
REMARK                         _______ _______ _______ _____ _____    ______ ____
ROOT
ATOM      1  C   UNL     1       1.320   9.324  21.071  0.00  0.00    +0.000 C 
ATOM      2  O   UNL     1       1.774   9.362  22.219  0.00  0.00    +0.000 OA
ATOM      3  N   UNL     1       1.436   8.160  20.303  0.00  0.00    +0.000 N 
ATOM      4  C   UNL     1       1.645   6.942  21.092  0.00  0.00    +0.000 C 
ATOM      5  C   UNL     1       1.236   5.716  20.284  0.00  0.00    +0.000 C 
ATOM      6  C   UNL     1       2.286   5.620  19.212  0.00  0.00    +0.000 A 
ATOM      7  C   UNL     1       3.039   4.453  19.091  0.00  0.00    +0.000 A 
ATOM      8  C   UNL     1       4.231   4.499  18.389  0.00  0.00    +0.000 A 
ATOM      9  C   UNL     1       4.641   5.680  17.765  0.00  0.00    +0.000 A 
ATOM     10  C   UNL     1       3.829   6.828  17.782  0.00  0.00    +0.000 A 
ATOM     11  C   UNL     1       2.649   6.821  18.550  0.00  0.00    +0.000 A 
ATOM     12  C   UNL     1       1.807   8.078  18.859  0.00  0.00    +0.000 C 
ENDROOT
BRANCH   1  17
ATOM     13  C   UNL     1      -1.388  11.235  19.169  0.00  0.00    +0.000 A 
ATOM     14  C   UNL     1      -0.982  12.547  19.462  0.00  0.00    +0.000 A 
ATOM     15  C   UNL     1       0.131  12.831  20.266  0.00  0.00    +0.000 A 
ATOM     16  C   UNL     1       0.873  11.806  20.847  0.00  0.00    +0.000 A 
ATOM     17  C   UNL     1       0.485  10.487  20.640  0.00  0.00    +0.000 A 
ATOM     18  C   UNL     1      -0.623  10.223  19.791  0.00  0.00    +0.000 A 
BRANCH  13  19
ATOM     19  N   UNL     1      -2.449  10.960  18.302  0.00  0.00    +0.000 N 
BRANCH  19  21
ATOM     20  C   UNL     1      -2.791   9.758  16.156  0.00  0.00    +0.000 C 
ATOM     21  C   UNL     1      -2.614   9.641  17.662  0.00  0.00    +0.000 C 
ENDBRANCH  19  21
BRANCH  19  22
ATOM     22  C   UNL     1      -3.522  11.932  18.030  0.00  0.00    +0.000 C 
BRANCH  22  23
ATOM     23  C   UNL     1      -4.756  11.767  18.897  0.00  0.00    +0.000 A 
ATOM     24  C   UNL     1      -5.863  11.000  18.520  0.00  0.00    +0.000 A 
ATOM     25  C   UNL     1      -6.946  10.906  19.382  0.00  0.00    +0.000 A 
ATOM     26  N   UNL     1      -7.017  11.530  20.576  0.00  0.00    +0.000 NA
ATOM     27  C   UNL     1      -5.951  12.278  20.924  0.00  0.00    +0.000 A 
ATOM     28  C   UNL     1      -4.823  12.435  20.129  0.00  0.00    +0.000 A 
ENDBRANCH  22  23
ENDBRANCH  19  22
ENDBRANCH  13  19
ENDBRANCH   1  17
BRANCH   9  29
ATOM     29  O   UNL     1       5.963   5.647  17.406  0.00  0.00    +0.000 OA
BRANCH  29  30
ATOM     30  S   UNL     1       7.212   5.567  18.430  0.00  0.00    +0.000 S 
ATOM     31  O   UNL     1       8.073   6.709  18.226  0.00  0.00    +0.000 OA
ATOM     32  O   UNL     1       6.770   5.160  19.741  0.00  0.00    +0.000 OA
BRANCH  30  33
ATOM     33  N   UNL     1       8.074   4.264  17.813  0.00  0.00    +0.000 NA
ATOM     34  H   UNL     1       7.929   3.445  18.403  0.00  0.00    +0.000 HD
ATOM     35  H   UNL     1       7.816   4.109  16.840  0.00  0.00    +0.000 HD
ENDBRANCH  30  33
ENDBRANCH  29  30
ENDBRANCH   9  29
TORSDOF 8
ENDMDL
MODEL 8
REMARK VINA RESULT:      -7.8      2.314      3.430
REMARK  Name = 
REMARK  9 active torsions:
REMARK  status: ('A' for Active; 'I' for Inactive)
REMARK    1  A    between atoms: C_1  and  C_2
REMARK    2  A    between atoms: C_2  and  N_3
REMARK    3  A    between atoms: N_3  and  C_4
REMARK    4  A    between atoms: N_3  and  C_11
REMARK    5  A    between atoms: C_4  and  C_5
REMARK    6  A    between atoms: C_15  and  C_16
REMARK    7  A    between atoms: C_24  and  O_25
REMARK    8  A    between atoms: O_25  and  S_26
REMARK    9  A    between atoms: S_26  and  N_27
REMARK                            x       y       z     vdW  Elec       q    Type
REMARK                         _______ _______ _______ _____ _____    ______ ____
ROOT
ATOM      1  C   UNL     1       1.124   9.561  20.497  0.00  0.00    +0.000 C 
ATOM      2  O   UNL     1       1.495   9.884  21.629  0.00  0.00    +0.000 OA
ATOM      3  N   UNL     1       1.388   8.277  20.005  0.00  0.00    +0.000 N 
ATOM      4  C   UNL     1       1.645   7.279  21.047  0.00  0.00    +0.000 C 
ATOM      5  C   UNL     1       1.395   5.877  20.506  0.00  0.00    +0.000 C 
ATOM      6  C   UNL     1       2.519   5.658  19.531  0.00  0.00    +0.000 A 
ATOM      7  C   UNL     1       3.374   4.570  19.702  0.00  0.00    +0.000 A 
ATOM      8  C   UNL     1       4.602   4.581  19.064  0.00  0.00    +0.000 A 
ATOM      9  C   UNL     1       4.953   5.638  18.219  0.00  0.00    +0.000 A 
ATOM     10  C   UNL     1       4.048   6.680  17.949  0.00  0.00    +0.000 A 
ATOM     11  C   UNL     1       2.825   6.722  18.643  0.00  0.00    +0.000 A 
ATOM     12  C   UNL     1       1.861   7.929  18.633  0.00  0.00    +0.000 C 
ENDROOT
BRANCH   1  17
ATOM     13  C   UNL     1      -0.679  12.848  19.752  0.00  0.00    +0.000 A 
ATOM     14  C   UNL     1      -1.614  12.381  18.814  0.00  0.00    +0.000 A 
ATOM     15  C   UNL     1      -1.669  11.040  18.405  0.00  0.00    +0.000 A 
ATOM     16  C   UNL     1      -0.759  10.106  18.896  0.00  0.00    +0.000 A 
ATOM     17  C   UNL     1       0.226  10.521  19.785  0.00  0.00    +0.000 A 
ATOM     18  C   UNL     1       0.238  11.876  20.212  0.00  0.00    +0.000 A 
BRANCH  13  19
ATOM     19  N   UNL     1      -0.682  14.167  20.215  0.00  0.00    +0.000 N 
BRANCH  19  21
ATOM     20  C   UNL     1       1.058  15.293  18.847  0.00  0.00    +0.000 C 
ATOM     21  C   UNL     1      -0.386  15.307  19.327  0.00  0.00    +0.000 C 
ENDBRANCH  19  21
BRANCH  19  22
ATOM     22  C   UNL     1      -1.062  14.521  21.593  0.00  0.00    +0.000 C 
BRANCH  22  23
ATOM     23  C   UNL     1      -2.288  13.794  22.114  0.00  0.00    +0.000 A 
ATOM     24  C   UNL     1      -3.572  13.981  21.593  0.00  0.00    +0.000 A 
ATOM     25  C   UNL     1      -4.632  13.268  22.135  0.00  0.00    +0.000 A 
ATOM     26  N   UNL     1      -4.514  12.402  23.163  0.00  0.00    +0.000 NA
ATOM     27  C   UNL     1      -3.274  12.240  23.667  0.00  0.00    +0.000 A 
ATOM     28  C   UNL     1      -2.152  12.909  23.194  0.00  0.00    +0.000 A 
ENDBRANCH  22  23
ENDBRANCH  19  22
ENDBRANCH  13  19
ENDBRANCH   1  17
BRANCH   9  29
ATOM     29  O   UNL     1       6.294   5.657  17.939  0.00  0.00    +0.000 OA
BRANCH  29  30
ATOM     30  S   UNL     1       7.036   4.737  16.835  0.00  0.00    +0.000 S 
ATOM     31  O   UNL     1       8.241   4.182  17.406  0.00  0.00    +0.000 OA
ATOM     32  O   UNL     1       6.079   3.929  16.119  0.00  0.00    +0.000 OA
BRANCH  30  33
ATOM     33  N   UNL     1       7.571   5.889  15.736  0.00  0.00    +0.000 NA
ATOM     34  H   UNL     1       6.858   6.046  15.026  0.00  0.00    +0.000 HD
ATOM     35  H   UNL     1       7.840   6.738  16.231  0.00  0.00    +0.000 HD
ENDBRANCH  30  33
ENDBRANCH  29  30
ENDBRANCH   9  29
TORSDOF 8
ENDMDL
MODEL 9
REMARK VINA RESULT:      -7.8      1.043      1.486
REMARK  Name = 
REMARK  9 active torsions:
REMARK  status: ('A' for Active; 'I' for Inactive)
REMARK    1  A    between atoms: C_1  and  C_2
REMARK    2  A    between atoms: C_2  and  N_3
REMARK    3  A    between atoms: N_3  and  C_4
REMARK    4  A    between atoms: N_3  and  C_11
REMARK    5  A    between atoms: C_4  and  C_5
REMARK    6  A    between atoms: C_15  and  C_16
REMARK    7  A    between atoms: C_24  and  O_25
REMARK    8  A    between atoms: O_25  and  S_26
REMARK    9  A    between atoms: S_26  and  N_27
REMARK                            x       y       z     vdW  Elec       q    Type
REMARK                         _______ _______ _______ _____ _____    ______ ____
ROOT
ATOM      1  C   UNL     1       1.017   9.753  20.676  0.00  0.00    +0.000 C 
ATOM      2  O   UNL     1       1.439   9.986  21.812  0.00  0.00    +0.000 OA
ATOM      3  N   UNL     1       1.246   8.508  20.078  0.00  0.00    +0.000 N 
ATOM      4  C   UNL     1       1.537   7.432  21.030  0.00  0.00    +0.000 C 
ATOM      5  C   UNL     1       1.249   6.077  20.396  0.00  0.00    +0.000 C 
ATOM      6  C   UNL     1       2.328   5.923  19.360  0.00  0.00    +0.000 A 
ATOM      7  C   UNL     1       3.177   4.819  19.411  0.00  0.00    +0.000 A 
ATOM      8  C   UNL     1       4.377   4.869  18.723  0.00  0.00    +0.000 A 
ATOM      9  C   UNL     1       4.703   5.984  17.945  0.00  0.00    +0.000 A 
ATOM     10  C   UNL     1       3.798   7.050  17.794  0.00  0.00    +0.000 A 
ATOM     11  C   UNL     1       2.606   7.049  18.542  0.00  0.00    +0.000 A 
ATOM     12  C   UNL     1       1.656   8.260  18.664  0.00  0.00    +0.000 C 
ENDROOT
BRANCH   1  17
ATOM     13  C   UNL     1      -1.680  11.180  18.374  0.00  0.00    +0.000 A 
ATOM     14  C   UNL     1      -1.470  12.549  18.608  0.00  0.00    +0.000 A 
ATOM     15  C   UNL     1      -0.494  13.023  19.498  0.00  0.00    +0.000 A 
ATOM     16  C   UNL     1       0.300  12.138  20.225  0.00  0.00    +0.000 A 
ATOM     17  C   UNL     1       0.099  10.770  20.078  0.00  0.00    +0.000 A 
ATOM     18  C   UNL     1      -0.870  10.315  19.144  0.00  0.00    +0.000 A 
BRANCH  13  19
ATOM     19  N   UNL     1      -2.598  10.719  17.428  0.00  0.00    +0.000 N 
BRANCH  19  21
ATOM     20  C   UNL     1      -3.042   9.715  15.200  0.00  0.00    +0.000 C 
ATOM     21  C   UNL     1      -2.346  10.821  15.978  0.00  0.00    +0.000 C 
ENDBRANCH  19  21
BRANCH  19  22
ATOM     22  C   UNL     1      -3.841  10.023  17.805  0.00  0.00    +0.000 C 
BRANCH  22  23
ATOM     23  C   UNL     1      -5.058  10.924  17.915  0.00  0.00    +0.000 A 
ATOM     24  C   UNL     1      -5.230  12.081  17.148  0.00  0.00    +0.000 A 
ATOM     25  C   UNL     1      -6.378  12.840  17.318  0.00  0.00    +0.000 A 
ATOM     26  N   UNL     1      -7.354  12.547  18.202  0.00  0.00    +0.000 NA
ATOM     27  C   UNL     1      -7.172  11.438  18.946  0.00  0.00    +0.000 A 
ATOM     28  C   UNL     1      -6.056  10.616  18.851  0.00  0.00    +0.000 A 
ENDBRANCH  22  23
ENDBRANCH  19  22
ENDBRANCH  13  19
ENDBRANCH   1  17
BRANCH   9  29
ATOM     29  O   UNL     1       6.030   6.014  17.610  0.00  0.00    +0.000 OA
BRANCH  29  30
ATOM     30  S   UNL     1       7.262   5.772  18.629  0.00  0.00    +0.000 S 
ATOM     31  O   UNL     1       8.212   6.853  18.499  0.00  0.00    +0.000 OA
ATOM     32  O   UNL     1       6.781   5.321  19.912  0.00  0.00    +0.000 OA
BRANCH  30  33
ATOM     33  N   UNL     1       8.023   4.446  17.934  0.00  0.00    +0.000 NA
ATOM     34  H   UNL     1       8.798   4.759  17.352  0.00  0.00    +0.000 HD
ATOM     35  H   UNL     1       8.304   3.790  18.661  0.00  0.00    +0.000 HD
ENDBRANCH  30  33
ENDBRANCH  29  30
ENDBRANCH   9  29
TORSDOF 8
ENDMDL
