MODEL 1
REMARK VINA RESULT:      -9.2      0.000      0.000
REMARK  Name = 
REMARK  5 active torsions:
REMARK  status: ('A' for Active; 'I' for Inactive)
REMARK    1  A    between atoms: C_1  and  C_2
REMARK    2  A    between atoms: C_2  and  C_3
REMARK    3  A    between atoms: C_6  and  N_7
REMARK    4  A    between atoms: N_7  and  C_8
REMARK    5  A    between atoms: C_15  and  C_16
REMARK                            x       y       z     vdW  Elec       q    Type
REMARK                         _______ _______ _______ _____ _____    ______ ____
ROOT
ATOM      1  C   UNL     1       6.789   6.777  16.851  0.00  0.00    +0.000 A 
ATOM      2  C   UNL     1       7.687   6.703  17.937  0.00  0.00    +0.000 A 
ATOM      3  C   UNL     1       7.468   5.568  18.703  0.00  0.00    +0.000 A 
ATOM      4  N   UNL     1       6.345   4.816  18.561  0.00  0.00    +0.000 NA
ATOM      5  C   UNL     1       5.291   5.410  17.949  0.00  0.00    +0.000 A 
ATOM      6  C   UNL     1       4.022   4.948  18.172  0.00  0.00    +0.000 A 
ATOM      7  C   UNL     1       2.937   5.830  18.229  0.00  0.00    +0.000 A 
ATOM      8  C   UNL     1       3.084   7.223  18.134  0.00  0.00    +0.000 A 
ATOM      9  C   UNL     1       4.342   7.603  17.574  0.00  0.00    +0.000 A 
ATOM     10  C   UNL     1       5.435   6.618  17.290  0.00  0.00    +0.000 A 
ENDROOT
BRANCH   8  11
ATOM     11  C   UNL     1       1.938   8.050  18.706  0.00  0.00    +0.000 A 
ATOM     12  C   UNL     1       1.294   9.111  18.042  0.00  0.00    +0.000 A 
ATOM     13  C   UNL     1       0.510  10.068  18.750  0.00  0.00    +0.000 A 
ATOM     14  C   UNL     1       0.345  10.000  20.135  0.00  0.00    +0.000 A 
ATOM     15  C   UNL     1       0.901   8.929  20.808  0.00  0.00    +0.000 A 
ATOM     16  C   UNL     1       1.647   7.968  20.099  0.00  0.00    +0.000 A 
ENDBRANCH   8  11
BRANCH   1  17
ATOM     17  N   UNL     1       7.429   5.635  15.885  0.00  0.00    +0.000 N 
ATOM     18  H   UNL     1       7.378   4.852  16.559  0.00  0.00    +0.000 HD
BRANCH  17  22
ATOM     19  C   UNL     1       5.886   3.476  12.506  0.00  0.00    +0.000 A 
ATOM     20  C   UNL     1       7.030   4.282  12.369  0.00  0.00    +0.000 A 
ATOM     21  C   UNL     1       7.622   4.959  13.460  0.00  0.00    +0.000 A 
ATOM     22  C   UNL     1       7.115   4.837  14.743  0.00  0.00    +0.000 A 
ATOM     23  C   UNL     1       6.018   3.945  14.892  0.00  0.00    +0.000 A 
ATOM     24  C   UNL     1       5.409   3.285  13.808  0.00  0.00    +0.000 A 
BRANCH  19  26
ATOM     25  C   UNL     1       3.735   3.413  11.044  0.00  0.00    +0.000 C 
ATOM     26  C   UNL     1       5.110   2.843  11.362  0.00  0.00    +0.000 C 
ENDBRANCH  19  26
ENDBRANCH  17  22
ENDBRANCH   1  17
TORSDOF 4
ENDMDL
MODEL 2
REMARK VINA RESULT:      -8.9      3.398      6.398
REMARK  Name = 
REMARK  5 active torsions:
REMARK  status: ('A' for Active; 'I' for Inactive)
REMARK    1  A    between atoms: C_1  and  C_2
REMARK    2  A    between atoms: C_2  and  C_3
REMARK    3  A    between atoms: C_6  and  N_7
REMARK    4  A    between atoms: N_7  and  C_8
REMARK    5  A    between atoms: C_15  and  C_16
REMARK                            x       y       z     vdW  Elec       q    Type
REMARK                         _______ _______ _______ _____ _____    ______ ____
ROOT
ATOM      1  C   UNL     1       5.470   5.773  15.824  0.00  0.00    +0.000 A 
ATOM      2  C   UNL     1       6.200   5.220  14.751  0.00  0.00    +0.000 A 
ATOM      3  C   UNL     1       7.188   4.356  15.199  0.00  0.00    +0.000 A 
ATOM      4  N   UNL     1       7.557   4.310  16.507  0.00  0.00    +0.000 NA
ATOM      5  C   UNL     1       7.224   5.380  17.269  0.00  0.00    +0.000 A 
ATOM      6  C   UNL     1       7.926   5.650  18.411  0.00  0.00    +0.000 A 
ATOM      7  C   UNL     1       8.171   6.969  18.808  0.00  0.00    +0.000 A 
ATOM      8  C   UNL     1       7.783   8.079  18.041  0.00  0.00    +0.000 A 
ATOM      9  C   UNL     1       6.785   7.750  17.072  0.00  0.00    +0.000 A 
ATOM     10  C   UNL     1       6.346   6.343  16.804  0.00  0.00    +0.000 A 
ENDROOT
BRANCH   8  11
ATOM     11  C   UNL     1       8.535   9.375  18.321  0.00  0.00    +0.000 A 
ATOM     12  C   UNL     1       9.238   9.665  19.505  0.00  0.00    +0.000 A 
ATOM     13  C   UNL     1       9.591  11.000  19.856  0.00  0.00    +0.000 A 
ATOM     14  C   UNL     1       9.255  12.084  19.044  0.00  0.00    +0.000 A 
ATOM     15  C   UNL     1       8.630  11.829  17.837  0.00  0.00    +0.000 A 
ATOM     16  C   UNL     1       8.314  10.504  17.479  0.00  0.00    +0.000 A 
ENDBRANCH   8  11
BRANCH   1  17
ATOM     17  N   UNL     1       4.572   4.483  16.244  0.00  0.00    +0.000 N 
ATOM     18  H   UNL     1       5.357   3.858  16.498  0.00  0.00    +0.000 HD
BRANCH  17  22
ATOM     19  C   UNL     1       2.029   3.674  19.611  0.00  0.00    +0.000 A 
ATOM     20  C   UNL     1       1.560   3.463  18.302  0.00  0.00    +0.000 A 
ATOM     21  C   UNL     1       2.375   3.645  17.161  0.00  0.00    +0.000 A 
ATOM     22  C   UNL     1       3.703   4.019  17.277  0.00  0.00    +0.000 A 
ATOM     23  C   UNL     1       4.198   4.137  18.604  0.00  0.00    +0.000 A 
ATOM     24  C   UNL     1       3.388   3.978  19.745  0.00  0.00    +0.000 A 
BRANCH  19  26
ATOM     25  C   UNL     1       1.606   2.707  21.989  0.00  0.00    +0.000 C 
ATOM     26  C   UNL     1       1.176   3.645  20.869  0.00  0.00    +0.000 C 
ENDBRANCH  19  26
ENDBRANCH  17  22
ENDBRANCH   1  17
TORSDOF 4
ENDMDL
MODEL 3
REMARK VINA RESULT:      -8.8      3.102      6.527
REMARK  Name = 
REMARK  5 active torsions:
REMARK  status: ('A' for Active; 'I' for Inactive)
REMARK    1  A    between atoms: C_1  and  C_2
REMARK    2  A    between atoms: C_2  and  C_3
REMARK    3  A    between atoms: C_6  and  N_7
REMARK    4  A    between atoms: N_7  and  C_8
REMARK    5  A    between atoms: C_15  and  C_16
REMARK                            x       y       z     vdW  Elec       q    Type
REMARK                         _______ _______ _______ _____ _____    ______ ____
ROOT
ATOM      1  C   UNL     1       5.500   6.157  16.099  0.00  0.00    +0.000 A 
ATOM      2  C   UNL     1       6.193   5.495  15.063  0.00  0.00    +0.000 A 
ATOM      3  C   UNL     1       7.137   4.612  15.565  0.00  0.00    +0.000 A 
ATOM      4  N   UNL     1       7.512   4.633  16.871  0.00  0.00    +0.000 NA
ATOM      5  C   UNL     1       7.241   5.768  17.562  0.00  0.00    +0.000 A 
ATOM      6  C   UNL     1       7.964   6.076  18.681  0.00  0.00    +0.000 A 
ATOM      7  C   UNL     1       8.281   7.403  18.988  0.00  0.00    +0.000 A 
ATOM      8  C   UNL     1       7.947   8.478  18.150  0.00  0.00    +0.000 A 
ATOM      9  C   UNL     1       6.927   8.139  17.208  0.00  0.00    +0.000 A 
ATOM     10  C   UNL     1       6.412   6.743  17.036  0.00  0.00    +0.000 A 
ENDROOT
BRANCH   8  11
ATOM     11  C   UNL     1       8.768   9.748  18.340  0.00  0.00    +0.000 A 
ATOM     12  C   UNL     1       9.596  10.020  19.446  0.00  0.00    +0.000 A 
ATOM     13  C   UNL     1      10.029  11.345  19.746  0.00  0.00    +0.000 A 
ATOM     14  C   UNL     1       9.650  12.435  18.961  0.00  0.00    +0.000 A 
ATOM     15  C   UNL     1       8.900  12.194  17.826  0.00  0.00    +0.000 A 
ATOM     16  C   UNL     1       8.503  10.880  17.514  0.00  0.00    +0.000 A 
ENDBRANCH   8  11
BRANCH   1  17
ATOM     17  N   UNL     1       4.539   4.947  16.607  0.00  0.00    +0.000 N 
ATOM     18  H   UNL     1       5.273   4.385  17.073  0.00  0.00    +0.000 HD
BRANCH  17  22
ATOM     19  C   UNL     1       1.749   3.478  19.526  0.00  0.00    +0.000 A 
ATOM     20  C   UNL     1       2.510   4.630  19.790  0.00  0.00    +0.000 A 
ATOM     21  C   UNL     1       3.390   5.199  18.840  0.00  0.00    +0.000 A 
ATOM     22  C   UNL     1       3.529   4.656  17.574  0.00  0.00    +0.000 A 
ATOM     23  C   UNL     1       2.687   3.550  17.279  0.00  0.00    +0.000 A 
ATOM     24  C   UNL     1       1.824   2.965  18.226  0.00  0.00    +0.000 A 
BRANCH  19  26
ATOM     25  C   UNL     1       1.476   2.545  21.939  0.00  0.00    +0.000 C 
ATOM     26  C   UNL     1       0.902   2.728  20.541  0.00  0.00    +0.000 C 
ENDBRANCH  19  26
ENDBRANCH  17  22
ENDBRANCH   1  17
TORSDOF 4
ENDMDL
MODEL 4
REMARK VINA RESULT:      -8.6      2.998      6.541
REMARK  Name = 
REMARK  5 active torsions:
REMARK  status: ('A' for Active; 'I' for Inactive)
REMARK    1  A    between atoms: C_1  and  C_2
REMARK    2  A    between atoms: C_2  and  C_3
REMARK    3  A    between atoms: C_6  and  N_7
REMARK    4  A    between atoms: N_7  and  C_8
REMARK    5  A    between atoms: C_15  and  C_16
REMARK                            x       y       z     vdW  Elec       q    Type
REMARK                         _______ _______ _______ _____ _____    ______ ____
ROOT
ATOM      1  C   UNL     1       5.528   6.020  16.013  0.00  0.00    +0.000 A 
ATOM      2  C   UNL     1       6.235   5.463  14.926  0.00  0.00    +0.000 A 
ATOM      3  C   UNL     1       7.231   4.599  15.355  0.00  0.00    +0.000 A 
ATOM      4  N   UNL     1       7.628   4.556  16.654  0.00  0.00    +0.000 NA
ATOM      5  C   UNL     1       7.312   5.628  17.422  0.00  0.00    +0.000 A 
ATOM      6  C   UNL     1       8.039   5.900  18.548  0.00  0.00    +0.000 A 
ATOM      7  C   UNL     1       8.293   7.220  18.936  0.00  0.00    +0.000 A 
ATOM      8  C   UNL     1       7.890   8.328  18.175  0.00  0.00    +0.000 A 
ATOM      9  C   UNL     1       6.872   7.998  17.228  0.00  0.00    +0.000 A 
ATOM     10  C   UNL     1       6.425   6.591  16.973  0.00  0.00    +0.000 A 
ENDROOT
BRANCH   8  11
ATOM     11  C   UNL     1       8.649   9.623  18.436  0.00  0.00    +0.000 A 
ATOM     12  C   UNL     1       9.204  10.453  17.443  0.00  0.00    +0.000 A 
ATOM     13  C   UNL     1      10.202  11.422  17.752  0.00  0.00    +0.000 A 
ATOM     14  C   UNL     1      10.680  11.593  19.053  0.00  0.00    +0.000 A 
ATOM     15  C   UNL     1      10.104  10.848  20.064  0.00  0.00    +0.000 A 
ATOM     16  C   UNL     1       9.094   9.915  19.759  0.00  0.00    +0.000 A 
ENDBRANCH   8  11
BRANCH   1  17
ATOM     17  N   UNL     1       4.639   4.731  16.454  0.00  0.00    +0.000 N 
ATOM     18  H   UNL     1       5.366   4.260  17.019  0.00  0.00    +0.000 HD
BRANCH  17  22
ATOM     19  C   UNL     1       1.842   3.530  19.486  0.00  0.00    +0.000 A 
ATOM     20  C   UNL     1       1.678   4.756  18.817  0.00  0.00    +0.000 A 
ATOM     21  C   UNL     1       2.526   5.170  17.764  0.00  0.00    +0.000 A 
ATOM     22  C   UNL     1       3.558   4.365  17.313  0.00  0.00    +0.000 A 
ATOM     23  C   UNL     1       3.659   3.087  17.926  0.00  0.00    +0.000 A 
ATOM     24  C   UNL     1       2.833   2.676  18.990  0.00  0.00    +0.000 A 
BRANCH  19  26
ATOM     25  C   UNL     1       1.871   2.571  21.905  0.00  0.00    +0.000 C 
ATOM     26  C   UNL     1       1.069   3.087  20.718  0.00  0.00    +0.000 C 
ENDBRANCH  19  26
ENDBRANCH  17  22
ENDBRANCH   1  17
TORSDOF 4
ENDMDL
MODEL 5
REMARK VINA RESULT:      -8.5      0.752      1.341
REMARK  Name = 
REMARK  5 active torsions:
REMARK  status: ('A' for Active; 'I' for Inactive)
REMARK    1  A    between atoms: C_1  and  C_2
REMARK    2  A    between atoms: C_2  and  C_3
REMARK    3  A    between atoms: C_6  and  N_7
REMARK    4  A    between atoms: N_7  and  C_8
REMARK    5  A    between atoms: C_15  and  C_16
REMARK                            x       y       z     vdW  Elec       q    Type
REMARK                         _______ _______ _______ _____ _____    ______ ____
ROOT
ATOM      1  C   UNL     1       6.466   6.798  16.810  0.00  0.00    +0.000 A 
ATOM      2  C   UNL     1       7.401   6.462  17.813  0.00  0.00    +0.000 A 
ATOM      3  C   UNL     1       7.118   5.228  18.379  0.00  0.00    +0.000 A 
ATOM      4  N   UNL     1       5.929   4.603  18.173  0.00  0.00    +0.000 NA
ATOM      5  C   UNL     1       4.904   5.377  17.737  0.00  0.00    +0.000 A 
ATOM      6  C   UNL     1       3.612   4.982  17.950  0.00  0.00    +0.000 A 
ATOM      7  C   UNL     1       2.611   5.921  18.224  0.00  0.00    +0.000 A 
ATOM      8  C   UNL     1       2.873   7.292  18.366  0.00  0.00    +0.000 A 
ATOM      9  C   UNL     1       4.133   7.668  17.808  0.00  0.00    +0.000 A 
ATOM     10  C   UNL     1       5.124   6.669  17.293  0.00  0.00    +0.000 A 
ENDROOT
BRANCH   8  11
ATOM     11  C   UNL     1       1.829   8.090  19.139  0.00  0.00    +0.000 A 
ATOM     12  C   UNL     1       1.265   9.309  18.719  0.00  0.00    +0.000 A 
ATOM     13  C   UNL     1       0.597  10.176  19.632  0.00  0.00    +0.000 A 
ATOM     14  C   UNL     1       0.474   9.860  20.986  0.00  0.00    +0.000 A 
ATOM     15  C   UNL     1       0.950   8.637  21.419  0.00  0.00    +0.000 A 
ATOM     16  C   UNL     1       1.579   7.768  20.506  0.00  0.00    +0.000 A 
ENDBRANCH   8  11
BRANCH   1  17
ATOM     17  N   UNL     1       6.962   5.803  15.623  0.00  0.00    +0.000 N 
ATOM     18  H   UNL     1       7.104   4.962  16.211  0.00  0.00    +0.000 HD
BRANCH  17  22
ATOM     19  C   UNL     1       5.983   3.247  12.312  0.00  0.00    +0.000 A 
ATOM     20  C   UNL     1       5.032   3.501  13.315  0.00  0.00    +0.000 A 
ATOM     21  C   UNL     1       5.274   4.388  14.389  0.00  0.00    +0.000 A 
ATOM     22  C   UNL     1       6.468   5.082  14.494  0.00  0.00    +0.000 A 
ATOM     23  C   UNL     1       7.387   4.895  13.426  0.00  0.00    +0.000 A 
ATOM     24  C   UNL     1       7.162   3.998  12.365  0.00  0.00    +0.000 A 
BRANCH  19  26
ATOM     25  C   UNL     1       7.012   1.233  11.025  0.00  0.00    +0.000 C 
ATOM     26  C   UNL     1       5.852   2.200  11.217  0.00  0.00    +0.000 C 
ENDBRANCH  19  26
ENDBRANCH  17  22
ENDBRANCH   1  17
TORSDOF 4
ENDMDL
MODEL 6
REMARK VINA RESULT:      -8.5      0.441      1.042
REMARK  Name = 
REMARK  5 active torsions:
REMARK  status: ('A' for Active; 'I' for Inactive)
REMARK    1  A    between atoms: C_1  and  C_2
REMARK    2  A    between atoms: C_2  and  C_3
REMARK    3  A    between atoms: C_6  and  N_7
REMARK    4  A    between atoms: N_7  and  C_8
REMARK    5  A    between atoms: C_15  and  C_16
REMARK                            x       y       z     vdW  Elec       q    Type
REMARK                         _______ _______ _______ _____ _____    ______ ____
ROOT
ATOM      1  C   UNL     1       6.734   6.797  16.933  0.00  0.00    +0.000 A 
ATOM      2  C   UNL     1       7.634   6.746  18.019  0.00  0.00    +0.000 A 
ATOM      3  C   UNL     1       7.344   5.692  18.872  0.00  0.00    +0.000 A 
ATOM      4  N   UNL     1       6.169   5.013  18.794  0.00  0.00    +0.000 NA
ATOM      5  C   UNL     1       5.154   5.630  18.141  0.00  0.00    +0.000 A 
ATOM      6  C   UNL     1       3.858   5.278  18.405  0.00  0.00    +0.000 A 
ATOM      7  C   UNL     1       2.838   6.235  18.396  0.00  0.00    +0.000 A 
ATOM      8  C   UNL     1       3.081   7.602  18.192  0.00  0.00    +0.000 A 
ATOM      9  C   UNL     1       4.357   7.848  17.598  0.00  0.00    +0.000 A 
ATOM     10  C   UNL     1       5.376   6.769  17.389  0.00  0.00    +0.000 A 
ENDROOT
BRANCH   8  11
ATOM     11  C   UNL     1       2.001   8.550  18.701  0.00  0.00    +0.000 A 
ATOM     12  C   UNL     1       1.491   8.570  20.013  0.00  0.00    +0.000 A 
ATOM     13  C   UNL     1       0.252   9.200  20.323  0.00  0.00    +0.000 A 
ATOM     14  C   UNL     1      -0.518   9.826  19.341  0.00  0.00    +0.000 A 
ATOM     15  C   UNL     1      -0.013   9.891  18.056  0.00  0.00    +0.000 A 
ATOM     16  C   UNL     1       1.229   9.296  17.761  0.00  0.00    +0.000 A 
ENDBRANCH   8  11
BRANCH   1  17
ATOM     17  N   UNL     1       7.283   5.542  16.057  0.00  0.00    +0.000 N 
ATOM     18  H   UNL     1       7.003   4.793  16.715  0.00  0.00    +0.000 HD
BRANCH  17  22
ATOM     19  C   UNL     1       5.808   3.553  12.546  0.00  0.00    +0.000 A 
ATOM     20  C   UNL     1       7.001   4.296  12.491  0.00  0.00    +0.000 A 
ATOM     21  C   UNL     1       7.570   4.912  13.630  0.00  0.00    +0.000 A 
ATOM     22  C   UNL     1       6.987   4.790  14.880  0.00  0.00    +0.000 A 
ATOM     23  C   UNL     1       5.836   3.959  14.947  0.00  0.00    +0.000 A 
ATOM     24  C   UNL     1       5.251   3.360  13.815  0.00  0.00    +0.000 A 
BRANCH  19  26
ATOM     25  C   UNL     1       3.627   3.456  11.130  0.00  0.00    +0.000 C 
ATOM     26  C   UNL     1       5.062   2.993  11.346  0.00  0.00    +0.000 C 
ENDBRANCH  19  26
ENDBRANCH  17  22
ENDBRANCH   1  17
TORSDOF 4
ENDMDL
MODEL 7
REMARK VINA RESULT:      -8.3      1.641      8.068
REMARK  Name = 
REMARK  5 active torsions:
REMARK  status: ('A' for Active; 'I' for Inactive)
REMARK    1  A    between atoms: C_1  and  C_2
REMARK    2  A    between atoms: C_2  and  C_3
REMARK    3  A    between atoms: C_6  and  N_7
REMARK    4  A    between atoms: N_7  and  C_8
REMARK    5  A    between atoms: C_15  and  C_16
REMARK                            x       y       z     vdW  Elec       q    Type
REMARK                         _______ _______ _______ _____ _____    ______ ____
ROOT
ATOM      1  C   UNL     1       2.989   4.143  18.291  0.00  0.00    +0.000 A 
ATOM      2  C   UNL     1       3.139   2.903  18.947  0.00  0.00    +0.000 A 
ATOM      3  C   UNL     1       4.283   2.878  19.732  0.00  0.00    +0.000 A 
ATOM      4  N   UNL     1       5.248   3.828  19.619  0.00  0.00    +0.000 NA
ATOM      5  C   UNL     1       5.250   4.557  18.476  0.00  0.00    +0.000 A 
ATOM      6  C   UNL     1       6.400   5.171  18.060  0.00  0.00    +0.000 A 
ATOM      7  C   UNL     1       6.706   5.275  16.699  0.00  0.00    +0.000 A 
ATOM      8  C   UNL     1       5.908   4.706  15.694  0.00  0.00    +0.000 A 
ATOM      9  C   UNL     1       4.592   4.393  16.155  0.00  0.00    +0.000 A 
ATOM     10  C   UNL     1       4.186   4.504  17.593  0.00  0.00    +0.000 A 
ENDROOT
BRANCH   8  11
ATOM     11  C   UNL     1       6.600   4.459  14.359  0.00  0.00    +0.000 A 
ATOM     12  C   UNL     1       7.568   5.301  13.779  0.00  0.00    +0.000 A 
ATOM     13  C   UNL     1       7.891   5.223  12.393  0.00  0.00    +0.000 A 
ATOM     14  C   UNL     1       7.263   4.310  11.544  0.00  0.00    +0.000 A 
ATOM     15  C   UNL     1       6.362   3.418  12.094  0.00  0.00    +0.000 A 
ATOM     16  C   UNL     1       6.070   3.477  13.471  0.00  0.00    +0.000 A 
ENDBRANCH   8  11
BRANCH   1  17
ATOM     17  N   UNL     1       2.514   5.065  19.543  0.00  0.00    +0.000 N 
ATOM     18  H   UNL     1       3.415   5.064  20.053  0.00  0.00    +0.000 HD
BRANCH  17  22
ATOM     19  C   UNL     1       1.138   9.107  20.018  0.00  0.00    +0.000 A 
ATOM     20  C   UNL     1       1.048   8.199  21.087  0.00  0.00    +0.000 A 
ATOM     21  C   UNL     1       1.549   6.878  21.011  0.00  0.00    +0.000 A 
ATOM     22  C   UNL     1       2.187   6.416  19.872  0.00  0.00    +0.000 A 
ATOM     23  C   UNL     1       2.360   7.367  18.831  0.00  0.00    +0.000 A 
ATOM     24  C   UNL     1       1.847   8.677  18.891  0.00  0.00    +0.000 A 
BRANCH  19  26
ATOM     25  C   UNL     1      -0.021  11.063  21.285  0.00  0.00    +0.000 C 
ATOM     26  C   UNL     1       0.494  10.484  19.974  0.00  0.00    +0.000 C 
ENDBRANCH  19  26
ENDBRANCH  17  22
ENDBRANCH   1  17
TORSDOF 4
ENDMDL
MODEL 8
REMARK VINA RESULT:      -8.3      0.813      1.661
REMARK  Name = 
REMARK  5 active torsions:
REMARK  status: ('A' for Active; 'I' for Inactive)
REMARK    1  A    between atoms: C_1  and  C_2
REMARK    2  A    between atoms: C_2  and  C_3
REMARK    3  A    between atoms: C_6  and  N_7
REMARK    4  A    between atoms: N_7  and  C_8
REMARK    5  A    between atoms: C_15  and  C_16
REMARK                            x       y       z     vdW  Elec       q    Type
REMARK                         _______ _______ _______ _____ _____    ______ ____
ROOT
ATOM      1  C   UNL     1       6.403   6.766  16.781  0.00  0.00    +0.000 A 
ATOM      2  C   UNL     1       7.278   6.444  17.840  0.00  0.00    +0.000 A 
ATOM      3  C   UNL     1       6.874   5.295  18.503  0.00  0.00    +0.000 A 
ATOM      4  N   UNL     1       5.640   4.757  18.313  0.00  0.00    +0.000 NA
ATOM      5  C   UNL     1       4.699   5.573  17.777  0.00  0.00    +0.000 A 
ATOM      6  C   UNL     1       3.372   5.311  17.980  0.00  0.00    +0.000 A 
ATOM      7  C   UNL     1       2.451   6.352  18.137  0.00  0.00    +0.000 A 
ATOM      8  C   UNL     1       2.828   7.703  18.167  0.00  0.00    +0.000 A 
ATOM      9  C   UNL     1       4.131   7.918  17.621  0.00  0.00    +0.000 A 
ATOM     10  C   UNL     1       5.043   6.796  17.229  0.00  0.00    +0.000 A 
ENDROOT
BRANCH   8  11
ATOM     11  C   UNL     1       1.839   8.653  18.832  0.00  0.00    +0.000 A 
ATOM     12  C   UNL     1       1.421   8.579  20.174  0.00  0.00    +0.000 A 
ATOM     13  C   UNL     1       0.241   9.239  20.626  0.00  0.00    +0.000 A 
ATOM     14  C   UNL     1      -0.558   9.988  19.759  0.00  0.00    +0.000 A 
ATOM     15  C   UNL     1      -0.137  10.143  18.452  0.00  0.00    +0.000 A 
ATOM     16  C   UNL     1       1.048   9.517  18.019  0.00  0.00    +0.000 A 
ENDBRANCH   8  11
BRANCH   1  17
ATOM     17  N   UNL     1       6.840   5.629  15.704  0.00  0.00    +0.000 N 
ATOM     18  H   UNL     1       6.717   4.810  16.324  0.00  0.00    +0.000 HD
BRANCH  17  22
ATOM     19  C   UNL     1       5.926   3.241  12.251  0.00  0.00    +0.000 A 
ATOM     20  C   UNL     1       4.952   3.454  13.242  0.00  0.00    +0.000 A 
ATOM     21  C   UNL     1       5.173   4.288  14.363  0.00  0.00    +0.000 A 
ATOM     22  C   UNL     1       6.369   4.967  14.529  0.00  0.00    +0.000 A 
ATOM     23  C   UNL     1       7.312   4.824  13.476  0.00  0.00    +0.000 A 
ATOM     24  C   UNL     1       7.108   3.980  12.368  0.00  0.00    +0.000 A 
BRANCH  19  26
ATOM     25  C   UNL     1       6.787   1.076  11.091  0.00  0.00    +0.000 C 
ATOM     26  C   UNL     1       5.815   2.248  11.105  0.00  0.00    +0.000 C 
ENDBRANCH  19  26
ENDBRANCH  17  22
ENDBRANCH   1  17
TORSDOF 4
ENDMDL
MODEL 9
REMARK VINA RESULT:      -8.1      1.592      8.538
REMARK  Name = 
REMARK  5 active torsions:
REMARK  status: ('A' for Active; 'I' for Inactive)
REMARK    1  A    between atoms: C_1  and  C_2
REMARK    2  A    between atoms: C_2  and  C_3
REMARK    3  A    between atoms: C_6  and  N_7
REMARK    4  A    between atoms: N_7  and  C_8
REMARK    5  A    between atoms: C_15  and  C_16
REMARK                            x       y       z     vdW  Elec       q    Type
REMARK                         _______ _______ _______ _____ _____    ______ ____
ROOT
ATOM      1  C   UNL     1       2.840   5.926  18.222  0.00  0.00    +0.000 A 
ATOM      2  C   UNL     1       2.564   4.753  18.957  0.00  0.00    +0.000 A 
ATOM      3  C   UNL     1       3.604   4.436  19.819  0.00  0.00    +0.000 A 
ATOM      4  N   UNL     1       4.822   5.032  19.718  0.00  0.00    +0.000 NA
ATOM      5  C   UNL     1       5.106   5.636  18.538  0.00  0.00    +0.000 A 
ATOM      6  C   UNL     1       6.408   5.833  18.168  0.00  0.00    +0.000 A 
ATOM      7  C   UNL     1       6.796   5.734  16.827  0.00  0.00    +0.000 A 
ATOM      8  C   UNL     1       5.909   5.364  15.805  0.00  0.00    +0.000 A 
ATOM      9  C   UNL     1       4.541   5.508  16.190  0.00  0.00    +0.000 A 
ATOM     10  C   UNL     1       4.122   5.847  17.589  0.00  0.00    +0.000 A 
ENDROOT
BRANCH   8  11
ATOM     11  C   UNL     1       6.552   4.817  14.536  0.00  0.00    +0.000 A 
ATOM     12  C   UNL     1       7.595   5.437  13.822  0.00  0.00    +0.000 A 
ATOM     13  C   UNL     1       7.889   5.084  12.473  0.00  0.00    +0.000 A 
ATOM     14  C   UNL     1       7.156   4.110  11.793  0.00  0.00    +0.000 A 
ATOM     15  C   UNL     1       6.173   3.429  12.487  0.00  0.00    +0.000 A 
ATOM     16  C   UNL     1       5.909   3.757  13.830  0.00  0.00    +0.000 A 
ENDBRANCH   8  11
BRANCH   1  17
ATOM     17  N   UNL     1       2.617   7.041  19.385  0.00  0.00    +0.000 N 
ATOM     18  H   UNL     1       3.355   7.698  19.076  0.00  0.00    +0.000 HD
BRANCH  17  22
ATOM     19  C   UNL     1       0.281  10.218  21.090  0.00  0.00    +0.000 A 
ATOM     20  C   UNL     1       0.665  10.269  19.738  0.00  0.00    +0.000 A 
ATOM     21  C   UNL     1       1.373   9.220  19.107  0.00  0.00    +0.000 A 
ATOM     22  C   UNL     1       1.704   8.062  19.790  0.00  0.00    +0.000 A 
ATOM     23  C   UNL     1       1.230   7.976  21.127  0.00  0.00    +0.000 A 
ATOM     24  C   UNL     1       0.544   9.024  21.769  0.00  0.00    +0.000 A 
BRANCH  19  26
ATOM     25  C   UNL     1      -1.189  11.005  23.088  0.00  0.00    +0.000 C 
ATOM     26  C   UNL     1      -0.345  11.362  21.872  0.00  0.00    +0.000 C 
ENDBRANCH  19  26
ENDBRANCH  17  22
ENDBRANCH   1  17
TORSDOF 4
ENDMDL
