MODEL 1
REMARK VINA RESULT:      -8.5      0.000      0.000
REMARK  Name = 
REMARK  7 active torsions:
REMARK  status: ('A' for Active; 'I' for Inactive)
REMARK    1  A    between atoms: C_1  and  C_2
REMARK    2  A    between atoms: C_5  and  C_6
REMARK    3  A    between atoms: N_7  and  N_8
REMARK    4  A    between atoms: C_9  and  C_11
REMARK    5  A    between atoms: C_11  and  N_12
REMARK    6  A    between atoms: C_15  and  C_16
REMARK    7  A    between atoms: C_17  and  C_18
REMARK                            x       y       z     vdW  Elec       q    Type
REMARK                         _______ _______ _______ _____ _____    ______ ____
ROOT
ATOM      1  C   UNL     1       4.377   5.785  16.875  0.00  0.00    +0.000 C 
ENDROOT
BRANCH   1   2
ATOM      2  N   UNL     1       5.682   6.389  16.831  0.00  0.00    +0.000 N 
ATOM      3  N   UNL     1       6.657   5.921  16.036  0.00  0.00    +0.000 NA
ATOM      4  N   UNL     1       7.734   6.610  16.381  0.00  0.00    +0.000 NA
ATOM      5  C   UNL     1       7.358   7.444  17.406  0.00  0.00    +0.000 A 
ATOM      6  N   UNL     1       6.062   7.321  17.734  0.00  0.00    +0.000 NA
BRANCH   5   7
ATOM      7  C   UNL     1       8.313   8.295  18.040  0.00  0.00    +0.000 C 
ATOM      8  C   UNL     1       8.262   9.637  18.034  0.00  0.00    +0.000 C 
BRANCH   8   9
ATOM      9  C   UNL     1       9.251  10.540  18.644  0.00  0.00    +0.000 A 
ATOM     10  C   UNL     1       9.222  10.706  20.036  0.00  0.00    +0.000 A 
ATOM     11  C   UNL     1      10.157  11.517  20.681  0.00  0.00    +0.000 A 
ATOM     12  C   UNL     1      11.141  12.168  19.943  0.00  0.00    +0.000 A 
ATOM     13  C   UNL     1      11.191  12.004  18.559  0.00  0.00    +0.000 A 
ATOM     14  C   UNL     1      10.253  11.190  17.912  0.00  0.00    +0.000 A 
ENDBRANCH   8   9
ENDBRANCH   5   7
ENDBRANCH   1   2
BRANCH   1  16
ATOM     15  N   UNL     1       2.924   7.502  17.830  0.00  0.00    +0.000 N 
ATOM     16  C   UNL     1       3.602   6.306  18.050  0.00  0.00    +0.000 C 
ATOM     17  O   UNL     1       3.613   5.704  19.125  0.00  0.00    +0.000 OA
ATOM     18  H   UNL     1       2.866   7.944  16.915  0.00  0.00    +0.000 HD
BRANCH  15  20
ATOM     19  C   UNL     1       1.564   9.111  18.730  0.00  0.00    +0.000 C 
ATOM     20  N   UNL     1       2.233   8.016  18.877  0.00  0.00    +0.000 NA
BRANCH  19  25
ATOM     21  C   UNL     1      -1.436  11.271  23.186  0.00  0.00    +0.000 C 
ATOM     22  C   UNL     1      -0.653  10.708  22.036  0.00  0.00    +0.000 A 
ATOM     23  C   UNL     1      -0.484  11.451  20.865  0.00  0.00    +0.000 A 
ATOM     24  C   UNL     1       0.238  10.925  19.795  0.00  0.00    +0.000 A 
ATOM     25  C   UNL     1       0.801   9.646  19.881  0.00  0.00    +0.000 A 
ATOM     26  C   UNL     1       0.641   8.892  21.045  0.00  0.00    +0.000 A 
ATOM     27  C   UNL     1      -0.085   9.427  22.119  0.00  0.00    +0.000 A 
ENDBRANCH  19  25
ENDBRANCH  15  20
ENDBRANCH   1  16
TORSDOF 6
ENDMDL
MODEL 2
REMARK VINA RESULT:      -8.2      1.902      7.890
REMARK  Name = 
REMARK  7 active torsions:
REMARK  status: ('A' for Active; 'I' for Inactive)
REMARK    1  A    between atoms: C_1  and  C_2
REMARK    2  A    between atoms: C_5  and  C_6
REMARK    3  A    between atoms: N_7  and  N_8
REMARK    4  A    between atoms: C_9  and  C_11
REMARK    5  A    between atoms: C_11  and  N_12
REMARK    6  A    between atoms: C_15  and  C_16
REMARK    7  A    between atoms: C_17  and  C_18
REMARK                            x       y       z     vdW  Elec       q    Type
REMARK                         _______ _______ _______ _____ _____    ______ ____
ROOT
ATOM      1  C   UNL     1       7.089   4.601  17.953  0.00  0.00    +0.000 C 
ENDROOT
BRANCH   1   2
ATOM      2  N   UNL     1       5.674   4.810  17.798  0.00  0.00    +0.000 N 
ATOM      3  N   UNL     1       4.961   4.185  16.847  0.00  0.00    +0.000 NA
ATOM      4  N   UNL     1       3.760   4.739  16.907  0.00  0.00    +0.000 NA
ATOM      5  C   UNL     1       3.819   5.709  17.877  0.00  0.00    +0.000 A 
ATOM      6  N   UNL     1       5.027   5.797  18.458  0.00  0.00    +0.000 NA
BRANCH   5   7
ATOM      7  C   UNL     1       2.686   6.531  18.156  0.00  0.00    +0.000 C 
ATOM      8  C   UNL     1       2.752   7.796  18.605  0.00  0.00    +0.000 C 
BRANCH   8   9
ATOM      9  C   UNL     1       1.604   8.654  18.939  0.00  0.00    +0.000 A 
ATOM     10  C   UNL     1       1.174   8.689  20.273  0.00  0.00    +0.000 A 
ATOM     11  C   UNL     1       0.117   9.512  20.664  0.00  0.00    +0.000 A 
ATOM     12  C   UNL     1      -0.519  10.320  19.726  0.00  0.00    +0.000 A 
ATOM     13  C   UNL     1      -0.096  10.305  18.399  0.00  0.00    +0.000 A 
ATOM     14  C   UNL     1       0.964   9.479  18.006  0.00  0.00    +0.000 A 
ENDBRANCH   8   9
ENDBRANCH   5   7
ENDBRANCH   1   2
BRANCH   1  16
ATOM     15  N   UNL     1       7.661   6.976  17.911  0.00  0.00    +0.000 N 
ATOM     16  C   UNL     1       7.718   5.784  18.629  0.00  0.00    +0.000 C 
ATOM     17  O   UNL     1       8.260   5.663  19.728  0.00  0.00    +0.000 OA
ATOM     18  H   UNL     1       7.144   7.072  17.040  0.00  0.00    +0.000 HD
BRANCH  15  20
ATOM     19  C   UNL     1       8.266   9.184  17.842  0.00  0.00    +0.000 C 
ATOM     20  N   UNL     1       8.240   8.062  18.480  0.00  0.00    +0.000 NA
BRANCH  19  25
ATOM     21  C   UNL     1      10.721  13.743  20.433  0.00  0.00    +0.000 C 
ATOM     22  C   UNL     1      10.079  12.566  19.759  0.00  0.00    +0.000 A 
ATOM     23  C   UNL     1      10.062  11.316  20.384  0.00  0.00    +0.000 A 
ATOM     24  C   UNL     1       9.471  10.223  19.754  0.00  0.00    +0.000 A 
ATOM     25  C   UNL     1       8.888  10.363  18.489  0.00  0.00    +0.000 A 
ATOM     26  C   UNL     1       8.897  11.606  17.853  0.00  0.00    +0.000 A 
ATOM     27  C   UNL     1       9.492  12.703  18.491  0.00  0.00    +0.000 A 
ENDBRANCH  19  25
ENDBRANCH  15  20
ENDBRANCH   1  16
TORSDOF 6
ENDMDL
MODEL 3
REMARK VINA RESULT:      -8.1      1.761      7.979
REMARK  Name = 
REMARK  7 active torsions:
REMARK  status: ('A' for Active; 'I' for Inactive)
REMARK    1  A    between atoms: C_1  and  C_2
REMARK    2  A    between atoms: C_5  and  C_6
REMARK    3  A    between atoms: N_7  and  N_8
REMARK    4  A    between atoms: C_9  and  C_11
REMARK    5  A    between atoms: C_11  and  N_12
REMARK    6  A    between atoms: C_15  and  C_16
REMARK    7  A    between atoms: C_17  and  C_18
REMARK                            x       y       z     vdW  Elec       q    Type
REMARK                         _______ _______ _______ _____ _____    ______ ____
ROOT
ATOM      1  C   UNL     1       6.844   4.626  17.937  0.00  0.00    +0.000 C 
ENDROOT
BRANCH   1   2
ATOM      2  N   UNL     1       5.436   4.924  17.905  0.00  0.00    +0.000 N 
ATOM      3  N   UNL     1       4.540   4.075  17.376  0.00  0.00    +0.000 NA
ATOM      4  N   UNL     1       3.399   4.746  17.377  0.00  0.00    +0.000 NA
ATOM      5  C   UNL     1       3.673   5.995  17.878  0.00  0.00    +0.000 A 
ATOM      6  N   UNL     1       4.965   6.155  18.210  0.00  0.00    +0.000 NA
BRANCH   5   7
ATOM      7  C   UNL     1       2.650   6.987  17.965  0.00  0.00    +0.000 C 
ATOM      8  C   UNL     1       2.387   7.718  19.061  0.00  0.00    +0.000 C 
BRANCH   8   9
ATOM      9  C   UNL     1       1.315   8.717  19.194  0.00  0.00    +0.000 A 
ATOM     10  C   UNL     1       0.921   9.092  20.486  0.00  0.00    +0.000 A 
ATOM     11  C   UNL     1      -0.061  10.064  20.683  0.00  0.00    +0.000 A 
ATOM     12  C   UNL     1      -0.658  10.681  19.587  0.00  0.00    +0.000 A 
ATOM     13  C   UNL     1      -0.269  10.328  18.296  0.00  0.00    +0.000 A 
ATOM     14  C   UNL     1       0.717   9.353  18.100  0.00  0.00    +0.000 A 
ENDBRANCH   8   9
ENDBRANCH   5   7
ENDBRANCH   1   2
BRANCH   1  16
ATOM     15  N   UNL     1       7.642   6.935  17.861  0.00  0.00    +0.000 N 
ATOM     16  C   UNL     1       7.597   5.749  18.589  0.00  0.00    +0.000 C 
ATOM     17  O   UNL     1       8.146   5.584  19.680  0.00  0.00    +0.000 OA
ATOM     18  H   UNL     1       7.119   7.074  16.999  0.00  0.00    +0.000 HD
BRANCH  15  20
ATOM     19  C   UNL     1       8.201   9.155  17.927  0.00  0.00    +0.000 C 
ATOM     20  N   UNL     1       8.334   7.964  18.408  0.00  0.00    +0.000 NA
BRANCH  19  25
ATOM     21  C   UNL     1      11.140  13.548  20.293  0.00  0.00    +0.000 C 
ATOM     22  C   UNL     1      10.382  12.405  19.684  0.00  0.00    +0.000 A 
ATOM     23  C   UNL     1      10.046  12.422  18.328  0.00  0.00    +0.000 A 
ATOM     24  C   UNL     1       9.337  11.362  17.765  0.00  0.00    +0.000 A 
ATOM     25  C   UNL     1       8.953  10.269  18.551  0.00  0.00    +0.000 A 
ATOM     26  C   UNL     1       9.283  10.237  19.908  0.00  0.00    +0.000 A 
ATOM     27  C   UNL     1       9.997  11.306  20.469  0.00  0.00    +0.000 A 
ENDBRANCH  19  25
ENDBRANCH  15  20
ENDBRANCH   1  16
TORSDOF 6
ENDMDL
MODEL 4
REMARK VINA RESULT:      -8.0      4.737      5.737
REMARK  Name = 
REMARK  7 active torsions:
REMARK  status: ('A' for Active; 'I' for Inactive)
REMARK    1  A    between atoms: C_1  and  C_2
REMARK    2  A    between atoms: C_5  and  C_6
REMARK    3  A    between atoms: N_7  and  N_8
REMARK    4  A    between atoms: C_9  and  C_11
REMARK    5  A    between atoms: C_11  and  N_12
REMARK    6  A    between atoms: C_15  and  C_16
REMARK    7  A    between atoms: C_17  and  C_18
REMARK                            x       y       z     vdW  Elec       q    Type
REMARK                         _______ _______ _______ _____ _____    ______ ____
ROOT
ATOM      1  C   UNL     1       2.881   3.593  20.342  0.00  0.00    +0.000 C 
ENDROOT
BRANCH   1   2
ATOM      2  N   UNL     1       4.045   3.845  19.535  0.00  0.00    +0.000 N 
ATOM      3  N   UNL     1       5.226   4.184  20.075  0.00  0.00    +0.000 NA
ATOM      4  N   UNL     1       5.995   4.488  19.041  0.00  0.00    +0.000 NA
ATOM      5  C   UNL     1       5.218   4.353  17.916  0.00  0.00    +0.000 A 
ATOM      6  N   UNL     1       3.963   3.961  18.190  0.00  0.00    +0.000 NA
BRANCH   5   7
ATOM      7  C   UNL     1       5.744   4.659  16.625  0.00  0.00    +0.000 C 
ATOM      8  C   UNL     1       5.804   3.792  15.600  0.00  0.00    +0.000 C 
BRANCH   8   9
ATOM      9  C   UNL     1       6.377   4.065  14.273  0.00  0.00    +0.000 A 
ATOM     10  C   UNL     1       5.855   3.368  13.174  0.00  0.00    +0.000 A 
ATOM     11  C   UNL     1       6.325   3.608  11.882  0.00  0.00    +0.000 A 
ATOM     12  C   UNL     1       7.320   4.558  11.670  0.00  0.00    +0.000 A 
ATOM     13  C   UNL     1       7.840   5.269  12.750  0.00  0.00    +0.000 A 
ATOM     14  C   UNL     1       7.369   5.027  14.046  0.00  0.00    +0.000 A 
ENDBRANCH   8   9
ENDBRANCH   5   7
ENDBRANCH   1   2
BRANCH   1  16
ATOM     15  N   UNL     1       2.637   6.020  20.190  0.00  0.00    +0.000 N 
ATOM     16  C   UNL     1       1.988   4.800  20.357  0.00  0.00    +0.000 C 
ATOM     17  O   UNL     1       0.774   4.679  20.534  0.00  0.00    +0.000 OA
ATOM     18  H   UNL     1       3.628   6.092  19.970  0.00  0.00    +0.000 HD
BRANCH  15  20
ATOM     19  C   UNL     1       1.553   7.667  21.355  0.00  0.00    +0.000 C 
ATOM     20  N   UNL     1       1.866   7.134  20.222  0.00  0.00    +0.000 NA
BRANCH  19  25
ATOM     21  C   UNL     1      -1.684  12.468  21.318  0.00  0.00    +0.000 C 
ATOM     22  C   UNL     1      -0.842  11.226  21.334  0.00  0.00    +0.000 A 
ATOM     23  C   UNL     1      -0.339  10.697  20.143  0.00  0.00    +0.000 A 
ATOM     24  C   UNL     1       0.439   9.541  20.158  0.00  0.00    +0.000 A 
ATOM     25  C   UNL     1       0.724   8.895  21.367  0.00  0.00    +0.000 A 
ATOM     26  C   UNL     1       0.229   9.412  22.566  0.00  0.00    +0.000 A 
ATOM     27  C   UNL     1      -0.552  10.576  22.545  0.00  0.00    +0.000 A 
ENDBRANCH  19  25
ENDBRANCH  15  20
ENDBRANCH   1  16
TORSDOF 6
ENDMDL
MODEL 5
REMARK VINA RESULT:      -8.0      4.860      5.799
REMARK  Name = 
REMARK  7 active torsions:
REMARK  status: ('A' for Active; 'I' for Inactive)
REMARK    1  A    between atoms: C_1  and  C_2
REMARK    2  A    between atoms: C_5  and  C_6
REMARK    3  A    between atoms: N_7  and  N_8
REMARK    4  A    between atoms: C_9  and  C_11
REMARK    5  A    between atoms: C_11  and  N_12
REMARK    6  A    between atoms: C_15  and  C_16
REMARK    7  A    between atoms: C_17  and  C_18
REMARK                            x       y       z     vdW  Elec       q    Type
REMARK                         _______ _______ _______ _____ _____    ______ ____
ROOT
ATOM      1  C   UNL     1       2.861   3.760  20.675  0.00  0.00    +0.000 C 
ENDROOT
BRANCH   1   2
ATOM      2  N   UNL     1       3.847   3.774  19.627  0.00  0.00    +0.000 N 
ATOM      3  N   UNL     1       5.139   4.049  19.867  0.00  0.00    +0.000 NA
ATOM      4  N   UNL     1       5.695   4.129  18.668  0.00  0.00    +0.000 NA
ATOM      5  C   UNL     1       4.691   3.933  17.752  0.00  0.00    +0.000 A 
ATOM      6  N   UNL     1       3.494   3.721  18.322  0.00  0.00    +0.000 NA
BRANCH   5   7
ATOM      7  C   UNL     1       4.958   4.007  16.351  0.00  0.00    +0.000 C 
ATOM      8  C   UNL     1       6.183   4.115  15.812  0.00  0.00    +0.000 C 
BRANCH   8   9
ATOM      9  C   UNL     1       6.487   4.234  14.377  0.00  0.00    +0.000 A 
ATOM     10  C   UNL     1       7.486   5.136  13.987  0.00  0.00    +0.000 A 
ATOM     11  C   UNL     1       7.851   5.267  12.646  0.00  0.00    +0.000 A 
ATOM     12  C   UNL     1       7.226   4.490  11.676  0.00  0.00    +0.000 A 
ATOM     13  C   UNL     1       6.239   3.579  12.049  0.00  0.00    +0.000 A 
ATOM     14  C   UNL     1       5.873   3.448  13.394  0.00  0.00    +0.000 A 
ENDBRANCH   8   9
ENDBRANCH   5   7
ENDBRANCH   1   2
BRANCH   1  16
ATOM     15  N   UNL     1       2.563   6.172  20.420  0.00  0.00    +0.000 N 
ATOM     16  C   UNL     1       1.936   4.934  20.535  0.00  0.00    +0.000 C 
ATOM     17  O   UNL     1       0.715   4.775  20.551  0.00  0.00    +0.000 OA
ATOM     18  H   UNL     1       3.572   6.275  20.333  0.00  0.00    +0.000 HD
BRANCH  15  20
ATOM     19  C   UNL     1       1.519   7.983  21.357  0.00  0.00    +0.000 C 
ATOM     20  N   UNL     1       1.759   7.258  20.315  0.00  0.00    +0.000 NA
BRANCH  19  25
ATOM     21  C   UNL     1      -1.865  12.639  20.727  0.00  0.00    +0.000 C 
ATOM     22  C   UNL     1      -0.985  11.435  20.897  0.00  0.00    +0.000 A 
ATOM     23  C   UNL     1      -0.440  10.795  19.780  0.00  0.00    +0.000 A 
ATOM     24  C   UNL     1       0.372   9.674  19.939  0.00  0.00    +0.000 A 
ATOM     25  C   UNL     1       0.652   9.176  21.217  0.00  0.00    +0.000 A 
ATOM     26  C   UNL     1       0.115   9.806  22.342  0.00  0.00    +0.000 A 
ATOM     27  C   UNL     1      -0.701  10.934  22.177  0.00  0.00    +0.000 A 
ENDBRANCH  19  25
ENDBRANCH  15  20
ENDBRANCH   1  16
TORSDOF 6
ENDMDL
MODEL 6
REMARK VINA RESULT:      -8.0      1.492      1.922
REMARK  Name = 
REMARK  7 active torsions:
REMARK  status: ('A' for Active; 'I' for Inactive)
REMARK    1  A    between atoms: C_1  and  C_2
REMARK    2  A    between atoms: C_5  and  C_6
REMARK    3  A    between atoms: N_7  and  N_8
REMARK    4  A    between atoms: C_9  and  C_11
REMARK    5  A    between atoms: C_11  and  N_12
REMARK    6  A    between atoms: C_15  and  C_16
REMARK    7  A    between atoms: C_17  and  C_18
REMARK                            x       y       z     vdW  Elec       q    Type
REMARK                         _______ _______ _______ _____ _____    ______ ____
ROOT
ATOM      1  C   UNL     1       4.840   5.355  17.884  0.00  0.00    +0.000 C 
ENDROOT
BRANCH   1   2
ATOM      2  N   UNL     1       6.099   6.047  17.960  0.00  0.00    +0.000 N 
ATOM      3  N   UNL     1       7.073   5.664  18.800  0.00  0.00    +0.000 NA
ATOM      4  N   UNL     1       7.991   6.614  18.708  0.00  0.00    +0.000 NA
ATOM      5  C   UNL     1       7.502   7.554  17.834  0.00  0.00    +0.000 A 
ATOM      6  N   UNL     1       6.291   7.238  17.348  0.00  0.00    +0.000 NA
BRANCH   5   7
ATOM      7  C   UNL     1       8.241   8.743  17.553  0.00  0.00    +0.000 C 
ATOM      8  C   UNL     1       8.579   9.666  18.468  0.00  0.00    +0.000 C 
BRANCH   8   9
ATOM      9  C   UNL     1       9.304  10.919  18.203  0.00  0.00    +0.000 A 
ATOM     10  C   UNL     1      10.703  10.900  18.286  0.00  0.00    +0.000 A 
ATOM     11  C   UNL     1      11.454  12.044  18.008  0.00  0.00    +0.000 A 
ATOM     12  C   UNL     1      10.814  13.221  17.632  0.00  0.00    +0.000 A 
ATOM     13  C   UNL     1       9.424  13.252  17.532  0.00  0.00    +0.000 A 
ATOM     14  C   UNL     1       8.672  12.105  17.812  0.00  0.00    +0.000 A 
ENDBRANCH   8   9
ENDBRANCH   5   7
ENDBRANCH   1   2
BRANCH   1  16
ATOM     15  N   UNL     1       3.333   7.278  17.828  0.00  0.00    +0.000 N 
ATOM     16  C   UNL     1       3.762   6.163  18.544  0.00  0.00    +0.000 C 
ATOM     17  O   UNL     1       3.332   5.847  19.655  0.00  0.00    +0.000 OA
ATOM     18  H   UNL     1       3.646   7.479  16.881  0.00  0.00    +0.000 HD
BRANCH  15  20
ATOM     19  C   UNL     1       1.837   9.010  17.736  0.00  0.00    +0.000 C 
ATOM     20  N   UNL     1       2.376   8.046  18.404  0.00  0.00    +0.000 NA
BRANCH  19  25
ATOM     21  C   UNL     1      -2.344  12.175  20.191  0.00  0.00    +0.000 C 
ATOM     22  C   UNL     1      -1.255  11.360  19.557  0.00  0.00    +0.000 A 
ATOM     23  C   UNL     1      -1.506  10.632  18.390  0.00  0.00    +0.000 A 
ATOM     24  C   UNL     1      -0.495   9.871  17.805  0.00  0.00    +0.000 A 
ATOM     25  C   UNL     1       0.781   9.827  18.378  0.00  0.00    +0.000 A 
ATOM     26  C   UNL     1       1.046  10.550  19.543  0.00  0.00    +0.000 A 
ATOM     27  C   UNL     1       0.026  11.314  20.128  0.00  0.00    +0.000 A 
ENDBRANCH  19  25
ENDBRANCH  15  20
ENDBRANCH   1  16
TORSDOF 6
ENDMDL
MODEL 7
REMARK VINA RESULT:      -7.9      4.692      5.756
REMARK  Name = 
REMARK  7 active torsions:
REMARK  status: ('A' for Active; 'I' for Inactive)
REMARK    1  A    between atoms: C_1  and  C_2
REMARK    2  A    between atoms: C_5  and  C_6
REMARK    3  A    between atoms: N_7  and  N_8
REMARK    4  A    between atoms: C_9  and  C_11
REMARK    5  A    between atoms: C_11  and  N_12
REMARK    6  A    between atoms: C_15  and  C_16
REMARK    7  A    between atoms: C_17  and  C_18
REMARK                            x       y       z     vdW  Elec       q    Type
REMARK                         _______ _______ _______ _____ _____    ______ ____
ROOT
ATOM      1  C   UNL     1       3.172   3.571  20.266  0.00  0.00    +0.000 C 
ENDROOT
BRANCH   1   2
ATOM      2  N   UNL     1       4.373   3.862  19.529  0.00  0.00    +0.000 N 
ATOM      3  N   UNL     1       5.420   4.487  20.091  0.00  0.00    +0.000 NA
ATOM      4  N   UNL     1       6.251   4.722  19.088  0.00  0.00    +0.000 NA
ATOM      5  C   UNL     1       5.641   4.254  17.950  0.00  0.00    +0.000 A 
ATOM      6  N   UNL     1       4.434   3.714  18.186  0.00  0.00    +0.000 NA
BRANCH   5   7
ATOM      7  C   UNL     1       6.265   4.402  16.675  0.00  0.00    +0.000 C 
ATOM      8  C   UNL     1       5.672   4.137  15.499  0.00  0.00    +0.000 C 
BRANCH   8   9
ATOM      9  C   UNL     1       6.300   4.241  14.173  0.00  0.00    +0.000 A 
ATOM     10  C   UNL     1       5.808   3.424  13.145  0.00  0.00    +0.000 A 
ATOM     11  C   UNL     1       6.333   3.502  11.853  0.00  0.00    +0.000 A 
ATOM     12  C   UNL     1       7.353   4.405  11.571  0.00  0.00    +0.000 A 
ATOM     13  C   UNL     1       7.845   5.233  12.579  0.00  0.00    +0.000 A 
ATOM     14  C   UNL     1       7.318   5.154  13.874  0.00  0.00    +0.000 A 
ENDBRANCH   8   9
ENDBRANCH   5   7
ENDBRANCH   1   2
BRANCH   1  16
ATOM     15  N   UNL     1       2.834   5.982  20.055  0.00  0.00    +0.000 N 
ATOM     16  C   UNL     1       2.228   4.737  20.203  0.00  0.00    +0.000 C 
ATOM     17  O   UNL     1       1.012   4.566  20.306  0.00  0.00    +0.000 OA
ATOM     18  H   UNL     1       3.832   6.095  19.896  0.00  0.00    +0.000 HD
BRANCH  15  20
ATOM     19  C   UNL     1       1.780   7.727  21.099  0.00  0.00    +0.000 C 
ATOM     20  N   UNL     1       2.014   7.061  20.018  0.00  0.00    +0.000 NA
BRANCH  19  25
ATOM     21  C   UNL     1      -1.687  12.361  20.927  0.00  0.00    +0.000 C 
ATOM     22  C   UNL     1      -0.791  11.158  20.964  0.00  0.00    +0.000 A 
ATOM     23  C   UNL     1      -0.582  10.470  22.162  0.00  0.00    +0.000 A 
ATOM     24  C   UNL     1       0.255   9.356  22.198  0.00  0.00    +0.000 A 
ATOM     25  C   UNL     1       0.896   8.914  21.034  0.00  0.00    +0.000 A 
ATOM     26  C   UNL     1       0.696   9.591  19.830  0.00  0.00    +0.000 A 
ATOM     27  C   UNL     1      -0.147  10.711  19.799  0.00  0.00    +0.000 A 
ENDBRANCH  19  25
ENDBRANCH  15  20
ENDBRANCH   1  16
TORSDOF 6
ENDMDL
MODEL 8
REMARK VINA RESULT:      -7.7      4.881      5.849
REMARK  Name = 
REMARK  7 active torsions:
REMARK  status: ('A' for Active; 'I' for Inactive)
REMARK    1  A    between atoms: C_1  and  C_2
REMARK    2  A    between atoms: C_5  and  C_6
REMARK    3  A    between atoms: N_7  and  N_8
REMARK    4  A    between atoms: C_9  and  C_11
REMARK    5  A    between atoms: C_11  and  N_12
REMARK    6  A    between atoms: C_15  and  C_16
REMARK    7  A    between atoms: C_17  and  C_18
REMARK                            x       y       z     vdW  Elec       q    Type
REMARK                         _______ _______ _______ _____ _____    ______ ____
ROOT
ATOM      1  C   UNL     1       2.788   2.692  19.810  0.00  0.00    +0.000 C 
ENDROOT
BRANCH   1   2
ATOM      2  N   UNL     1       3.991   3.176  19.186  0.00  0.00    +0.000 N 
ATOM      3  N   UNL     1       4.916   3.872  19.866  0.00  0.00    +0.000 NA
ATOM      4  N   UNL     1       5.777   4.278  18.946  0.00  0.00    +0.000 NA
ATOM      5  C   UNL     1       5.303   3.834  17.736  0.00  0.00    +0.000 A 
ATOM      6  N   UNL     1       4.157   3.141  17.844  0.00  0.00    +0.000 NA
BRANCH   5   7
ATOM      7  C   UNL     1       5.986   4.151  16.524  0.00  0.00    +0.000 C 
ATOM      8  C   UNL     1       5.537   3.853  15.293  0.00  0.00    +0.000 C 
BRANCH   8   9
ATOM      9  C   UNL     1       6.236   4.131  14.029  0.00  0.00    +0.000 A 
ATOM     10  C   UNL     1       7.253   5.096  14.037  0.00  0.00    +0.000 A 
ATOM     11  C   UNL     1       7.983   5.379  12.880  0.00  0.00    +0.000 A 
ATOM     12  C   UNL     1       7.710   4.693  11.701  0.00  0.00    +0.000 A 
ATOM     13  C   UNL     1       6.710   3.722  11.680  0.00  0.00    +0.000 A 
ATOM     14  C   UNL     1       5.978   3.439  12.839  0.00  0.00    +0.000 A 
ENDBRANCH   8   9
ENDBRANCH   5   7
ENDBRANCH   1   2
BRANCH   1  16
ATOM     15  N   UNL     1       2.227   5.069  19.754  0.00  0.00    +0.000 N 
ATOM     16  C   UNL     1       1.991   3.838  20.360  0.00  0.00    +0.000 C 
ATOM     17  O   UNL     1       1.212   3.667  21.299  0.00  0.00    +0.000 OA
ATOM     18  H   UNL     1       2.817   5.176  18.932  0.00  0.00    +0.000 HD
BRANCH  15  20
ATOM     19  C   UNL     1       2.084   7.306  20.229  0.00  0.00    +0.000 C 
ATOM     20  N   UNL     1       1.542   6.133  20.240  0.00  0.00    +0.000 NA
BRANCH  19  25
ATOM     21  C   UNL     1      -0.920  11.784  22.339  0.00  0.00    +0.000 C 
ATOM     22  C   UNL     1      -0.146  10.623  21.786  0.00  0.00    +0.000 A 
ATOM     23  C   UNL     1       0.411   9.672  22.645  0.00  0.00    +0.000 A 
ATOM     24  C   UNL     1       1.135   8.597  22.131  0.00  0.00    +0.000 A 
ATOM     25  C   UNL     1       1.311   8.458  20.749  0.00  0.00    +0.000 A 
ATOM     26  C   UNL     1       0.759   9.399  19.879  0.00  0.00    +0.000 A 
ATOM     27  C   UNL     1       0.031  10.479  20.401  0.00  0.00    +0.000 A 
ENDBRANCH  19  25
ENDBRANCH  15  20
ENDBRANCH   1  16
TORSDOF 6
ENDMDL
MODEL 9
REMARK VINA RESULT:      -7.7      2.100      8.115
REMARK  Name = 
REMARK  7 active torsions:
REMARK  status: ('A' for Active; 'I' for Inactive)
REMARK    1  A    between atoms: C_1  and  C_2
REMARK    2  A    between atoms: C_5  and  C_6
REMARK    3  A    between atoms: N_7  and  N_8
REMARK    4  A    between atoms: C_9  and  C_11
REMARK    5  A    between atoms: C_11  and  N_12
REMARK    6  A    between atoms: C_15  and  C_16
REMARK    7  A    between atoms: C_17  and  C_18
REMARK                            x       y       z     vdW  Elec       q    Type
REMARK                         _______ _______ _______ _____ _____    ______ ____
ROOT
ATOM      1  C   UNL     1       6.959   4.689  17.652  0.00  0.00    +0.000 C 
ENDROOT
BRANCH   1   2
ATOM      2  N   UNL     1       5.782   4.760  18.477  0.00  0.00    +0.000 N 
ATOM      3  N   UNL     1       5.200   3.661  18.984  0.00  0.00    +0.000 NA
ATOM      4  N   UNL     1       4.079   4.097  19.537  0.00  0.00    +0.000 NA
ATOM      5  C   UNL     1       4.021   5.449  19.302  0.00  0.00    +0.000 A 
ATOM      6  N   UNL     1       5.080   5.907  18.615  0.00  0.00    +0.000 NA
BRANCH   5   7
ATOM      7  C   UNL     1       2.899   6.217  19.734  0.00  0.00    +0.000 C 
ATOM      8  C   UNL     1       2.654   7.485  19.367  0.00  0.00    +0.000 C 
BRANCH   8   9
ATOM      9  C   UNL     1       1.529   8.315  19.826  0.00  0.00    +0.000 A 
ATOM     10  C   UNL     1       0.940   8.002  21.059  0.00  0.00    +0.000 A 
ATOM     11  C   UNL     1      -0.105   8.774  21.572  0.00  0.00    +0.000 A 
ATOM     12  C   UNL     1      -0.569   9.876  20.861  0.00  0.00    +0.000 A 
ATOM     13  C   UNL     1       0.014  10.208  19.639  0.00  0.00    +0.000 A 
ATOM     14  C   UNL     1       1.062   9.434  19.125  0.00  0.00    +0.000 A 
ENDBRANCH   8   9
ENDBRANCH   5   7
ENDBRANCH   1   2
BRANCH   1  16
ATOM     15  N   UNL     1       7.795   6.886  18.319  0.00  0.00    +0.000 N 
ATOM     16  C   UNL     1       7.403   6.069  17.262  0.00  0.00    +0.000 C 
ATOM     17  O   UNL     1       7.382   6.424  16.083  0.00  0.00    +0.000 OA
ATOM     18  H   UNL     1       7.877   6.550  19.276  0.00  0.00    +0.000 HD
BRANCH  15  20
ATOM     19  C   UNL     1       8.685   8.910  18.920  0.00  0.00    +0.000 C 
ATOM     20  N   UNL     1       8.180   8.148  18.008  0.00  0.00    +0.000 NA
BRANCH  19  25
ATOM     21  C   UNL     1      10.293  14.277  17.459  0.00  0.00    +0.000 C 
ATOM     22  C   UNL     1       9.883  12.883  17.836  0.00  0.00    +0.000 A 
ATOM     23  C   UNL     1       8.612  12.407  17.507  0.00  0.00    +0.000 A 
ATOM     24  C   UNL     1       8.230  11.115  17.863  0.00  0.00    +0.000 A 
ATOM     25  C   UNL     1       9.116  10.279  18.554  0.00  0.00    +0.000 A 
ATOM     26  C   UNL     1      10.390  10.741  18.889  0.00  0.00    +0.000 A 
ATOM     27  C   UNL     1      10.769  12.042  18.528  0.00  0.00    +0.000 A 
ENDBRANCH  19  25
ENDBRANCH  15  20
ENDBRANCH   1  16
TORSDOF 6
ENDMDL
