MODEL 1
REMARK VINA RESULT:      -8.1      0.000      0.000
REMARK  Name = 
REMARK  5 active torsions:
REMARK  status: ('A' for Active; 'I' for Inactive)
REMARK    1  A    between atoms: C_1  and  C_2
REMARK    2  A    between atoms: C_2  and  C_3
REMARK    3  A    between atoms: C_5  and  N_6
REMARK    4  A    between atoms: C_18  and  C_19
REMARK    5  A    between atoms: C_18  and  C_20
REMARK                            x       y       z     vdW  Elec       q    Type
REMARK                         _______ _______ _______ _____ _____    ______ ____
ROOT
ATOM      1  C   UNL     1       4.334   2.192  20.124  0.00  0.00    +0.000 C 
ATOM      2  C   UNL     1       4.247   3.155  18.916  0.00  0.00    +0.000 C 
ATOM      3  C   UNL     1       3.583   2.355  17.781  0.00  0.00    +0.000 C 
ATOM      4  C   UNL     1       3.384   4.355  19.339  0.00  0.00    +0.000 C 
ATOM      5  C   UNL     1       3.477   5.530  18.364  0.00  0.00    +0.000 C 
ATOM      6  C   UNL     1       4.943   5.920  18.150  0.00  0.00    +0.000 C 
ATOM      7  C   UNL     1       5.822   4.738  17.714  0.00  0.00    +0.000 C 
ATOM      8  C   UNL     1       7.302   5.166  17.865  0.00  0.00    +0.000 C 
ATOM      9  C   UNL     1       5.622   4.412  16.224  0.00  0.00    +0.000 C 
ATOM     10  N   UNL     1       5.628   3.563  18.590  0.00  0.00    +0.000 NA
ATOM     11  H   UNL     1       6.105   3.760  19.474  0.00  0.00    +0.000 HD
ENDROOT
BRANCH   5  12
ATOM     12  N   UNL     1       2.698   6.675  18.839  0.00  0.00    +0.000 N 
ATOM     13  C   UNL     1       2.087   6.752  20.065  0.00  0.00    +0.000 C 
ATOM     14  O   UNL     1       2.020   5.931  20.957  0.00  0.00    +0.000 OA
ATOM     15  C   UNL     1       1.485   8.076  20.152  0.00  0.00    +0.000 A 
ATOM     16  C   UNL     1       0.786   8.665  21.186  0.00  0.00    +0.000 A 
ATOM     17  C   UNL     1       0.341   9.973  20.983  0.00  0.00    +0.000 A 
ATOM     18  C   UNL     1       0.598  10.647  19.771  0.00  0.00    +0.000 A 
ATOM     19  C   UNL     1       1.312  10.024  18.742  0.00  0.00    +0.000 A 
ATOM     20  C   UNL     1       1.746   8.735  18.965  0.00  0.00    +0.000 A 
ATOM     21  C   UNL     1       2.530   7.832  18.123  0.00  0.00    +0.000 C 
ATOM     22  O   UNL     1       2.933   8.119  17.012  0.00  0.00    +0.000 OA
ENDBRANCH   5  12
TORSDOF 1
ENDMDL
MODEL 2
REMARK VINA RESULT:      -8.1      0.100      1.913
REMARK  Name = 
REMARK  5 active torsions:
REMARK  status: ('A' for Active; 'I' for Inactive)
REMARK    1  A    between atoms: C_1  and  C_2
REMARK    2  A    between atoms: C_2  and  C_3
REMARK    3  A    between atoms: C_5  and  N_6
REMARK    4  A    between atoms: C_18  and  C_19
REMARK    5  A    between atoms: C_18  and  C_20
REMARK                            x       y       z     vdW  Elec       q    Type
REMARK                         _______ _______ _______ _____ _____    ______ ____
ROOT
ATOM      1  C   UNL     1       4.336   2.232  20.101  0.00  0.00    +0.000 C 
ATOM      2  C   UNL     1       4.228   3.189  18.890  0.00  0.00    +0.000 C 
ATOM      3  C   UNL     1       3.509   2.398  17.783  0.00  0.00    +0.000 C 
ATOM      4  C   UNL     1       3.407   4.410  19.335  0.00  0.00    +0.000 C 
ATOM      5  C   UNL     1       3.493   5.578  18.349  0.00  0.00    +0.000 C 
ATOM      6  C   UNL     1       4.959   5.934  18.083  0.00  0.00    +0.000 C 
ATOM      7  C   UNL     1       5.796   4.729  17.625  0.00  0.00    +0.000 C 
ATOM      8  C   UNL     1       7.290   5.125  17.723  0.00  0.00    +0.000 C 
ATOM      9  C   UNL     1       5.539   4.399  16.145  0.00  0.00    +0.000 C 
ATOM     10  N   UNL     1       5.606   3.564  18.515  0.00  0.00    +0.000 NA
ATOM     11  H   UNL     1       6.117   3.755  19.380  0.00  0.00    +0.000 HD
ENDROOT
BRANCH   5  12
ATOM     12  N   UNL     1       2.756   6.742  18.843  0.00  0.00    +0.000 N 
ATOM     13  C   UNL     1       2.559   7.901  18.136  0.00  0.00    +0.000 C 
ATOM     14  O   UNL     1       2.958   8.222  17.035  0.00  0.00    +0.000 OA
ATOM     15  C   UNL     1       1.726   8.762  18.965  0.00  0.00    +0.000 A 
ATOM     16  C   UNL     1       1.216  10.018  18.705  0.00  0.00    +0.000 A 
ATOM     17  C   UNL     1       0.420  10.595  19.698  0.00  0.00    +0.000 A 
ATOM     18  C   UNL     1       0.163   9.916  20.907  0.00  0.00    +0.000 A 
ATOM     19  C   UNL     1       0.693   8.642  21.140  0.00  0.00    +0.000 A 
ATOM     20  C   UNL     1       1.469   8.089  20.145  0.00  0.00    +0.000 A 
ATOM     21  C   UNL     1       2.132   6.788  20.063  0.00  0.00    +0.000 C 
ATOM     22  O   UNL     1       2.089   5.948  20.941  0.00  0.00    +0.000 OA
ENDBRANCH   5  12
TORSDOF 1
ENDMDL
MODEL 3
REMARK VINA RESULT:      -7.8      1.339      3.396
REMARK  Name = 
REMARK  5 active torsions:
REMARK  status: ('A' for Active; 'I' for Inactive)
REMARK    1  A    between atoms: C_1  and  C_2
REMARK    2  A    between atoms: C_2  and  C_3
REMARK    3  A    between atoms: C_5  and  N_6
REMARK    4  A    between atoms: C_18  and  C_19
REMARK    5  A    between atoms: C_18  and  C_20
REMARK                            x       y       z     vdW  Elec       q    Type
REMARK                         _______ _______ _______ _____ _____    ______ ____
ROOT
ATOM      1  C   UNL     1       5.311   6.213  15.807  0.00  0.00    +0.000 C 
ATOM      2  C   UNL     1       4.747   5.886  17.211  0.00  0.00    +0.000 C 
ATOM      3  C   UNL     1       5.968   5.713  18.131  0.00  0.00    +0.000 C 
ATOM      4  C   UNL     1       3.874   7.074  17.649  0.00  0.00    +0.000 C 
ATOM      5  C   UNL     1       2.999   6.755  18.863  0.00  0.00    +0.000 C 
ATOM      6  C   UNL     1       2.169   5.496  18.596  0.00  0.00    +0.000 C 
ATOM      7  C   UNL     1       3.023   4.292  18.169  0.00  0.00    +0.000 C 
ATOM      8  C   UNL     1       2.070   3.210  17.605  0.00  0.00    +0.000 C 
ATOM      9  C   UNL     1       3.729   3.651  19.376  0.00  0.00    +0.000 C 
ATOM     10  N   UNL     1       3.956   4.646  17.078  0.00  0.00    +0.000 NA
ATOM     11  H   UNL     1       3.405   4.725  16.220  0.00  0.00    +0.000 HD
ENDROOT
BRANCH   5  12
ATOM     12  N   UNL     1       2.134   7.886  19.203  0.00  0.00    +0.000 N 
ATOM     13  C   UNL     1       1.784   8.891  18.339  0.00  0.00    +0.000 C 
ATOM     14  O   UNL     1       2.120   9.085  17.188  0.00  0.00    +0.000 OA
ATOM     15  C   UNL     1       0.867   9.764  19.060  0.00  0.00    +0.000 A 
ATOM     16  C   UNL     1       0.202  10.897  18.635  0.00  0.00    +0.000 A 
ATOM     17  C   UNL     1      -0.639  11.521  19.559  0.00  0.00    +0.000 A 
ATOM     18  C   UNL     1      -0.789  11.010  20.865  0.00  0.00    +0.000 A 
ATOM     19  C   UNL     1      -0.103   9.858  21.266  0.00  0.00    +0.000 A 
ATOM     20  C   UNL     1       0.717   9.254  20.337  0.00  0.00    +0.000 A 
ATOM     21  C   UNL     1       1.532   8.044  20.425  0.00  0.00    +0.000 C 
ATOM     22  O   UNL     1       1.609   7.348  21.421  0.00  0.00    +0.000 OA
ENDBRANCH   5  12
TORSDOF 1
ENDMDL
MODEL 4
REMARK VINA RESULT:      -7.8      1.097      2.609
REMARK  Name = 
REMARK  5 active torsions:
REMARK  status: ('A' for Active; 'I' for Inactive)
REMARK    1  A    between atoms: C_1  and  C_2
REMARK    2  A    between atoms: C_2  and  C_3
REMARK    3  A    between atoms: C_5  and  N_6
REMARK    4  A    between atoms: C_18  and  C_19
REMARK    5  A    between atoms: C_18  and  C_20
REMARK                            x       y       z     vdW  Elec       q    Type
REMARK                         _______ _______ _______ _____ _____    ______ ____
ROOT
ATOM      1  C   UNL     1       5.374   5.797  15.544  0.00  0.00    +0.000 C 
ATOM      2  C   UNL     1       4.907   5.488  16.987  0.00  0.00    +0.000 C 
ATOM      3  C   UNL     1       6.187   5.382  17.835  0.00  0.00    +0.000 C 
ATOM      4  C   UNL     1       4.020   6.656  17.447  0.00  0.00    +0.000 C 
ATOM      5  C   UNL     1       3.231   6.339  18.720  0.00  0.00    +0.000 C 
ATOM      6  C   UNL     1       2.433   5.045  18.535  0.00  0.00    +0.000 C 
ATOM      7  C   UNL     1       3.303   3.860  18.086  0.00  0.00    +0.000 C 
ATOM      8  C   UNL     1       2.358   2.731  17.608  0.00  0.00    +0.000 C 
ATOM      9  C   UNL     1       4.103   3.277  19.263  0.00  0.00    +0.000 C 
ATOM     10  N   UNL     1       4.156   4.218  16.933  0.00  0.00    +0.000 NA
ATOM     11  H   UNL     1       3.552   4.255  16.107  0.00  0.00    +0.000 HD
ENDROOT
BRANCH   5  12
ATOM     12  N   UNL     1       2.348   7.447  19.084  0.00  0.00    +0.000 N 
ATOM     13  C   UNL     1       1.691   7.564  20.283  0.00  0.00    +0.000 C 
ATOM     14  O   UNL     1       1.660   6.808  21.233  0.00  0.00    +0.000 OA
ATOM     15  C   UNL     1       0.983   8.837  20.252  0.00  0.00    +0.000 A 
ATOM     16  C   UNL     1       0.205   9.442  21.219  0.00  0.00    +0.000 A 
ATOM     17  C   UNL     1      -0.335  10.691  20.905  0.00  0.00    +0.000 A 
ATOM     18  C   UNL     1      -0.093  11.292  19.652  0.00  0.00    +0.000 A 
ATOM     19  C   UNL     1       0.703  10.656  18.694  0.00  0.00    +0.000 A 
ATOM     20  C   UNL     1       1.231   9.427  19.027  0.00  0.00    +0.000 A 
ATOM     21  C   UNL     1       2.111   8.531  18.277  0.00  0.00    +0.000 C 
ATOM     22  O   UNL     1       2.528   8.767  17.159  0.00  0.00    +0.000 OA
ENDBRANCH   5  12
TORSDOF 1
ENDMDL
MODEL 5
REMARK VINA RESULT:      -7.7      0.988      1.060
REMARK  Name = 
REMARK  5 active torsions:
REMARK  status: ('A' for Active; 'I' for Inactive)
REMARK    1  A    between atoms: C_1  and  C_2
REMARK    2  A    between atoms: C_2  and  C_3
REMARK    3  A    between atoms: C_5  and  N_6
REMARK    4  A    between atoms: C_18  and  C_19
REMARK    5  A    between atoms: C_18  and  C_20
REMARK                            x       y       z     vdW  Elec       q    Type
REMARK                         _______ _______ _______ _____ _____    ______ ____
ROOT
ATOM      1  C   UNL     1       4.389   2.922  19.199  0.00  0.00    +0.000 C 
ATOM      2  C   UNL     1       4.153   4.071  18.189  0.00  0.00    +0.000 C 
ATOM      3  C   UNL     1       3.473   3.432  16.966  0.00  0.00    +0.000 C 
ATOM      4  C   UNL     1       3.238   5.104  18.868  0.00  0.00    +0.000 C 
ATOM      5  C   UNL     1       3.184   6.436  18.117  0.00  0.00    +0.000 C 
ATOM      6  C   UNL     1       4.600   6.975  17.898  0.00  0.00    +0.000 C 
ATOM      7  C   UNL     1       5.529   5.963  17.210  0.00  0.00    +0.000 C 
ATOM      8  C   UNL     1       6.983   6.476  17.357  0.00  0.00    +0.000 C 
ATOM      9  C   UNL     1       5.254   5.888  15.698  0.00  0.00    +0.000 C 
ATOM     10  N   UNL     1       5.477   4.640  17.869  0.00  0.00    +0.000 NA
ATOM     11  H   UNL     1       5.998   4.717  18.747  0.00  0.00    +0.000 HD
ENDROOT
BRANCH   5  12
ATOM     12  N   UNL     1       2.360   7.412  18.830  0.00  0.00    +0.000 N 
ATOM     13  C   UNL     1       1.903   7.262  20.115  0.00  0.00    +0.000 C 
ATOM     14  O   UNL     1       2.033   6.332  20.886  0.00  0.00    +0.000 OA
ATOM     15  C   UNL     1       1.187   8.485  20.453  0.00  0.00    +0.000 A 
ATOM     16  C   UNL     1       0.568   8.853  21.631  0.00  0.00    +0.000 A 
ATOM     17  C   UNL     1      -0.028  10.115  21.663  0.00  0.00    +0.000 A 
ATOM     18  C   UNL     1       0.004  10.962  20.536  0.00  0.00    +0.000 A 
ATOM     19  C   UNL     1       0.641  10.562  19.357  0.00  0.00    +0.000 A 
ATOM     20  C   UNL     1       1.228   9.315  19.348  0.00  0.00    +0.000 A 
ATOM     21  C   UNL     1       1.986   8.623  18.306  0.00  0.00    +0.000 C 
ATOM     22  O   UNL     1       2.214   9.093  17.208  0.00  0.00    +0.000 OA
ENDBRANCH   5  12
TORSDOF 1
ENDMDL
MODEL 6
REMARK VINA RESULT:      -7.6      2.427      7.042
REMARK  Name = 
REMARK  5 active torsions:
REMARK  status: ('A' for Active; 'I' for Inactive)
REMARK    1  A    between atoms: C_1  and  C_2
REMARK    2  A    between atoms: C_2  and  C_3
REMARK    3  A    between atoms: C_5  and  N_6
REMARK    4  A    between atoms: C_18  and  C_19
REMARK    5  A    between atoms: C_18  and  C_20
REMARK                            x       y       z     vdW  Elec       q    Type
REMARK                         _______ _______ _______ _____ _____    ______ ____
ROOT
ATOM      1  C   UNL     1      -2.238  11.529  17.377  0.00  0.00    +0.000 C 
ATOM      2  C   UNL     1      -1.175  11.586  18.500  0.00  0.00    +0.000 C 
ATOM      3  C   UNL     1      -1.944  11.879  19.800  0.00  0.00    +0.000 C 
ATOM      4  C   UNL     1      -0.480  10.215  18.552  0.00  0.00    +0.000 C 
ATOM      5  C   UNL     1       0.802  10.228  19.387  0.00  0.00    +0.000 C 
ATOM      6  C   UNL     1       1.740  11.332  18.893  0.00  0.00    +0.000 C 
ATOM      7  C   UNL     1       1.070  12.714  18.845  0.00  0.00    +0.000 C 
ATOM      8  C   UNL     1       1.982  13.656  18.022  0.00  0.00    +0.000 C 
ATOM      9  C   UNL     1       0.969  13.336  20.248  0.00  0.00    +0.000 C 
ATOM     10  N   UNL     1      -0.231  12.664  18.144  0.00  0.00    +0.000 NA
ATOM     11  H   UNL     1      -0.035  12.580  17.143  0.00  0.00    +0.000 HD
ENDROOT
BRANCH   5  12
ATOM     12  N   UNL     1       1.468   8.925  19.353  0.00  0.00    +0.000 N 
ATOM     13  C   UNL     1       1.491   8.030  20.392  0.00  0.00    +0.000 C 
ATOM     14  O   UNL     1       1.034   8.123  21.514  0.00  0.00    +0.000 OA
ATOM     15  C   UNL     1       2.196   6.848  19.914  0.00  0.00    +0.000 A 
ATOM     16  C   UNL     1       2.462   5.655  20.555  0.00  0.00    +0.000 A 
ATOM     17  C   UNL     1       3.151   4.684  19.824  0.00  0.00    +0.000 A 
ATOM     18  C   UNL     1       3.555   4.929  18.495  0.00  0.00    +0.000 A 
ATOM     19  C   UNL     1       3.269   6.148  17.872  0.00  0.00    +0.000 A 
ATOM     20  C   UNL     1       2.583   7.089  18.609  0.00  0.00    +0.000 A 
ATOM     21  C   UNL     1       2.111   8.425  18.250  0.00  0.00    +0.000 C 
ATOM     22  O   UNL     1       2.281   8.935  17.158  0.00  0.00    +0.000 OA
ENDBRANCH   5  12
TORSDOF 1
ENDMDL
MODEL 7
REMARK VINA RESULT:      -7.5      2.403      7.268
REMARK  Name = 
REMARK  5 active torsions:
REMARK  status: ('A' for Active; 'I' for Inactive)
REMARK    1  A    between atoms: C_1  and  C_2
REMARK    2  A    between atoms: C_2  and  C_3
REMARK    3  A    between atoms: C_5  and  N_6
REMARK    4  A    between atoms: C_18  and  C_19
REMARK    5  A    between atoms: C_18  and  C_20
REMARK                            x       y       z     vdW  Elec       q    Type
REMARK                         _______ _______ _______ _____ _____    ______ ____
ROOT
ATOM      1  C   UNL     1      -2.179  11.651  17.444  0.00  0.00    +0.000 C 
ATOM      2  C   UNL     1      -1.090  11.642  18.544  0.00  0.00    +0.000 C 
ATOM      3  C   UNL     1      -1.821  11.919  19.870  0.00  0.00    +0.000 C 
ATOM      4  C   UNL     1      -0.438  10.249  18.540  0.00  0.00    +0.000 C 
ATOM      5  C   UNL     1       0.862  10.198  19.346  0.00  0.00    +0.000 C 
ATOM      6  C   UNL     1       1.824  11.287  18.863  0.00  0.00    +0.000 C 
ATOM      7  C   UNL     1       1.196  12.690  18.871  0.00  0.00    +0.000 C 
ATOM      8  C   UNL     1       2.119  13.628  18.056  0.00  0.00    +0.000 C 
ATOM      9  C   UNL     1       1.146  13.272  20.294  0.00  0.00    +0.000 C 
ATOM     10  N   UNL     1      -0.121  12.701  18.199  0.00  0.00    +0.000 NA
ATOM     11  H   UNL     1       0.050  12.642  17.192  0.00  0.00    +0.000 HD
ENDROOT
BRANCH   5  12
ATOM     12  N   UNL     1       1.486   8.877  19.258  0.00  0.00    +0.000 N 
ATOM     13  C   UNL     1       2.171   8.405  18.167  0.00  0.00    +0.000 C 
ATOM     14  O   UNL     1       2.366   8.920  17.085  0.00  0.00    +0.000 OA
ATOM     15  C   UNL     1       2.679   7.088  18.528  0.00  0.00    +0.000 A 
ATOM     16  C   UNL     1       3.455   6.208  17.800  0.00  0.00    +0.000 A 
ATOM     17  C   UNL     1       3.809   5.010  18.426  0.00  0.00    +0.000 A 
ATOM     18  C   UNL     1       3.380   4.724  19.739  0.00  0.00    +0.000 A 
ATOM     19  C   UNL     1       2.595   5.637  20.452  0.00  0.00    +0.000 A 
ATOM     20  C   UNL     1       2.263   6.815  19.818  0.00  0.00    +0.000 A 
ATOM     21  C   UNL     1       1.498   7.969  20.286  0.00  0.00    +0.000 C 
ATOM     22  O   UNL     1       1.001   8.050  21.394  0.00  0.00    +0.000 OA
ENDBRANCH   5  12
TORSDOF 1
ENDMDL
MODEL 8
REMARK VINA RESULT:      -7.4      1.339      3.331
REMARK  Name = 
REMARK  5 active torsions:
REMARK  status: ('A' for Active; 'I' for Inactive)
REMARK    1  A    between atoms: C_1  and  C_2
REMARK    2  A    between atoms: C_2  and  C_3
REMARK    3  A    between atoms: C_5  and  N_6
REMARK    4  A    between atoms: C_18  and  C_19
REMARK    5  A    between atoms: C_18  and  C_20
REMARK                            x       y       z     vdW  Elec       q    Type
REMARK                         _______ _______ _______ _____ _____    ______ ____
ROOT
ATOM      1  C   UNL     1       4.947   4.672  16.440  0.00  0.00    +0.000 C 
ATOM      2  C   UNL     1       4.320   4.693  17.855  0.00  0.00    +0.000 C 
ATOM      3  C   UNL     1       5.473   4.422  18.837  0.00  0.00    +0.000 C 
ATOM      4  C   UNL     1       3.709   6.088  18.072  0.00  0.00    +0.000 C 
ATOM      5  C   UNL     1       2.781   6.149  19.286  0.00  0.00    +0.000 C 
ATOM      6  C   UNL     1       1.709   5.060  19.184  0.00  0.00    +0.000 C 
ATOM      7  C   UNL     1       2.297   3.655  18.980  0.00  0.00    +0.000 C 
ATOM      8  C   UNL     1       1.144   2.715  18.552  0.00  0.00    +0.000 C 
ATOM      9  C   UNL     1       2.848   3.082  20.296  0.00  0.00    +0.000 C 
ATOM     10  N   UNL     1       3.290   3.635  17.884  0.00  0.00    +0.000 NA
ATOM     11  H   UNL     1       2.772   3.689  17.003  0.00  0.00    +0.000 HD
ENDROOT
BRANCH   5  12
ATOM     12  N   UNL     1       2.168   7.472  19.416  0.00  0.00    +0.000 N 
ATOM     13  C   UNL     1       2.146   8.425  18.431  0.00  0.00    +0.000 C 
ATOM     14  O   UNL     1       2.632   8.410  17.318  0.00  0.00    +0.000 OA
ATOM     15  C   UNL     1       1.384   9.553  18.953  0.00  0.00    +0.000 A 
ATOM     16  C   UNL     1       1.043  10.747  18.350  0.00  0.00    +0.000 A 
ATOM     17  C   UNL     1       0.278  11.639  19.104  0.00  0.00    +0.000 A 
ATOM     18  C   UNL     1      -0.117  11.324  20.421  0.00  0.00    +0.000 A 
ATOM     19  C   UNL     1       0.243  10.103  21.004  0.00  0.00    +0.000 A 
ATOM     20  C   UNL     1       0.993   9.235  20.240  0.00  0.00    +0.000 A 
ATOM     21  C   UNL     1       1.496   7.895  20.535  0.00  0.00    +0.000 C 
ATOM     22  O   UNL     1       1.311   7.316  21.589  0.00  0.00    +0.000 OA
ENDBRANCH   5  12
TORSDOF 1
ENDMDL
MODEL 9
REMARK VINA RESULT:      -7.4      2.394      7.283
REMARK  Name = 
REMARK  5 active torsions:
REMARK  status: ('A' for Active; 'I' for Inactive)
REMARK    1  A    between atoms: C_1  and  C_2
REMARK    2  A    between atoms: C_2  and  C_3
REMARK    3  A    between atoms: C_5  and  N_6
REMARK    4  A    between atoms: C_18  and  C_19
REMARK    5  A    between atoms: C_18  and  C_20
REMARK                            x       y       z     vdW  Elec       q    Type
REMARK                         _______ _______ _______ _____ _____    ______ ____
ROOT
ATOM      1  C   UNL     1      -1.165  11.744  22.730  0.00  0.00    +0.000 C 
ATOM      2  C   UNL     1      -0.546  11.798  21.313  0.00  0.00    +0.000 C 
ATOM      3  C   UNL     1       0.348  13.050  21.286  0.00  0.00    +0.000 C 
ATOM      4  C   UNL     1       0.277  10.514  21.115  0.00  0.00    +0.000 C 
ATOM      5  C   UNL     1       0.676  10.280  19.657  0.00  0.00    +0.000 C 
ATOM      6  C   UNL     1      -0.564  10.315  18.760  0.00  0.00    +0.000 C 
ATOM      7  C   UNL     1      -1.395  11.597  18.931  0.00  0.00    +0.000 C 
ATOM      8  C   UNL     1      -2.767  11.368  18.253  0.00  0.00    +0.000 C 
ATOM      9  C   UNL     1      -0.749  12.784  18.197  0.00  0.00    +0.000 C 
ATOM     10  N   UNL     1      -1.667  11.881  20.357  0.00  0.00    +0.000 NA
ATOM     11  H   UNL     1      -2.384  11.220  20.667  0.00  0.00    +0.000 HD
ENDROOT
BRANCH   5  12
ATOM     12  N   UNL     1       1.395   9.015  19.502  0.00  0.00    +0.000 N 
ATOM     13  C   UNL     1       1.455   8.027  20.451  0.00  0.00    +0.000 C 
ATOM     14  O   UNL     1       0.993   7.993  21.574  0.00  0.00    +0.000 OA
ATOM     15  C   UNL     1       2.208   6.926  19.865  0.00  0.00    +0.000 A 
ATOM     16  C   UNL     1       2.522   5.688  20.390  0.00  0.00    +0.000 A 
ATOM     17  C   UNL     1       3.251   4.821  19.572  0.00  0.00    +0.000 A 
ATOM     18  C   UNL     1       3.646   5.208  18.275  0.00  0.00    +0.000 A 
ATOM     19  C   UNL     1       3.310   6.469  17.770  0.00  0.00    +0.000 A 
ATOM     20  C   UNL     1       2.586   7.306  18.590  0.00  0.00    +0.000 A 
ATOM     21  C   UNL     1       2.059   8.650  18.358  0.00  0.00    +0.000 C 
ATOM     22  O   UNL     1       2.208   9.268  17.321  0.00  0.00    +0.000 OA
ENDBRANCH   5  12
TORSDOF 1
ENDMDL
