MODEL 1
REMARK VINA RESULT:      -7.6      0.000      0.000
REMARK  Name = 
REMARK  10 active torsions:
REMARK  status: ('A' for Active; 'I' for Inactive)
REMARK    1  A    between atoms: C_1  and  O_2
REMARK    2  A    between atoms: O_2  and  C_3
REMARK    3  A    between atoms: C_6  and  S_7
REMARK    4  A    between atoms: S_7  and  N_10
REMARK    5  A    between atoms: N_10  and  C_11
REMARK    6  A    between atoms: C_16  and  C_17
REMARK    7  A    between atoms: N_19  and  C_20
REMARK    8  A    between atoms: C_20  and  C_21
REMARK    9  A    between atoms: C_28  and  O_29
REMARK   10  A    between atoms: O_29  and  C_30
REMARK                            x       y       z     vdW  Elec       q    Type
REMARK                         _______ _______ _______ _____ _____    ______ ____
ROOT
ATOM      1  C   UNL     1       4.948   5.992  17.024  0.00  0.00    +0.000 A 
ATOM      2  C   UNL     1       5.098   6.814  15.893  0.00  0.00    +0.000 A 
ATOM      3  C   UNL     1       5.460   6.277  14.657  0.00  0.00    +0.000 A 
ATOM      4  C   UNL     1       5.696   4.912  14.535  0.00  0.00    +0.000 A 
ATOM      5  C   UNL     1       5.573   4.088  15.653  0.00  0.00    +0.000 A 
ATOM      6  C   UNL     1       5.207   4.615  16.906  0.00  0.00    +0.000 A 
ENDROOT
BRANCH   6   7
ATOM      7  C   UNL     1       4.977   3.614  17.983  0.00  0.00    +0.000 C 
ATOM      8  O   UNL     1       5.602   3.704  19.036  0.00  0.00    +0.000 OA
ATOM      9  N   UNL     1       4.035   2.644  17.754  0.00  0.00    +0.000 N 
ATOM     10  H   UNL     1       3.385   2.755  16.979  0.00  0.00    +0.000 HD
BRANCH   9  11
ATOM     11  C   UNL     1       3.755   1.602  18.707  0.00  0.00    +0.000 C 
BRANCH  11  12
ATOM     12  C   UNL     1       2.845   2.074  19.797  0.00  0.00    +0.000 A 
ATOM     13  C   UNL     1       1.526   2.458  19.539  0.00  0.00    +0.000 A 
ATOM     14  C   UNL     1       0.711   2.867  20.591  0.00  0.00    +0.000 A 
ATOM     15  C   UNL     1       1.251   2.893  21.866  0.00  0.00    +0.000 A 
ATOM     16  N   UNL     1       2.526   2.556  22.151  0.00  0.00    +0.000 NA
ATOM     17  C   UNL     1       3.297   2.164  21.109  0.00  0.00    +0.000 A 
ENDBRANCH  11  12
ENDBRANCH   9  11
ENDBRANCH   6   7
BRANCH   1  18
ATOM     18  N   UNL     1       4.479   6.619  18.241  0.00  0.00    +0.000 N 
ATOM     19  H   UNL     1       5.140   6.468  19.006  0.00  0.00    +0.000 HD
BRANCH  18  20
ATOM     20  S   UNL     1       2.932   6.138  18.763  0.00  0.00    +0.000 S 
ATOM     21  O   UNL     1       3.101   5.512  20.057  0.00  0.00    +0.000 OA
ATOM     22  O   UNL     1       2.249   5.482  17.673  0.00  0.00    +0.000 OA
BRANCH  20  26
ATOM     23  C   UNL     1       0.730  10.102  19.434  0.00  0.00    +0.000 A 
ATOM     24  C   UNL     1       1.178   9.732  18.153  0.00  0.00    +0.000 A 
ATOM     25  C   UNL     1       1.862   8.537  17.942  0.00  0.00    +0.000 A 
ATOM     26  C   UNL     1       2.135   7.706  19.029  0.00  0.00    +0.000 A 
ATOM     27  C   UNL     1       1.762   8.089  20.317  0.00  0.00    +0.000 A 
ATOM     28  C   UNL     1       1.063   9.289  20.535  0.00  0.00    +0.000 A 
BRANCH  23  30
ATOM     29  C   UNL     1      -0.431  11.925  18.451  0.00  0.00    +0.000 C 
ATOM     30  O   UNL     1      -0.004  11.241  19.628  0.00  0.00    +0.000 OA
ENDBRANCH  23  30
BRANCH  28  31
ATOM     31  O   UNL     1       0.760   9.467  21.860  0.00  0.00    +0.000 OA
ATOM     32  C   UNL     1      -0.471   8.987  22.377  0.00  0.00    +0.000 C 
ENDBRANCH  28  31
ENDBRANCH  20  26
ENDBRANCH  18  20
ENDBRANCH   1  18
TORSDOF 8
ENDMDL
MODEL 2
REMARK VINA RESULT:      -7.6      1.813      4.843
REMARK  Name = 
REMARK  10 active torsions:
REMARK  status: ('A' for Active; 'I' for Inactive)
REMARK    1  A    between atoms: C_1  and  O_2
REMARK    2  A    between atoms: O_2  and  C_3
REMARK    3  A    between atoms: C_6  and  S_7
REMARK    4  A    between atoms: S_7  and  N_10
REMARK    5  A    between atoms: N_10  and  C_11
REMARK    6  A    between atoms: C_16  and  C_17
REMARK    7  A    between atoms: N_19  and  C_20
REMARK    8  A    between atoms: C_20  and  C_21
REMARK    9  A    between atoms: C_28  and  O_29
REMARK   10  A    between atoms: O_29  and  C_30
REMARK                            x       y       z     vdW  Elec       q    Type
REMARK                         _______ _______ _______ _____ _____    ______ ____
ROOT
ATOM      1  C   UNL     1       2.461   4.506  19.668  0.00  0.00    +0.000 A 
ATOM      2  C   UNL     1       1.146   4.208  20.066  0.00  0.00    +0.000 A 
ATOM      3  C   UNL     1       0.623   2.922  19.917  0.00  0.00    +0.000 A 
ATOM      4  C   UNL     1       1.401   1.919  19.350  0.00  0.00    +0.000 A 
ATOM      5  C   UNL     1       2.699   2.206  18.928  0.00  0.00    +0.000 A 
ATOM      6  C   UNL     1       3.240   3.497  19.075  0.00  0.00    +0.000 A 
ENDROOT
BRANCH   6   7
ATOM      7  C   UNL     1       4.677   3.637  18.714  0.00  0.00    +0.000 C 
ATOM      8  O   UNL     1       5.534   3.522  19.586  0.00  0.00    +0.000 OA
ATOM      9  N   UNL     1       4.979   3.857  17.394  0.00  0.00    +0.000 N 
ATOM     10  H   UNL     1       4.262   3.705  16.688  0.00  0.00    +0.000 HD
BRANCH   9  11
ATOM     11  C   UNL     1       6.330   4.046  16.934  0.00  0.00    +0.000 C 
BRANCH  11  12
ATOM     12  C   UNL     1       6.865   5.390  17.315  0.00  0.00    +0.000 A 
ATOM     13  C   UNL     1       7.706   5.561  18.418  0.00  0.00    +0.000 A 
ATOM     14  C   UNL     1       8.198   6.828  18.717  0.00  0.00    +0.000 A 
ATOM     15  C   UNL     1       7.818   7.886  17.908  0.00  0.00    +0.000 A 
ATOM     16  N   UNL     1       6.989   7.766  16.851  0.00  0.00    +0.000 NA
ATOM     17  C   UNL     1       6.523   6.523  16.585  0.00  0.00    +0.000 A 
ENDBRANCH  11  12
ENDBRANCH   9  11
ENDBRANCH   6   7
BRANCH   1  18
ATOM     18  N   UNL     1       2.951   5.839  19.947  0.00  0.00    +0.000 N 
ATOM     19  H   UNL     1       2.610   6.171  20.850  0.00  0.00    +0.000 HD
BRANCH  18  20
ATOM     20  S   UNL     1       2.589   7.014  18.770  0.00  0.00    +0.000 S 
ATOM     21  O   UNL     1       1.622   6.422  17.870  0.00  0.00    +0.000 OA
ATOM     22  O   UNL     1       3.819   7.605  18.298  0.00  0.00    +0.000 OA
BRANCH  20  26
ATOM     23  C   UNL     1       0.542  10.253  21.286  0.00  0.00    +0.000 A 
ATOM     24  C   UNL     1       0.877   9.007  21.846  0.00  0.00    +0.000 A 
ATOM     25  C   UNL     1       1.485   8.011  21.085  0.00  0.00    +0.000 A 
ATOM     26  C   UNL     1       1.738   8.243  19.733  0.00  0.00    +0.000 A 
ATOM     27  C   UNL     1       1.349   9.446  19.142  0.00  0.00    +0.000 A 
ATOM     28  C   UNL     1       0.744  10.458  19.907  0.00  0.00    +0.000 A 
BRANCH  23  30
ATOM     29  C   UNL     1      -1.028  10.879  22.953  0.00  0.00    +0.000 C 
ATOM     30  O   UNL     1       0.012  11.256  22.051  0.00  0.00    +0.000 OA
ENDBRANCH  23  30
BRANCH  28  31
ATOM     31  O   UNL     1       0.469  11.569  19.152  0.00  0.00    +0.000 OA
ATOM     32  C   UNL     1      -0.817  11.734  18.576  0.00  0.00    +0.000 C 
ENDBRANCH  28  31
ENDBRANCH  20  26
ENDBRANCH  18  20
ENDBRANCH   1  18
TORSDOF 8
ENDMDL
MODEL 3
REMARK VINA RESULT:      -7.6      1.600      1.961
REMARK  Name = 
REMARK  10 active torsions:
REMARK  status: ('A' for Active; 'I' for Inactive)
REMARK    1  A    between atoms: C_1  and  O_2
REMARK    2  A    between atoms: O_2  and  C_3
REMARK    3  A    between atoms: C_6  and  S_7
REMARK    4  A    between atoms: S_7  and  N_10
REMARK    5  A    between atoms: N_10  and  C_11
REMARK    6  A    between atoms: C_16  and  C_17
REMARK    7  A    between atoms: N_19  and  C_20
REMARK    8  A    between atoms: C_20  and  C_21
REMARK    9  A    between atoms: C_28  and  O_29
REMARK   10  A    between atoms: O_29  and  C_30
REMARK                            x       y       z     vdW  Elec       q    Type
REMARK                         _______ _______ _______ _____ _____    ______ ____
ROOT
ATOM      1  C   UNL     1       5.494   6.551  17.673  0.00  0.00    +0.000 A 
ATOM      2  C   UNL     1       6.310   7.691  17.575  0.00  0.00    +0.000 A 
ATOM      3  C   UNL     1       7.674   7.626  17.862  0.00  0.00    +0.000 A 
ATOM      4  C   UNL     1       8.242   6.423  18.267  0.00  0.00    +0.000 A 
ATOM      5  C   UNL     1       7.439   5.288  18.391  0.00  0.00    +0.000 A 
ATOM      6  C   UNL     1       6.063   5.339  18.104  0.00  0.00    +0.000 A 
ENDROOT
BRANCH   6   7
ATOM      7  C   UNL     1       5.349   4.034  18.141  0.00  0.00    +0.000 C 
ATOM      8  O   UNL     1       4.929   3.543  17.097  0.00  0.00    +0.000 OA
ATOM      9  N   UNL     1       5.225   3.416  19.359  0.00  0.00    +0.000 N 
ATOM     10  H   UNL     1       5.791   3.739  20.141  0.00  0.00    +0.000 HD
BRANCH   9  11
ATOM     11  C   UNL     1       4.523   2.169  19.523  0.00  0.00    +0.000 C 
BRANCH  11  12
ATOM     12  C   UNL     1       3.042   2.370  19.598  0.00  0.00    +0.000 A 
ATOM     13  C   UNL     1       2.426   2.884  20.743  0.00  0.00    +0.000 A 
ATOM     14  C   UNL     1       1.048   3.075  20.754  0.00  0.00    +0.000 A 
ATOM     15  C   UNL     1       0.329   2.731  19.621  0.00  0.00    +0.000 A 
ATOM     16  N   UNL     1       0.883   2.209  18.508  0.00  0.00    +0.000 NA
ATOM     17  C   UNL     1       2.225   2.031  18.525  0.00  0.00    +0.000 A 
ENDBRANCH  11  12
ENDBRANCH   9  11
ENDBRANCH   6   7
BRANCH   1  18
ATOM     18  N   UNL     1       4.111   6.689  17.267  0.00  0.00    +0.000 N 
ATOM     19  H   UNL     1       3.932   7.624  16.897  0.00  0.00    +0.000 HD
BRANCH  18  20
ATOM     20  S   UNL     1       2.957   6.357  18.473  0.00  0.00    +0.000 S 
ATOM     21  O   UNL     1       3.690   6.037  19.679  0.00  0.00    +0.000 OA
ATOM     22  O   UNL     1       1.946   5.481  17.930  0.00  0.00    +0.000 OA
BRANCH  20  26
ATOM     23  C   UNL     1       0.890  10.410  19.032  0.00  0.00    +0.000 A 
ATOM     24  C   UNL     1       1.598  10.117  17.853  0.00  0.00    +0.000 A 
ATOM     25  C   UNL     1       2.242   8.893  17.680  0.00  0.00    +0.000 A 
ATOM     26  C   UNL     1       2.211   7.954  18.711  0.00  0.00    +0.000 A 
ATOM     27  C   UNL     1       1.575   8.254  19.916  0.00  0.00    +0.000 A 
ATOM     28  C   UNL     1       0.914   9.482  20.092  0.00  0.00    +0.000 A 
BRANCH  23  30
ATOM     29  C   UNL     1       0.919  12.680  19.728  0.00  0.00    +0.000 C 
ATOM     30  O   UNL     1       0.197  11.582  19.172  0.00  0.00    +0.000 OA
ENDBRANCH  23  30
BRANCH  28  31
ATOM     31  O   UNL     1       0.327   9.570  21.327  0.00  0.00    +0.000 OA
ATOM     32  C   UNL     1       1.042   9.163  22.483  0.00  0.00    +0.000 C 
ENDBRANCH  28  31
ENDBRANCH  20  26
ENDBRANCH  18  20
ENDBRANCH   1  18
TORSDOF 8
ENDMDL
MODEL 4
REMARK VINA RESULT:      -7.5      2.021      4.746
REMARK  Name = 
REMARK  10 active torsions:
REMARK  status: ('A' for Active; 'I' for Inactive)
REMARK    1  A    between atoms: C_1  and  O_2
REMARK    2  A    between atoms: O_2  and  C_3
REMARK    3  A    between atoms: C_6  and  S_7
REMARK    4  A    between atoms: S_7  and  N_10
REMARK    5  A    between atoms: N_10  and  C_11
REMARK    6  A    between atoms: C_16  and  C_17
REMARK    7  A    between atoms: N_19  and  C_20
REMARK    8  A    between atoms: C_20  and  C_21
REMARK    9  A    between atoms: C_28  and  O_29
REMARK   10  A    between atoms: O_29  and  C_30
REMARK                            x       y       z     vdW  Elec       q    Type
REMARK                         _______ _______ _______ _____ _____    ______ ____
ROOT
ATOM      1  C   UNL     1       2.658   4.792  19.921  0.00  0.00    +0.000 A 
ATOM      2  C   UNL     1       1.630   4.476  20.825  0.00  0.00    +0.000 A 
ATOM      3  C   UNL     1       1.259   3.150  21.058  0.00  0.00    +0.000 A 
ATOM      4  C   UNL     1       1.899   2.121  20.377  0.00  0.00    +0.000 A 
ATOM      5  C   UNL     1       2.906   2.422  19.459  0.00  0.00    +0.000 A 
ATOM      6  C   UNL     1       3.292   3.753  19.217  0.00  0.00    +0.000 A 
ENDROOT
BRANCH   6   7
ATOM      7  C   UNL     1       4.468   3.930  18.322  0.00  0.00    +0.000 C 
ATOM      8  O   UNL     1       4.310   3.910  17.104  0.00  0.00    +0.000 OA
ATOM      9  N   UNL     1       5.686   4.145  18.914  0.00  0.00    +0.000 N 
ATOM     10  H   UNL     1       5.723   4.390  19.900  0.00  0.00    +0.000 HD
BRANCH   9  11
ATOM     11  C   UNL     1       6.898   4.292  18.150  0.00  0.00    +0.000 C 
BRANCH  11  12
ATOM     12  C   UNL     1       7.327   5.722  18.057  0.00  0.00    +0.000 A 
ATOM     13  C   UNL     1       8.079   6.332  19.066  0.00  0.00    +0.000 A 
ATOM     14  C   UNL     1       8.475   7.658  18.921  0.00  0.00    +0.000 A 
ATOM     15  C   UNL     1       8.091   8.335  17.776  0.00  0.00    +0.000 A 
ATOM     16  N   UNL     1       7.344   7.791  16.793  0.00  0.00    +0.000 NA
ATOM     17  C   UNL     1       6.971   6.500  16.961  0.00  0.00    +0.000 A 
ENDBRANCH  11  12
ENDBRANCH   9  11
ENDBRANCH   6   7
BRANCH   1  18
ATOM     18  N   UNL     1       3.040   6.185  19.813  0.00  0.00    +0.000 N 
ATOM     19  H   UNL     1       2.612   6.738  20.557  0.00  0.00    +0.000 HD
BRANCH  18  20
ATOM     20  S   UNL     1       2.691   6.925  18.321  0.00  0.00    +0.000 S 
ATOM     21  O   UNL     1       1.690   6.108  17.670  0.00  0.00    +0.000 OA
ATOM     22  O   UNL     1       3.929   7.289  17.673  0.00  0.00    +0.000 OA
BRANCH  20  26
ATOM     23  C   UNL     1       0.501  10.746  19.595  0.00  0.00    +0.000 A 
ATOM     24  C   UNL     1       1.201  10.686  18.376  0.00  0.00    +0.000 A 
ATOM     25  C   UNL     1       1.882   9.535  17.988  0.00  0.00    +0.000 A 
ATOM     26  C   UNL     1       1.896   8.430  18.839  0.00  0.00    +0.000 A 
ATOM     27  C   UNL     1       1.268   8.493  20.083  0.00  0.00    +0.000 A 
ATOM     28  C   UNL     1       0.570   9.649  20.476  0.00  0.00    +0.000 A 
BRANCH  23  30
ATOM     29  C   UNL     1      -0.375  12.852  18.936  0.00  0.00    +0.000 C 
ATOM     30  O   UNL     1      -0.228  11.851  19.942  0.00  0.00    +0.000 OA
ENDBRANCH  23  30
BRANCH  28  31
ATOM     31  O   UNL     1      -0.002   9.500  21.713  0.00  0.00    +0.000 OA
ATOM     32  C   UNL     1       0.817   9.312  22.856  0.00  0.00    +0.000 C 
ENDBRANCH  28  31
ENDBRANCH  20  26
ENDBRANCH  18  20
ENDBRANCH   1  18
TORSDOF 8
ENDMDL
MODEL 5
REMARK VINA RESULT:      -7.5      1.827      5.271
REMARK  Name = 
REMARK  10 active torsions:
REMARK  status: ('A' for Active; 'I' for Inactive)
REMARK    1  A    between atoms: C_1  and  O_2
REMARK    2  A    between atoms: O_2  and  C_3
REMARK    3  A    between atoms: C_6  and  S_7
REMARK    4  A    between atoms: S_7  and  N_10
REMARK    5  A    between atoms: N_10  and  C_11
REMARK    6  A    between atoms: C_16  and  C_17
REMARK    7  A    between atoms: N_19  and  C_20
REMARK    8  A    between atoms: C_20  and  C_21
REMARK    9  A    between atoms: C_28  and  O_29
REMARK   10  A    between atoms: O_29  and  C_30
REMARK                            x       y       z     vdW  Elec       q    Type
REMARK                         _______ _______ _______ _____ _____    ______ ____
ROOT
ATOM      1  C   UNL     1       3.014   4.538  19.331  0.00  0.00    +0.000 A 
ATOM      2  C   UNL     1       1.868   3.896  19.833  0.00  0.00    +0.000 A 
ATOM      3  C   UNL     1       1.649   2.536  19.607  0.00  0.00    +0.000 A 
ATOM      4  C   UNL     1       2.562   1.800  18.861  0.00  0.00    +0.000 A 
ATOM      5  C   UNL     1       3.692   2.429  18.337  0.00  0.00    +0.000 A 
ATOM      6  C   UNL     1       3.927   3.799  18.558  0.00  0.00    +0.000 A 
ENDROOT
BRANCH   6   7
ATOM      7  C   UNL     1       5.232   4.316  18.065  0.00  0.00    +0.000 C 
ATOM      8  O   UNL     1       6.179   4.410  18.841  0.00  0.00    +0.000 OA
ATOM      9  N   UNL     1       5.324   4.633  16.734  0.00  0.00    +0.000 N 
ATOM     10  H   UNL     1       4.599   4.314  16.095  0.00  0.00    +0.000 HD
BRANCH   9  11
ATOM     11  C   UNL     1       6.524   5.176  16.152  0.00  0.00    +0.000 C 
BRANCH  11  12
ATOM     12  C   UNL     1       6.663   4.801  14.711  0.00  0.00    +0.000 A 
ATOM     13  C   UNL     1       7.614   5.404  13.882  0.00  0.00    +0.000 A 
ATOM     14  C   UNL     1       7.722   5.002  12.554  0.00  0.00    +0.000 A 
ATOM     15  C   UNL     1       6.861   4.019  12.095  0.00  0.00    +0.000 A 
ATOM     16  N   UNL     1       5.914   3.432  12.855  0.00  0.00    +0.000 NA
ATOM     17  C   UNL     1       5.830   3.844  14.143  0.00  0.00    +0.000 A 
ENDBRANCH  11  12
ENDBRANCH   9  11
ENDBRANCH   6   7
BRANCH   1  18
ATOM     18  N   UNL     1       3.207   5.926  19.693  0.00  0.00    +0.000 N 
ATOM     19  H   UNL     1       2.776   6.130  20.596  0.00  0.00    +0.000 HD
BRANCH  18  20
ATOM     20  S   UNL     1       2.646   7.064  18.558  0.00  0.00    +0.000 S 
ATOM     21  O   UNL     1       1.640   6.398  17.758  0.00  0.00    +0.000 OA
ATOM     22  O   UNL     1       3.777   7.740  17.968  0.00  0.00    +0.000 OA
BRANCH  20  26
ATOM     23  C   UNL     1       0.631  10.153  21.281  0.00  0.00    +0.000 A 
ATOM     24  C   UNL     1       1.001   8.888  21.773  0.00  0.00    +0.000 A 
ATOM     25  C   UNL     1       1.600   7.938  20.949  0.00  0.00    +0.000 A 
ATOM     26  C   UNL     1       1.807   8.235  19.602  0.00  0.00    +0.000 A 
ATOM     27  C   UNL     1       1.383   9.456  19.079  0.00  0.00    +0.000 A 
ATOM     28  C   UNL     1       0.787  10.423  19.907  0.00  0.00    +0.000 A 
BRANCH  23  30
ATOM     29  C   UNL     1      -0.959  10.699  22.957  0.00  0.00    +0.000 C 
ATOM     30  O   UNL     1       0.110  11.112  22.106  0.00  0.00    +0.000 OA
ENDBRANCH  23  30
BRANCH  28  31
ATOM     31  O   UNL     1       0.473  11.562  19.212  0.00  0.00    +0.000 OA
ATOM     32  C   UNL     1      -0.842  11.747  18.711  0.00  0.00    +0.000 C 
ENDBRANCH  28  31
ENDBRANCH  20  26
ENDBRANCH  18  20
ENDBRANCH   1  18
TORSDOF 8
ENDMDL
MODEL 6
REMARK VINA RESULT:      -7.4      1.404      1.688
REMARK  Name = 
REMARK  10 active torsions:
REMARK  status: ('A' for Active; 'I' for Inactive)
REMARK    1  A    between atoms: C_1  and  O_2
REMARK    2  A    between atoms: O_2  and  C_3
REMARK    3  A    between atoms: C_6  and  S_7
REMARK    4  A    between atoms: S_7  and  N_10
REMARK    5  A    between atoms: N_10  and  C_11
REMARK    6  A    between atoms: C_16  and  C_17
REMARK    7  A    between atoms: N_19  and  C_20
REMARK    8  A    between atoms: C_20  and  C_21
REMARK    9  A    between atoms: C_28  and  O_29
REMARK   10  A    between atoms: O_29  and  C_30
REMARK                            x       y       z     vdW  Elec       q    Type
REMARK                         _______ _______ _______ _____ _____    ______ ____
ROOT
ATOM      1  C   UNL     1       5.443   6.573  17.672  0.00  0.00    +0.000 A 
ATOM      2  C   UNL     1       6.259   7.713  17.567  0.00  0.00    +0.000 A 
ATOM      3  C   UNL     1       7.631   7.639  17.810  0.00  0.00    +0.000 A 
ATOM      4  C   UNL     1       8.207   6.429  18.180  0.00  0.00    +0.000 A 
ATOM      5  C   UNL     1       7.406   5.295  18.311  0.00  0.00    +0.000 A 
ATOM      6  C   UNL     1       6.021   5.353  18.067  0.00  0.00    +0.000 A 
ENDROOT
BRANCH   6   7
ATOM      7  C   UNL     1       5.305   4.049  18.107  0.00  0.00    +0.000 C 
ATOM      8  O   UNL     1       4.843   3.581  17.070  0.00  0.00    +0.000 OA
ATOM      9  N   UNL     1       5.226   3.408  19.316  0.00  0.00    +0.000 N 
ATOM     10  H   UNL     1       5.824   3.714  20.081  0.00  0.00    +0.000 HD
BRANCH   9  11
ATOM     11  C   UNL     1       4.527   2.161  19.483  0.00  0.00    +0.000 C 
BRANCH  11  12
ATOM     12  C   UNL     1       3.054   2.366  19.648  0.00  0.00    +0.000 A 
ATOM     13  C   UNL     1       2.149   2.056  18.629  0.00  0.00    +0.000 A 
ATOM     14  C   UNL     1       0.786   2.242  18.840  0.00  0.00    +0.000 A 
ATOM     15  C   UNL     1       0.376   2.747  20.063  0.00  0.00    +0.000 A 
ATOM     16  N   UNL     1       1.218   3.082  21.061  0.00  0.00    +0.000 NA
ATOM     17  C   UNL     1       2.539   2.894  20.827  0.00  0.00    +0.000 A 
ENDBRANCH  11  12
ENDBRANCH   9  11
ENDBRANCH   6   7
BRANCH   1  18
ATOM     18  N   UNL     1       4.049   6.720  17.311  0.00  0.00    +0.000 N 
ATOM     19  H   UNL     1       3.852   7.674  17.003  0.00  0.00    +0.000 HD
BRANCH  18  20
ATOM     20  S   UNL     1       2.930   6.304  18.524  0.00  0.00    +0.000 S 
ATOM     21  O   UNL     1       3.697   5.956  19.700  0.00  0.00    +0.000 OA
ATOM     22  O   UNL     1       1.934   5.421  17.964  0.00  0.00    +0.000 OA
BRANCH  20  26
ATOM     23  C   UNL     1       0.752  10.256  19.329  0.00  0.00    +0.000 A 
ATOM     24  C   UNL     1       1.207   9.932  18.038  0.00  0.00    +0.000 A 
ATOM     25  C   UNL     1       1.884   8.741  17.787  0.00  0.00    +0.000 A 
ATOM     26  C   UNL     1       2.142   7.867  18.843  0.00  0.00    +0.000 A 
ATOM     27  C   UNL     1       1.762   8.203  20.142  0.00  0.00    +0.000 A 
ATOM     28  C   UNL     1       1.070   9.399  20.400  0.00  0.00    +0.000 A 
BRANCH  23  30
ATOM     29  C   UNL     1      -0.821  11.829  18.497  0.00  0.00    +0.000 C 
ATOM     30  O   UNL     1       0.025  11.392  19.561  0.00  0.00    +0.000 OA
ENDBRANCH  23  30
BRANCH  28  31
ATOM     31  O   UNL     1       0.758   9.529  21.729  0.00  0.00    +0.000 OA
ATOM     32  C   UNL     1      -0.472   9.021  22.221  0.00  0.00    +0.000 C 
ENDBRANCH  28  31
ENDBRANCH  20  26
ENDBRANCH  18  20
ENDBRANCH   1  18
TORSDOF 8
ENDMDL
MODEL 7
REMARK VINA RESULT:      -7.4      1.922      5.045
REMARK  Name = 
REMARK  10 active torsions:
REMARK  status: ('A' for Active; 'I' for Inactive)
REMARK    1  A    between atoms: C_1  and  O_2
REMARK    2  A    between atoms: O_2  and  C_3
REMARK    3  A    between atoms: C_6  and  S_7
REMARK    4  A    between atoms: S_7  and  N_10
REMARK    5  A    between atoms: N_10  and  C_11
REMARK    6  A    between atoms: C_16  and  C_17
REMARK    7  A    between atoms: N_19  and  C_20
REMARK    8  A    between atoms: C_20  and  C_21
REMARK    9  A    between atoms: C_28  and  O_29
REMARK   10  A    between atoms: O_29  and  C_30
REMARK                            x       y       z     vdW  Elec       q    Type
REMARK                         _______ _______ _______ _____ _____    ______ ____
ROOT
ATOM      1  C   UNL     1       2.306   4.210  18.050  0.00  0.00    +0.000 A 
ATOM      2  C   UNL     1       1.081   3.647  18.450  0.00  0.00    +0.000 A 
ATOM      3  C   UNL     1       0.999   2.313  18.849  0.00  0.00    +0.000 A 
ATOM      4  C   UNL     1       2.137   1.513  18.837  0.00  0.00    +0.000 A 
ATOM      5  C   UNL     1       3.354   2.051  18.420  0.00  0.00    +0.000 A 
ATOM      6  C   UNL     1       3.453   3.396  18.017  0.00  0.00    +0.000 A 
ENDROOT
BRANCH   6   7
ATOM      7  C   UNL     1       4.829   3.883  17.728  0.00  0.00    +0.000 C 
ATOM      8  O   UNL     1       5.674   3.872  18.619  0.00  0.00    +0.000 OA
ATOM      9  N   UNL     1       5.099   4.293  16.448  0.00  0.00    +0.000 N 
ATOM     10  H   UNL     1       4.447   4.058  15.703  0.00  0.00    +0.000 HD
BRANCH   9  11
ATOM     11  C   UNL     1       6.383   4.817  16.061  0.00  0.00    +0.000 C 
BRANCH  11  12
ATOM     12  C   UNL     1       6.644   4.628  14.601  0.00  0.00    +0.000 A 
ATOM     13  C   UNL     1       5.967   3.662  13.851  0.00  0.00    +0.000 A 
ATOM     14  C   UNL     1       6.228   3.541  12.490  0.00  0.00    +0.000 A 
ATOM     15  C   UNL     1       7.172   4.384  11.926  0.00  0.00    +0.000 A 
ATOM     16  N   UNL     1       7.865   5.309  12.620  0.00  0.00    +0.000 NA
ATOM     17  C   UNL     1       7.593   5.404  13.943  0.00  0.00    +0.000 A 
ENDBRANCH  11  12
ENDBRANCH   9  11
ENDBRANCH   6   7
BRANCH   1  18
ATOM     18  N   UNL     1       2.317   5.624  17.742  0.00  0.00    +0.000 N 
ATOM     19  H   UNL     1       2.641   5.787  16.787  0.00  0.00    +0.000 HD
BRANCH  18  20
ATOM     20  S   UNL     1       3.235   6.595  18.796  0.00  0.00    +0.000 S 
ATOM     21  O   UNL     1       4.320   7.152  18.016  0.00  0.00    +0.000 OA
ATOM     22  O   UNL     1       3.463   5.872  20.026  0.00  0.00    +0.000 OA
BRANCH  20  26
ATOM     23  C   UNL     1       0.189   9.910  19.658  0.00  0.00    +0.000 A 
ATOM     24  C   UNL     1       0.941   9.911  18.469  0.00  0.00    +0.000 A 
ATOM     25  C   UNL     1       1.880   8.916  18.205  0.00  0.00    +0.000 A 
ATOM     26  C   UNL     1       2.101   7.918  19.154  0.00  0.00    +0.000 A 
ATOM     27  C   UNL     1       1.418   7.940  20.370  0.00  0.00    +0.000 A 
ATOM     28  C   UNL     1       0.462   8.936  20.638  0.00  0.00    +0.000 A 
BRANCH  23  30
ATOM     29  C   UNL     1      -0.332  12.151  20.244  0.00  0.00    +0.000 C 
ATOM     30  O   UNL     1      -0.783  10.846  19.884  0.00  0.00    +0.000 OA
ENDBRANCH  23  30
BRANCH  28  31
ATOM     31  O   UNL     1      -0.119   8.764  21.867  0.00  0.00    +0.000 OA
ATOM     32  C   UNL     1       0.322   9.535  22.973  0.00  0.00    +0.000 C 
ENDBRANCH  28  31
ENDBRANCH  20  26
ENDBRANCH  18  20
ENDBRANCH   1  18
TORSDOF 8
ENDMDL
MODEL 8
REMARK VINA RESULT:      -7.4      1.919      4.913
REMARK  Name = 
REMARK  10 active torsions:
REMARK  status: ('A' for Active; 'I' for Inactive)
REMARK    1  A    between atoms: C_1  and  O_2
REMARK    2  A    between atoms: O_2  and  C_3
REMARK    3  A    between atoms: C_6  and  S_7
REMARK    4  A    between atoms: S_7  and  N_10
REMARK    5  A    between atoms: N_10  and  C_11
REMARK    6  A    between atoms: C_16  and  C_17
REMARK    7  A    between atoms: N_19  and  C_20
REMARK    8  A    between atoms: C_20  and  C_21
REMARK    9  A    between atoms: C_28  and  O_29
REMARK   10  A    between atoms: O_29  and  C_30
REMARK                            x       y       z     vdW  Elec       q    Type
REMARK                         _______ _______ _______ _____ _____    ______ ____
ROOT
ATOM      1  C   UNL     1       3.373   4.902  19.929  0.00  0.00    +0.000 A 
ATOM      2  C   UNL     1       2.304   4.309  20.623  0.00  0.00    +0.000 A 
ATOM      3  C   UNL     1       2.274   2.933  20.858  0.00  0.00    +0.000 A 
ATOM      4  C   UNL     1       3.304   2.126  20.388  0.00  0.00    +0.000 A 
ATOM      5  C   UNL     1       4.360   2.698  19.678  0.00  0.00    +0.000 A 
ATOM      6  C   UNL     1       4.404   4.084  19.435  0.00  0.00    +0.000 A 
ENDROOT
BRANCH   6   7
ATOM      7  C   UNL     1       5.648   4.585  18.789  0.00  0.00    +0.000 C 
ATOM      8  O   UNL     1       6.643   4.797  19.476  0.00  0.00    +0.000 OA
ATOM      9  N   UNL     1       5.629   4.754  17.428  0.00  0.00    +0.000 N 
ATOM     10  H   UNL     1       4.873   4.341  16.886  0.00  0.00    +0.000 HD
BRANCH   9  11
ATOM     11  C   UNL     1       6.760   5.268  16.700  0.00  0.00    +0.000 C 
BRANCH  11  12
ATOM     12  C   UNL     1       6.723   4.868  15.259  0.00  0.00    +0.000 A 
ATOM     13  C   UNL     1       5.802   3.932  14.779  0.00  0.00    +0.000 A 
ATOM     14  C   UNL     1       5.791   3.611  13.426  0.00  0.00    +0.000 A 
ATOM     15  C   UNL     1       6.716   4.227  12.598  0.00  0.00    +0.000 A 
ATOM     16  N   UNL     1       7.636   5.115  13.027  0.00  0.00    +0.000 NA
ATOM     17  C   UNL     1       7.626   5.407  14.350  0.00  0.00    +0.000 A 
ENDBRANCH  11  12
ENDBRANCH   9  11
ENDBRANCH   6   7
BRANCH   1  18
ATOM     18  N   UNL     1       3.368   6.345  19.814  0.00  0.00    +0.000 N 
ATOM     19  H   UNL     1       2.799   6.767  20.550  0.00  0.00    +0.000 HD
BRANCH  18  20
ATOM     20  S   UNL     1       2.847   6.957  18.314  0.00  0.00    +0.000 S 
ATOM     21  O   UNL     1       1.893   6.009  17.781  0.00  0.00    +0.000 OA
ATOM     22  O   UNL     1       3.996   7.400  17.560  0.00  0.00    +0.000 OA
BRANCH  20  26
ATOM     23  C   UNL     1       0.374  10.625  19.518  0.00  0.00    +0.000 A 
ATOM     24  C   UNL     1       1.127  10.619  18.329  0.00  0.00    +0.000 A 
ATOM     25  C   UNL     1       1.893   9.515  17.963  0.00  0.00    +0.000 A 
ATOM     26  C   UNL     1       1.940   8.406  18.808  0.00  0.00    +0.000 A 
ATOM     27  C   UNL     1       1.258   8.420  20.024  0.00  0.00    +0.000 A 
ATOM     28  C   UNL     1       0.475   9.527  20.395  0.00  0.00    +0.000 A 
BRANCH  23  30
ATOM     29  C   UNL     1       0.170  12.732  20.593  0.00  0.00    +0.000 C 
ATOM     30  O   UNL     1      -0.435  11.680  19.841  0.00  0.00    +0.000 OA
ENDBRANCH  23  30
BRANCH  28  31
ATOM     31  O   UNL     1      -0.138   9.333  21.606  0.00  0.00    +0.000 OA
ATOM     32  C   UNL     1       0.623   9.389  22.802  0.00  0.00    +0.000 C 
ENDBRANCH  28  31
ENDBRANCH  20  26
ENDBRANCH  18  20
ENDBRANCH   1  18
TORSDOF 8
ENDMDL
MODEL 9
REMARK VINA RESULT:      -7.4      1.881      4.823
REMARK  Name = 
REMARK  10 active torsions:
REMARK  status: ('A' for Active; 'I' for Inactive)
REMARK    1  A    between atoms: C_1  and  O_2
REMARK    2  A    between atoms: O_2  and  C_3
REMARK    3  A    between atoms: C_6  and  S_7
REMARK    4  A    between atoms: S_7  and  N_10
REMARK    5  A    between atoms: N_10  and  C_11
REMARK    6  A    between atoms: C_16  and  C_17
REMARK    7  A    between atoms: N_19  and  C_20
REMARK    8  A    between atoms: C_20  and  C_21
REMARK    9  A    between atoms: C_28  and  O_29
REMARK   10  A    between atoms: O_29  and  C_30
REMARK                            x       y       z     vdW  Elec       q    Type
REMARK                         _______ _______ _______ _____ _____    ______ ____
ROOT
ATOM      1  C   UNL     1       2.517   4.706  19.807  0.00  0.00    +0.000 A 
ATOM      2  C   UNL     1       1.242   4.520  20.370  0.00  0.00    +0.000 A 
ATOM      3  C   UNL     1       0.655   3.255  20.418  0.00  0.00    +0.000 A 
ATOM      4  C   UNL     1       1.326   2.158  19.889  0.00  0.00    +0.000 A 
ATOM      5  C   UNL     1       2.581   2.331  19.307  0.00  0.00    +0.000 A 
ATOM      6  C   UNL     1       3.187   3.600  19.253  0.00  0.00    +0.000 A 
ENDROOT
BRANCH   6   7
ATOM      7  C   UNL     1       4.581   3.627  18.732  0.00  0.00    +0.000 C 
ATOM      8  O   UNL     1       5.482   3.117  19.391  0.00  0.00    +0.000 OA
ATOM      9  N   UNL     1       4.786   4.200  17.503  0.00  0.00    +0.000 N 
ATOM     10  H   UNL     1       3.986   4.386  16.902  0.00  0.00    +0.000 HD
BRANCH   9  11
ATOM     11  C   UNL     1       6.095   4.317  16.916  0.00  0.00    +0.000 C 
BRANCH  11  12
ATOM     12  C   UNL     1       6.833   5.511  17.433  0.00  0.00    +0.000 A 
ATOM     13  C   UNL     1       6.749   6.756  16.804  0.00  0.00    +0.000 A 
ATOM     14  C   UNL     1       7.435   7.843  17.337  0.00  0.00    +0.000 A 
ATOM     15  C   UNL     1       8.196   7.643  18.477  0.00  0.00    +0.000 A 
ATOM     16  N   UNL     1       8.323   6.452  19.097  0.00  0.00    +0.000 NA
ATOM     17  C   UNL     1       7.647   5.411  18.555  0.00  0.00    +0.000 A 
ENDBRANCH  11  12
ENDBRANCH   9  11
ENDBRANCH   6   7
BRANCH   1  18
ATOM     18  N   UNL     1       3.088   6.034  19.884  0.00  0.00    +0.000 N 
ATOM     19  H   UNL     1       2.864   6.475  20.778  0.00  0.00    +0.000 HD
BRANCH  18  20
ATOM     20  S   UNL     1       2.641   7.096  18.632  0.00  0.00    +0.000 S 
ATOM     21  O   UNL     1       1.732   6.372  17.771  0.00  0.00    +0.000 OA
ATOM     22  O   UNL     1       3.824   7.753  18.126  0.00  0.00    +0.000 OA
BRANCH  20  26
ATOM     23  C   UNL     1       0.325  10.313  20.935  0.00  0.00    +0.000 A 
ATOM     24  C   UNL     1       0.696   9.106  21.555  0.00  0.00    +0.000 A 
ATOM     25  C   UNL     1       1.386   8.116  20.859  0.00  0.00    +0.000 A 
ATOM     26  C   UNL     1       1.688   8.314  19.512  0.00  0.00    +0.000 A 
ATOM     27  C   UNL     1       1.266   9.473  18.860  0.00  0.00    +0.000 A 
ATOM     28  C   UNL     1       0.578  10.479  19.559  0.00  0.00    +0.000 A 
BRANCH  23  30
ATOM     29  C   UNL     1      -0.889  10.937  22.877  0.00  0.00    +0.000 C 
ATOM     30  O   UNL     1      -0.289  11.313  21.638  0.00  0.00    +0.000 OA
ENDBRANCH  23  30
BRANCH  28  31
ATOM     31  O   UNL     1       0.282  11.547  18.752  0.00  0.00    +0.000 OA
ATOM     32  C   UNL     1       1.166  12.655  18.689  0.00  0.00    +0.000 C 
ENDBRANCH  28  31
ENDBRANCH  20  26
ENDBRANCH  18  20
ENDBRANCH   1  18
TORSDOF 8
ENDMDL
