MODEL 1
REMARK VINA RESULT:      -8.9      0.000      0.000
REMARK  Name = 
REMARK  6 active torsions:
REMARK  status: ('A' for Active; 'I' for Inactive)
REMARK    1  A    between atoms: C_2  and  C_4
REMARK    2  A    between atoms: N_10  and  C_11
REMARK    3  A    between atoms: C_11  and  C_12
REMARK    4  A    between atoms: C_16  and  N_17
REMARK    5  A    between atoms: C_18  and  C_20
REMARK    6  A    between atoms: C_20  and  C_21
REMARK                            x       y       z     vdW  Elec       q    Type
REMARK                         _______ _______ _______ _____ _____    ______ ____
ROOT
ATOM      1  C   UNL     1       2.364   8.934  18.028  0.00  0.00    +0.000 C 
ENDROOT
BRANCH   1   8
ATOM      2  C   UNL     1       3.438   3.225  19.896  0.00  0.00    +0.000 A 
ATOM      3  C   UNL     1       2.455   3.050  20.882  0.00  0.00    +0.000 A 
ATOM      4  C   UNL     1       1.563   4.080  21.152  0.00  0.00    +0.000 A 
ATOM      5  C   UNL     1       1.669   5.283  20.456  0.00  0.00    +0.000 A 
ATOM      6  C   UNL     1       2.676   5.485  19.470  0.00  0.00    +0.000 A 
ATOM      7  C   UNL     1       2.868   6.681  18.732  0.00  0.00    +0.000 A 
ATOM      8  N   UNL     1       2.049   7.822  18.939  0.00  0.00    +0.000 N 
ATOM      9  N   UNL     1       3.866   6.806  17.841  0.00  0.00    +0.000 NA
ATOM     10  C   UNL     1       4.657   5.749  17.654  0.00  0.00    +0.000 A 
ATOM     11  N   UNL     1       4.542   4.574  18.263  0.00  0.00    +0.000 NA
ATOM     12  C   UNL     1       3.571   4.432  19.189  0.00  0.00    +0.000 A 
ATOM     13  H   UNL     1       1.069   7.569  18.896  0.00  0.00    +0.000 HD
BRANCH   2  15
ATOM     14  N   UNL     1       4.104   1.316  18.521  0.00  0.00    +0.000 N 
ATOM     15  C   UNL     1       4.330   2.052  19.650  0.00  0.00    +0.000 C 
ATOM     16  O   UNL     1       5.206   1.733  20.444  0.00  0.00    +0.000 OA
ATOM     17  H   UNL     1       4.782   0.606  18.281  0.00  0.00    +0.000 HD
ATOM     18  H   UNL     1       3.538   1.712  17.778  0.00  0.00    +0.000 HD
ENDBRANCH   2  15
ENDBRANCH   1   8
BRANCH   1  19
ATOM     19  C   UNL     1       1.490  10.146  18.279  0.00  0.00    +0.000 A 
ATOM     20  C   UNL     1       2.055  11.424  18.403  0.00  0.00    +0.000 A 
ATOM     21  C   UNL     1       1.239  12.539  18.570  0.00  0.00    +0.000 A 
ATOM     22  C   UNL     1      -0.150  12.397  18.632  0.00  0.00    +0.000 A 
ATOM     23  C   UNL     1      -0.741  11.136  18.527  0.00  0.00    +0.000 A 
ATOM     24  C   UNL     1       0.086  10.019  18.335  0.00  0.00    +0.000 A 
BRANCH  23  25
ATOM     25  N   UNL     1      -2.140  10.935  18.587  0.00  0.00    +0.000 N 
ATOM     26  C   UNL     1      -3.013  10.968  17.509  0.00  0.00    +0.000 C 
ATOM     27  O   UNL     1      -2.709  11.214  16.341  0.00  0.00    +0.000 OA
ATOM     28  H   UNL     1      -2.553  10.894  19.511  0.00  0.00    +0.000 HD
BRANCH  26  29
ATOM     29  C   UNL     1      -4.464  10.707  17.879  0.00  0.00    +0.000 C 
BRANCH  29  30
ATOM     30  C   UNL     1      -5.254  11.968  18.136  0.00  0.00    +0.000 A 
ATOM     31  C   UNL     1      -5.234  12.583  19.396  0.00  0.00    +0.000 A 
ATOM     32  C   UNL     1      -5.948  13.761  19.625  0.00  0.00    +0.000 A 
ATOM     33  C   UNL     1      -6.682  14.343  18.594  0.00  0.00    +0.000 A 
ATOM     34  C   UNL     1      -6.698  13.750  17.333  0.00  0.00    +0.000 A 
ATOM     35  C   UNL     1      -5.988  12.568  17.103  0.00  0.00    +0.000 A 
ENDBRANCH  29  30
ENDBRANCH  26  29
ENDBRANCH  23  25
ENDBRANCH   1  19
TORSDOF 6
ENDMDL
MODEL 2
REMARK VINA RESULT:      -8.8      2.319     10.372
REMARK  Name = 
REMARK  6 active torsions:
REMARK  status: ('A' for Active; 'I' for Inactive)
REMARK    1  A    between atoms: C_2  and  C_4
REMARK    2  A    between atoms: N_10  and  C_11
REMARK    3  A    between atoms: C_11  and  C_12
REMARK    4  A    between atoms: C_16  and  N_17
REMARK    5  A    between atoms: C_18  and  C_20
REMARK    6  A    between atoms: C_20  and  C_21
REMARK                            x       y       z     vdW  Elec       q    Type
REMARK                         _______ _______ _______ _____ _____    ______ ____
ROOT
ATOM      1  C   UNL     1       1.548  10.026  18.463  0.00  0.00    +0.000 C 
ENDROOT
BRANCH   1   8
ATOM      2  C   UNL     1      -4.302  11.666  17.894  0.00  0.00    +0.000 A 
ATOM      3  C   UNL     1      -4.647  11.094  16.660  0.00  0.00    +0.000 A 
ATOM      4  C   UNL     1      -3.702  10.360  15.955  0.00  0.00    +0.000 A 
ATOM      5  C   UNL     1      -2.415  10.218  16.472  0.00  0.00    +0.000 A 
ATOM      6  C   UNL     1      -2.041  10.813  17.710  0.00  0.00    +0.000 A 
ATOM      7  C   UNL     1      -0.752  10.737  18.298  0.00  0.00    +0.000 A 
ATOM      8  N   UNL     1       0.315  10.048  17.661  0.00  0.00    +0.000 N 
ATOM      9  N   UNL     1      -0.468  11.356  19.456  0.00  0.00    +0.000 NA
ATOM     10  C   UNL     1      -1.456  12.026  20.051  0.00  0.00    +0.000 A 
ATOM     11  N   UNL     1      -2.703  12.129  19.608  0.00  0.00    +0.000 NA
ATOM     12  C   UNL     1      -3.009  11.546  18.430  0.00  0.00    +0.000 A 
ATOM     13  H   UNL     1       0.025   9.115  17.393  0.00  0.00    +0.000 HD
BRANCH   2  15
ATOM     14  N   UNL     1      -5.697  12.022  19.870  0.00  0.00    +0.000 N 
ATOM     15  C   UNL     1      -5.391  12.409  18.595  0.00  0.00    +0.000 C 
ATOM     16  O   UNL     1      -6.018  13.305  18.043  0.00  0.00    +0.000 OA
ATOM     17  H   UNL     1      -6.337  12.601  20.395  0.00  0.00    +0.000 HD
ATOM     18  H   UNL     1      -5.037  11.446  20.383  0.00  0.00    +0.000 HD
ENDBRANCH   2  15
ENDBRANCH   1   8
BRANCH   1  19
ATOM     19  C   UNL     1       1.702   8.735  19.242  0.00  0.00    +0.000 A 
ATOM     20  C   UNL     1       1.149   8.600  20.523  0.00  0.00    +0.000 A 
ATOM     21  C   UNL     1       1.241   7.389  21.205  0.00  0.00    +0.000 A 
ATOM     22  C   UNL     1       1.900   6.301  20.627  0.00  0.00    +0.000 A 
ATOM     23  C   UNL     1       2.474   6.409  19.358  0.00  0.00    +0.000 A 
ATOM     24  C   UNL     1       2.357   7.625  18.667  0.00  0.00    +0.000 A 
BRANCH  23  25
ATOM     25  N   UNL     1       3.155   5.341  18.728  0.00  0.00    +0.000 N 
ATOM     26  C   UNL     1       2.614   4.472  17.792  0.00  0.00    +0.000 C 
ATOM     27  O   UNL     1       1.448   4.474  17.394  0.00  0.00    +0.000 OA
ATOM     28  H   UNL     1       4.073   5.112  19.089  0.00  0.00    +0.000 HD
BRANCH  26  29
ATOM     29  C   UNL     1       3.591   3.424  17.282  0.00  0.00    +0.000 C 
BRANCH  29  30
ATOM     30  C   UNL     1       4.850   4.015  16.695  0.00  0.00    +0.000 A 
ATOM     31  C   UNL     1       6.018   4.124  17.464  0.00  0.00    +0.000 A 
ATOM     32  C   UNL     1       7.188   4.652  16.912  0.00  0.00    +0.000 A 
ATOM     33  C   UNL     1       7.206   5.065  15.583  0.00  0.00    +0.000 A 
ATOM     34  C   UNL     1       6.057   4.948  14.803  0.00  0.00    +0.000 A 
ATOM     35  C   UNL     1       4.884   4.426  15.354  0.00  0.00    +0.000 A 
ENDBRANCH  29  30
ENDBRANCH  26  29
ENDBRANCH  23  25
ENDBRANCH   1  19
TORSDOF 6
ENDMDL
MODEL 3
REMARK VINA RESULT:      -8.8      2.825      4.267
REMARK  Name = 
REMARK  6 active torsions:
REMARK  status: ('A' for Active; 'I' for Inactive)
REMARK    1  A    between atoms: C_2  and  C_4
REMARK    2  A    between atoms: N_10  and  C_11
REMARK    3  A    between atoms: C_11  and  C_12
REMARK    4  A    between atoms: C_16  and  N_17
REMARK    5  A    between atoms: C_18  and  C_20
REMARK    6  A    between atoms: C_20  and  C_21
REMARK                            x       y       z     vdW  Elec       q    Type
REMARK                         _______ _______ _______ _____ _____    ______ ____
ROOT
ATOM      1  C   UNL     1       2.238   8.980  18.193  0.00  0.00    +0.000 C 
ENDROOT
BRANCH   1   8
ATOM      2  C   UNL     1       3.408   3.211  19.800  0.00  0.00    +0.000 A 
ATOM      3  C   UNL     1       2.483   3.002  20.834  0.00  0.00    +0.000 A 
ATOM      4  C   UNL     1       1.609   4.021  21.190  0.00  0.00    +0.000 A 
ATOM      5  C   UNL     1       1.677   5.248  20.530  0.00  0.00    +0.000 A 
ATOM      6  C   UNL     1       2.627   5.485  19.497  0.00  0.00    +0.000 A 
ATOM      7  C   UNL     1       2.778   6.705  18.790  0.00  0.00    +0.000 A 
ATOM      8  N   UNL     1       1.973   7.838  19.082  0.00  0.00    +0.000 N 
ATOM      9  N   UNL     1       3.724   6.860  17.848  0.00  0.00    +0.000 NA
ATOM     10  C   UNL     1       4.501   5.811  17.581  0.00  0.00    +0.000 A 
ATOM     11  N   UNL     1       4.420   4.616  18.155  0.00  0.00    +0.000 NA
ATOM     12  C   UNL     1       3.502   4.442  19.128  0.00  0.00    +0.000 A 
ATOM     13  H   UNL     1       0.992   7.585  19.086  0.00  0.00    +0.000 HD
BRANCH   2  15
ATOM     14  N   UNL     1       4.059   1.415  18.274  0.00  0.00    +0.000 N 
ATOM     15  C   UNL     1       4.283   2.048  19.464  0.00  0.00    +0.000 C 
ATOM     16  O   UNL     1       5.145   1.647  20.237  0.00  0.00    +0.000 OA
ATOM     17  H   UNL     1       4.727   0.717  17.981  0.00  0.00    +0.000 HD
ATOM     18  H   UNL     1       3.507   1.883  17.562  0.00  0.00    +0.000 HD
ENDBRANCH   2  15
ENDBRANCH   1   8
BRANCH   1  19
ATOM     19  C   UNL     1       1.124  10.007  18.233  0.00  0.00    +0.000 A 
ATOM     20  C   UNL     1      -0.198   9.645  17.939  0.00  0.00    +0.000 A 
ATOM     21  C   UNL     1      -1.223  10.581  18.040  0.00  0.00    +0.000 A 
ATOM     22  C   UNL     1      -0.944  11.897  18.420  0.00  0.00    +0.000 A 
ATOM     23  C   UNL     1       0.365  12.292  18.706  0.00  0.00    +0.000 A 
ATOM     24  C   UNL     1       1.390  11.337  18.625  0.00  0.00    +0.000 A 
BRANCH  23  25
ATOM     25  N   UNL     1       0.703  13.611  19.092  0.00  0.00    +0.000 N 
ATOM     26  C   UNL     1       1.799  14.333  18.642  0.00  0.00    +0.000 C 
ATOM     27  O   UNL     1       2.665  13.924  17.867  0.00  0.00    +0.000 OA
ATOM     28  H   UNL     1       0.175  14.009  19.858  0.00  0.00    +0.000 HD
BRANCH  26  29
ATOM     29  C   UNL     1       1.900  15.733  19.226  0.00  0.00    +0.000 C 
BRANCH  29  30
ATOM     30  C   UNL     1       1.095  16.759  18.466  0.00  0.00    +0.000 A 
ATOM     31  C   UNL     1       1.706  17.592  17.518  0.00  0.00    +0.000 A 
ATOM     32  C   UNL     1       0.955  18.526  16.801  0.00  0.00    +0.000 A 
ATOM     33  C   UNL     1      -0.417  18.631  17.016  0.00  0.00    +0.000 A 
ATOM     34  C   UNL     1      -1.039  17.799  17.945  0.00  0.00    +0.000 A 
ATOM     35  C   UNL     1      -0.289  16.867  18.668  0.00  0.00    +0.000 A 
ENDBRANCH  29  30
ENDBRANCH  26  29
ENDBRANCH  23  25
ENDBRANCH   1  19
TORSDOF 6
ENDMDL
MODEL 4
REMARK VINA RESULT:      -8.7      3.096      3.447
REMARK  Name = 
REMARK  6 active torsions:
REMARK  status: ('A' for Active; 'I' for Inactive)
REMARK    1  A    between atoms: C_2  and  C_4
REMARK    2  A    between atoms: N_10  and  C_11
REMARK    3  A    between atoms: C_11  and  C_12
REMARK    4  A    between atoms: C_16  and  N_17
REMARK    5  A    between atoms: C_18  and  C_20
REMARK    6  A    between atoms: C_20  and  C_21
REMARK                            x       y       z     vdW  Elec       q    Type
REMARK                         _______ _______ _______ _____ _____    ______ ____
ROOT
ATOM      1  C   UNL     1       2.250   8.754  17.897  0.00  0.00    +0.000 C 
ENDROOT
BRANCH   1   8
ATOM      2  C   UNL     1       3.418   3.096  19.860  0.00  0.00    +0.000 A 
ATOM      3  C   UNL     1       2.418   2.909  20.826  0.00  0.00    +0.000 A 
ATOM      4  C   UNL     1       1.496   3.920  21.064  0.00  0.00    +0.000 A 
ATOM      5  C   UNL     1       1.588   5.117  20.355  0.00  0.00    +0.000 A 
ATOM      6  C   UNL     1       2.612   5.332  19.389  0.00  0.00    +0.000 A 
ATOM      7  C   UNL     1       2.792   6.523  18.640  0.00  0.00    +0.000 A 
ATOM      8  N   UNL     1       1.941   7.646  18.815  0.00  0.00    +0.000 N 
ATOM      9  N   UNL     1       3.806   6.660  17.769  0.00  0.00    +0.000 NA
ATOM     10  C   UNL     1       4.625   5.621  17.613  0.00  0.00    +0.000 A 
ATOM     11  N   UNL     1       4.526   4.451  18.235  0.00  0.00    +0.000 NA
ATOM     12  C   UNL     1       3.538   4.297  19.140  0.00  0.00    +0.000 A 
ATOM     13  H   UNL     1       0.969   7.369  18.753  0.00  0.00    +0.000 HD
BRANCH   2  15
ATOM     14  N   UNL     1       4.168   1.194  18.518  0.00  0.00    +0.000 N 
ATOM     15  C   UNL     1       4.343   1.942  19.648  0.00  0.00    +0.000 C 
ATOM     16  O   UNL     1       5.202   1.647  20.470  0.00  0.00    +0.000 OA
ATOM     17  H   UNL     1       4.868   0.499  18.303  0.00  0.00    +0.000 HD
ATOM     18  H   UNL     1       3.615   1.573  17.756  0.00  0.00    +0.000 HD
ENDBRANCH   2  15
ENDBRANCH   1   8
BRANCH   1  19
ATOM     19  C   UNL     1       1.804  10.094  18.445  0.00  0.00    +0.000 A 
ATOM     20  C   UNL     1       2.339  11.289  17.943  0.00  0.00    +0.000 A 
ATOM     21  C   UNL     1       1.877  12.517  18.408  0.00  0.00    +0.000 A 
ATOM     22  C   UNL     1       0.886  12.572  19.393  0.00  0.00    +0.000 A 
ATOM     23  C   UNL     1       0.344  11.400  19.923  0.00  0.00    +0.000 A 
ATOM     24  C   UNL     1       0.798  10.166  19.432  0.00  0.00    +0.000 A 
BRANCH  23  25
ATOM     25  N   UNL     1      -0.657  11.399  20.923  0.00  0.00    +0.000 N 
ATOM     26  C   UNL     1      -0.488  11.003  22.241  0.00  0.00    +0.000 C 
ATOM     27  O   UNL     1       0.549  10.557  22.734  0.00  0.00    +0.000 OA
ATOM     28  H   UNL     1      -1.605  11.578  20.615  0.00  0.00    +0.000 HD
BRANCH  26  29
ATOM     29  C   UNL     1      -1.745  11.121  23.089  0.00  0.00    +0.000 C 
BRANCH  29  30
ATOM     30  C   UNL     1      -2.232  12.542  23.245  0.00  0.00    +0.000 A 
ATOM     31  C   UNL     1      -3.604  12.831  23.269  0.00  0.00    +0.000 A 
ATOM     32  C   UNL     1      -4.052  14.144  23.435  0.00  0.00    +0.000 A 
ATOM     33  C   UNL     1      -3.134  15.179  23.589  0.00  0.00    +0.000 A 
ATOM     34  C   UNL     1      -1.768  14.903  23.582  0.00  0.00    +0.000 A 
ATOM     35  C   UNL     1      -1.317  13.592  23.411  0.00  0.00    +0.000 A 
ENDBRANCH  29  30
ENDBRANCH  26  29
ENDBRANCH  23  25
ENDBRANCH   1  19
TORSDOF 6
ENDMDL
MODEL 5
REMARK VINA RESULT:      -8.7      2.284     10.445
REMARK  Name = 
REMARK  6 active torsions:
REMARK  status: ('A' for Active; 'I' for Inactive)
REMARK    1  A    between atoms: C_2  and  C_4
REMARK    2  A    between atoms: N_10  and  C_11
REMARK    3  A    between atoms: C_11  and  C_12
REMARK    4  A    between atoms: C_16  and  N_17
REMARK    5  A    between atoms: C_18  and  C_20
REMARK    6  A    between atoms: C_20  and  C_21
REMARK                            x       y       z     vdW  Elec       q    Type
REMARK                         _______ _______ _______ _____ _____    ______ ____
ROOT
ATOM      1  C   UNL     1       0.891  10.440  18.175  0.00  0.00    +0.000 C 
ENDROOT
BRANCH   1   8
ATOM      2  C   UNL     1      -4.996  11.943  18.734  0.00  0.00    +0.000 A 
ATOM      3  C   UNL     1      -4.972  12.814  19.834  0.00  0.00    +0.000 A 
ATOM      4  C   UNL     1      -3.762  13.113  20.447  0.00  0.00    +0.000 A 
ATOM      5  C   UNL     1      -2.588  12.526  19.976  0.00  0.00    +0.000 A 
ATOM      6  C   UNL     1      -2.599  11.620  18.878  0.00  0.00    +0.000 A 
ATOM      7  C   UNL     1      -1.458  10.964  18.349  0.00  0.00    +0.000 A 
ATOM      8  N   UNL     1      -0.166  11.153  18.908  0.00  0.00    +0.000 N 
ATOM      9  N   UNL     1      -1.555  10.094  17.329  0.00  0.00    +0.000 NA
ATOM     10  C   UNL     1      -2.766   9.891  16.811  0.00  0.00    +0.000 A 
ATOM     11  N   UNL     1      -3.890  10.479  17.204  0.00  0.00    +0.000 NA
ATOM     12  C   UNL     1      -3.828  11.331  18.249  0.00  0.00    +0.000 A 
ATOM     13  H   UNL     1       0.041  12.140  18.998  0.00  0.00    +0.000 HD
BRANCH   2  15
ATOM     14  N   UNL     1      -7.005  10.572  18.483  0.00  0.00    +0.000 N 
ATOM     15  C   UNL     1      -6.336  11.707  18.119  0.00  0.00    +0.000 C 
ATOM     16  O   UNL     1      -6.808  12.476  17.291  0.00  0.00    +0.000 OA
ATOM     17  H   UNL     1      -7.961  10.472  18.175  0.00  0.00    +0.000 HD
ATOM     18  H   UNL     1      -6.712  10.072  19.316  0.00  0.00    +0.000 HD
ENDBRANCH   2  15
ENDBRANCH   1   8
BRANCH   1  19
ATOM     19  C   UNL     1       1.347   9.189  18.898  0.00  0.00    +0.000 A 
ATOM     20  C   UNL     1       1.157   9.050  20.280  0.00  0.00    +0.000 A 
ATOM     21  C   UNL     1       1.521   7.871  20.925  0.00  0.00    +0.000 A 
ATOM     22  C   UNL     1       2.096   6.820  20.205  0.00  0.00    +0.000 A 
ATOM     23  C   UNL     1       2.311   6.934  18.830  0.00  0.00    +0.000 A 
ATOM     24  C   UNL     1       1.920   8.115  18.183  0.00  0.00    +0.000 A 
BRANCH  23  25
ATOM     25  N   UNL     1       2.891   5.902  18.055  0.00  0.00    +0.000 N 
ATOM     26  C   UNL     1       2.428   4.598  17.960  0.00  0.00    +0.000 C 
ATOM     27  O   UNL     1       1.463   4.129  18.565  0.00  0.00    +0.000 OA
ATOM     28  H   UNL     1       3.794   6.099  17.640  0.00  0.00    +0.000 HD
BRANCH  26  29
ATOM     29  C   UNL     1       3.254   3.713  17.041  0.00  0.00    +0.000 C 
BRANCH  29  30
ATOM     30  C   UNL     1       4.705   4.121  16.960  0.00  0.00    +0.000 A 
ATOM     31  C   UNL     1       5.477   4.262  18.123  0.00  0.00    +0.000 A 
ATOM     32  C   UNL     1       6.825   4.619  18.044  0.00  0.00    +0.000 A 
ATOM     33  C   UNL     1       7.419   4.828  16.802  0.00  0.00    +0.000 A 
ATOM     34  C   UNL     1       6.667   4.676  15.639  0.00  0.00    +0.000 A 
ATOM     35  C   UNL     1       5.317   4.324  15.714  0.00  0.00    +0.000 A 
ENDBRANCH  29  30
ENDBRANCH  26  29
ENDBRANCH  23  25
ENDBRANCH   1  19
TORSDOF 6
ENDMDL
MODEL 6
REMARK VINA RESULT:      -8.7      0.707      1.092
REMARK  Name = 
REMARK  6 active torsions:
REMARK  status: ('A' for Active; 'I' for Inactive)
REMARK    1  A    between atoms: C_2  and  C_4
REMARK    2  A    between atoms: N_10  and  C_11
REMARK    3  A    between atoms: C_11  and  C_12
REMARK    4  A    between atoms: C_16  and  N_17
REMARK    5  A    between atoms: C_18  and  C_20
REMARK    6  A    between atoms: C_20  and  C_21
REMARK                            x       y       z     vdW  Elec       q    Type
REMARK                         _______ _______ _______ _____ _____    ______ ____
ROOT
ATOM      1  C   UNL     1       2.304   9.241  18.173  0.00  0.00    +0.000 C 
ENDROOT
BRANCH   1   8
ATOM      2  C   UNL     1       3.130   3.369  19.611  0.00  0.00    +0.000 A 
ATOM      3  C   UNL     1       2.224   3.197  20.669  0.00  0.00    +0.000 A 
ATOM      4  C   UNL     1       1.433   4.263  21.075  0.00  0.00    +0.000 A 
ATOM      5  C   UNL     1       1.563   5.498  20.442  0.00  0.00    +0.000 A 
ATOM      6  C   UNL     1       2.495   5.696  19.384  0.00  0.00    +0.000 A 
ATOM      7  C   UNL     1       2.707   6.921  18.701  0.00  0.00    +0.000 A 
ATOM      8  N   UNL     1       1.990   8.098  19.044  0.00  0.00    +0.000 N 
ATOM      9  N   UNL     1       3.633   7.037  17.733  0.00  0.00    +0.000 NA
ATOM     10  C   UNL     1       4.329   5.945  17.418  0.00  0.00    +0.000 A 
ATOM     11  N   UNL     1       4.185   4.744  17.967  0.00  0.00    +0.000 NA
ATOM     12  C   UNL     1       3.287   4.607  18.965  0.00  0.00    +0.000 A 
ATOM     13  H   UNL     1       0.995   7.911  19.073  0.00  0.00    +0.000 HD
BRANCH   2  15
ATOM     14  N   UNL     1       5.153   2.006  19.778  0.00  0.00    +0.000 N 
ATOM     15  C   UNL     1       3.914   2.159  19.221  0.00  0.00    +0.000 C 
ATOM     16  O   UNL     1       3.488   1.351  18.405  0.00  0.00    +0.000 OA
ATOM     17  H   UNL     1       5.631   1.130  19.623  0.00  0.00    +0.000 HD
ATOM     18  H   UNL     1       5.395   2.548  20.601  0.00  0.00    +0.000 HD
ENDBRANCH   2  15
ENDBRANCH   1   8
BRANCH   1  19
ATOM     19  C   UNL     1       1.341  10.395  18.372  0.00  0.00    +0.000 A 
ATOM     20  C   UNL     1       1.813  11.708  18.504  0.00  0.00    +0.000 A 
ATOM     21  C   UNL     1       0.918  12.768  18.622  0.00  0.00    +0.000 A 
ATOM     22  C   UNL     1      -0.460  12.533  18.627  0.00  0.00    +0.000 A 
ATOM     23  C   UNL     1      -0.959  11.234  18.512  0.00  0.00    +0.000 A 
ATOM     24  C   UNL     1      -0.053  10.174  18.369  0.00  0.00    +0.000 A 
BRANCH  23  25
ATOM     25  N   UNL     1      -2.344  10.940  18.514  0.00  0.00    +0.000 N 
ATOM     26  C   UNL     1      -3.165  10.888  17.397  0.00  0.00    +0.000 C 
ATOM     27  O   UNL     1      -2.824  11.126  16.238  0.00  0.00    +0.000 OA
ATOM     28  H   UNL     1      -2.796  10.894  19.419  0.00  0.00    +0.000 HD
BRANCH  26  29
ATOM     29  C   UNL     1      -4.611  10.538  17.709  0.00  0.00    +0.000 C 
BRANCH  29  30
ATOM     30  C   UNL     1      -5.438  11.727  18.136  0.00  0.00    +0.000 A 
ATOM     31  C   UNL     1      -5.924  12.641  17.190  0.00  0.00    +0.000 A 
ATOM     32  C   UNL     1      -6.706  13.728  17.586  0.00  0.00    +0.000 A 
ATOM     33  C   UNL     1      -7.020  13.908  18.930  0.00  0.00    +0.000 A 
ATOM     34  C   UNL     1      -6.556  12.999  19.879  0.00  0.00    +0.000 A 
ATOM     35  C   UNL     1      -5.769  11.913  19.487  0.00  0.00    +0.000 A 
ENDBRANCH  29  30
ENDBRANCH  26  29
ENDBRANCH  23  25
ENDBRANCH   1  19
TORSDOF 6
ENDMDL
MODEL 7
REMARK VINA RESULT:      -8.6      1.551      2.475
REMARK  Name = 
REMARK  6 active torsions:
REMARK  status: ('A' for Active; 'I' for Inactive)
REMARK    1  A    between atoms: C_2  and  C_4
REMARK    2  A    between atoms: N_10  and  C_11
REMARK    3  A    between atoms: C_11  and  C_12
REMARK    4  A    between atoms: C_16  and  N_17
REMARK    5  A    between atoms: C_18  and  C_20
REMARK    6  A    between atoms: C_20  and  C_21
REMARK                            x       y       z     vdW  Elec       q    Type
REMARK                         _______ _______ _______ _____ _____    ______ ____
ROOT
ATOM      1  C   UNL     1       1.025   9.346  20.057  0.00  0.00    +0.000 C 
ENDROOT
BRANCH   1   8
ATOM      2  C   UNL     1       4.017   4.302  18.375  0.00  0.00    +0.000 A 
ATOM      3  C   UNL     1       4.736   4.748  17.256  0.00  0.00    +0.000 A 
ATOM      4  C   UNL     1       4.631   6.074  16.856  0.00  0.00    +0.000 A 
ATOM      5  C   UNL     1       3.795   6.941  17.558  0.00  0.00    +0.000 A 
ATOM      6  C   UNL     1       3.039   6.498  18.681  0.00  0.00    +0.000 A 
ATOM      7  C   UNL     1       2.151   7.305  19.438  0.00  0.00    +0.000 A 
ATOM      8  N   UNL     1       1.924   8.668  19.111  0.00  0.00    +0.000 N 
ATOM      9  N   UNL     1       1.446   6.802  20.466  0.00  0.00    +0.000 NA
ATOM     10  C   UNL     1       1.634   5.517  20.767  0.00  0.00    +0.000 A 
ATOM     11  N   UNL     1       2.465   4.686  20.150  0.00  0.00    +0.000 NA
ATOM     12  C   UNL     1       3.160   5.154  19.092  0.00  0.00    +0.000 A 
ATOM     13  H   UNL     1       2.803   9.160  19.011  0.00  0.00    +0.000 HD
BRANCH   2  15
ATOM     14  N   UNL     1       5.085   2.604  19.773  0.00  0.00    +0.000 N 
ATOM     15  C   UNL     1       4.219   2.871  18.750  0.00  0.00    +0.000 C 
ATOM     16  O   UNL     1       3.663   1.962  18.144  0.00  0.00    +0.000 OA
ATOM     17  H   UNL     1       5.125   1.656  20.118  0.00  0.00    +0.000 HD
ATOM     18  H   UNL     1       5.358   3.356  20.397  0.00  0.00    +0.000 HD
ENDBRANCH   2  15
ENDBRANCH   1   8
BRANCH   1  19
ATOM     19  C   UNL     1       0.499  10.658  19.508  0.00  0.00    +0.000 A 
ATOM     20  C   UNL     1       1.352  11.757  19.337  0.00  0.00    +0.000 A 
ATOM     21  C   UNL     1       0.874  12.937  18.773  0.00  0.00    +0.000 A 
ATOM     22  C   UNL     1      -0.465  13.044  18.386  0.00  0.00    +0.000 A 
ATOM     23  C   UNL     1      -1.342  11.971  18.557  0.00  0.00    +0.000 A 
ATOM     24  C   UNL     1      -0.848  10.777  19.105  0.00  0.00    +0.000 A 
BRANCH  23  25
ATOM     25  N   UNL     1      -2.707  12.027  18.187  0.00  0.00    +0.000 N 
ATOM     26  C   UNL     1      -3.311  11.266  17.196  0.00  0.00    +0.000 C 
ATOM     27  O   UNL     1      -2.746  10.453  16.464  0.00  0.00    +0.000 OA
ATOM     28  H   UNL     1      -3.255  12.777  18.588  0.00  0.00    +0.000 HD
BRANCH  26  29
ATOM     29  C   UNL     1      -4.798  11.538  17.028  0.00  0.00    +0.000 C 
BRANCH  29  30
ATOM     30  C   UNL     1      -5.567  11.491  18.327  0.00  0.00    +0.000 A 
ATOM     31  C   UNL     1      -5.556  12.584  19.206  0.00  0.00    +0.000 A 
ATOM     32  C   UNL     1      -6.286  12.546  20.397  0.00  0.00    +0.000 A 
ATOM     33  C   UNL     1      -7.041  11.421  20.716  0.00  0.00    +0.000 A 
ATOM     34  C   UNL     1      -7.071  10.335  19.844  0.00  0.00    +0.000 A 
ATOM     35  C   UNL     1      -6.339  10.367  18.655  0.00  0.00    +0.000 A 
ENDBRANCH  29  30
ENDBRANCH  26  29
ENDBRANCH  23  25
ENDBRANCH   1  19
TORSDOF 6
ENDMDL
MODEL 8
REMARK VINA RESULT:      -8.6      1.050      1.117
REMARK  Name = 
REMARK  6 active torsions:
REMARK  status: ('A' for Active; 'I' for Inactive)
REMARK    1  A    between atoms: C_2  and  C_4
REMARK    2  A    between atoms: N_10  and  C_11
REMARK    3  A    between atoms: C_11  and  C_12
REMARK    4  A    between atoms: C_16  and  N_17
REMARK    5  A    between atoms: C_18  and  C_20
REMARK    6  A    between atoms: C_20  and  C_21
REMARK                            x       y       z     vdW  Elec       q    Type
REMARK                         _______ _______ _______ _____ _____    ______ ____
ROOT
ATOM      1  C   UNL     1       1.809   9.479  18.292  0.00  0.00    +0.000 C 
ENDROOT
BRANCH   1   8
ATOM      2  C   UNL     1       3.404   3.747  19.647  0.00  0.00    +0.000 A 
ATOM      3  C   UNL     1       2.570   3.462  20.739  0.00  0.00    +0.000 A 
ATOM      4  C   UNL     1       1.671   4.422  21.185  0.00  0.00    +0.000 A 
ATOM      5  C   UNL     1       1.623   5.666  20.557  0.00  0.00    +0.000 A 
ATOM      6  C   UNL     1       2.481   5.980  19.465  0.00  0.00    +0.000 A 
ATOM      7  C   UNL     1       2.514   7.224  18.783  0.00  0.00    +0.000 A 
ATOM      8  N   UNL     1       1.672   8.303  19.165  0.00  0.00    +0.000 N 
ATOM      9  N   UNL     1       3.379   7.455  17.781  0.00  0.00    +0.000 NA
ATOM     10  C   UNL     1       4.190   6.457  17.429  0.00  0.00    +0.000 A 
ATOM     11  N   UNL     1       4.216   5.246  17.974  0.00  0.00    +0.000 NA
ATOM     12  C   UNL     1       3.382   4.997  19.006  0.00  0.00    +0.000 A 
ATOM     13  H   UNL     1       0.710   7.995  19.232  0.00  0.00    +0.000 HD
BRANCH   2  15
ATOM     14  N   UNL     1       4.207   2.207  17.926  0.00  0.00    +0.000 N 
ATOM     15  C   UNL     1       4.314   2.644  19.217  0.00  0.00    +0.000 C 
ATOM     16  O   UNL     1       5.101   2.118  19.995  0.00  0.00    +0.000 OA
ATOM     17  H   UNL     1       4.903   1.557  17.592  0.00  0.00    +0.000 HD
ATOM     18  H   UNL     1       3.722   2.786  17.248  0.00  0.00    +0.000 HD
ENDBRANCH   2  15
ENDBRANCH   1   8
BRANCH   1  19
ATOM     19  C   UNL     1       0.853  10.591  18.675  0.00  0.00    +0.000 A 
ATOM     20  C   UNL     1       1.194  11.519  19.668  0.00  0.00    +0.000 A 
ATOM     21  C   UNL     1       0.337  12.575  19.968  0.00  0.00    +0.000 A 
ATOM     22  C   UNL     1      -0.879  12.711  19.294  0.00  0.00    +0.000 A 
ATOM     23  C   UNL     1      -1.253  11.794  18.309  0.00  0.00    +0.000 A 
ATOM     24  C   UNL     1      -0.374  10.747  17.996  0.00  0.00    +0.000 A 
BRANCH  23  25
ATOM     25  N   UNL     1      -2.474  11.884  17.599  0.00  0.00    +0.000 N 
ATOM     26  C   UNL     1      -3.355  10.838  17.364  0.00  0.00    +0.000 C 
ATOM     27  O   UNL     1      -3.193   9.666  17.705  0.00  0.00    +0.000 OA
ATOM     28  H   UNL     1      -2.652  12.753  17.110  0.00  0.00    +0.000 HD
BRANCH  26  29
ATOM     29  C   UNL     1      -4.593  11.238  16.577  0.00  0.00    +0.000 C 
BRANCH  29  30
ATOM     30  C   UNL     1      -5.694  11.807  17.440  0.00  0.00    +0.000 A 
ATOM     31  C   UNL     1      -6.113  11.141  18.601  0.00  0.00    +0.000 A 
ATOM     32  C   UNL     1      -7.117  11.681  19.409  0.00  0.00    +0.000 A 
ATOM     33  C   UNL     1      -7.705  12.897  19.070  0.00  0.00    +0.000 A 
ATOM     34  C   UNL     1      -7.288  13.575  17.926  0.00  0.00    +0.000 A 
ATOM     35  C   UNL     1      -6.288  13.036  17.114  0.00  0.00    +0.000 A 
ENDBRANCH  29  30
ENDBRANCH  26  29
ENDBRANCH  23  25
ENDBRANCH   1  19
TORSDOF 6
ENDMDL
MODEL 9
REMARK VINA RESULT:      -8.6      3.594      6.492
REMARK  Name = 
REMARK  6 active torsions:
REMARK  status: ('A' for Active; 'I' for Inactive)
REMARK    1  A    between atoms: C_2  and  C_4
REMARK    2  A    between atoms: N_10  and  C_11
REMARK    3  A    between atoms: C_11  and  C_12
REMARK    4  A    between atoms: C_16  and  N_17
REMARK    5  A    between atoms: C_18  and  C_20
REMARK    6  A    between atoms: C_20  and  C_21
REMARK                            x       y       z     vdW  Elec       q    Type
REMARK                         _______ _______ _______ _____ _____    ______ ____
ROOT
ATOM      1  C   UNL     1       2.436   8.465  17.838  0.00  0.00    +0.000 C 
ENDROOT
BRANCH   1   8
ATOM      2  C   UNL     1       3.521   2.912  20.124  0.00  0.00    +0.000 A 
ATOM      3  C   UNL     1       2.407   2.715  20.953  0.00  0.00    +0.000 A 
ATOM      4  C   UNL     1       1.427   3.696  21.032  0.00  0.00    +0.000 A 
ATOM      5  C   UNL     1       1.573   4.875  20.303  0.00  0.00    +0.000 A 
ATOM      6  C   UNL     1       2.710   5.102  19.476  0.00  0.00    +0.000 A 
ATOM      7  C   UNL     1       2.949   6.278  18.719  0.00  0.00    +0.000 A 
ATOM      8  N   UNL     1       2.044   7.372  18.742  0.00  0.00    +0.000 N 
ATOM      9  N   UNL     1       4.067   6.430  17.989  0.00  0.00    +0.000 NA
ATOM     10  C   UNL     1       4.934   5.419  17.978  0.00  0.00    +0.000 A 
ATOM     11  N   UNL     1       4.792   4.264  18.618  0.00  0.00    +0.000 NA
ATOM     12  C   UNL     1       3.696   4.096  19.388  0.00  0.00    +0.000 A 
ATOM     13  H   UNL     1       1.100   7.056  18.560  0.00  0.00    +0.000 HD
BRANCH   2  15
ATOM     14  N   UNL     1       4.430   0.932  19.015  0.00  0.00    +0.000 N 
ATOM     15  C   UNL     1       4.505   1.790  20.076  0.00  0.00    +0.000 C 
ATOM     16  O   UNL     1       5.325   1.614  20.969  0.00  0.00    +0.000 OA
ATOM     17  H   UNL     1       5.171   0.253  18.908  0.00  0.00    +0.000 HD
ATOM     18  H   UNL     1       3.909   1.211  18.190  0.00  0.00    +0.000 HD
ENDBRANCH   2  15
ENDBRANCH   1   8
BRANCH   1  19
ATOM     19  C   UNL     1       1.815   9.789  18.235  0.00  0.00    +0.000 A 
ATOM     20  C   UNL     1       0.647   9.829  19.010  0.00  0.00    +0.000 A 
ATOM     21  C   UNL     1       0.120  11.049  19.423  0.00  0.00    +0.000 A 
ATOM     22  C   UNL     1       0.739  12.248  19.057  0.00  0.00    +0.000 A 
ATOM     23  C   UNL     1       1.895  12.240  18.274  0.00  0.00    +0.000 A 
ATOM     24  C   UNL     1       2.434  11.006  17.881  0.00  0.00    +0.000 A 
BRANCH  23  25
ATOM     25  N   UNL     1       2.560  13.423  17.873  0.00  0.00    +0.000 N 
ATOM     26  C   UNL     1       3.272  14.276  18.703  0.00  0.00    +0.000 C 
ATOM     27  O   UNL     1       3.405  14.155  19.921  0.00  0.00    +0.000 OA
ATOM     28  H   UNL     1       2.389  13.741  16.926  0.00  0.00    +0.000 HD
BRANCH  26  29
ATOM     29  C   UNL     1       3.887  15.468  17.985  0.00  0.00    +0.000 C 
BRANCH  29  30
ATOM     30  C   UNL     1       5.382  15.572  18.169  0.00  0.00    +0.000 A 
ATOM     31  C   UNL     1       6.232  14.540  17.746  0.00  0.00    +0.000 A 
ATOM     32  C   UNL     1       7.616  14.649  17.898  0.00  0.00    +0.000 A 
ATOM     33  C   UNL     1       8.167  15.795  18.465  0.00  0.00    +0.000 A 
ATOM     34  C   UNL     1       7.334  16.835  18.876  0.00  0.00    +0.000 A 
ATOM     35  C   UNL     1       5.949  16.726  18.730  0.00  0.00    +0.000 A 
ENDBRANCH  29  30
ENDBRANCH  26  29
ENDBRANCH  23  25
ENDBRANCH   1  19
TORSDOF 6
ENDMDL
