MODEL 1
REMARK VINA RESULT:      -8.7      0.000      0.000
REMARK  Name = 
REMARK  11 active torsions:
REMARK  status: ('A' for Active; 'I' for Inactive)
REMARK    1  A    between atoms: C_1  and  C_2
REMARK    2  A    between atoms: C_2  and  O_3
REMARK    3  A    between atoms: O_3  and  C_4
REMARK    4  A    between atoms: C_4  and  C_6
REMARK    5  A    between atoms: C_6  and  N_7
REMARK    6  A    between atoms: C_8  and  C_10
REMARK    7  A    between atoms: C_10  and  C_12
REMARK    8  A    between atoms: C_17  and  N_18
REMARK    9  A    between atoms: N_18  and  C_19
REMARK   10  A    between atoms: C_22  and  N_23
REMARK   11  A    between atoms: C_27  and  N_28
REMARK                            x       y       z     vdW  Elec       q    Type
REMARK                         _______ _______ _______ _____ _____    ______ ____
ROOT
ATOM      1  C   UNL     1       2.233   5.618  19.780  0.00  0.00    +0.000 A 
ATOM      2  C   UNL     1       1.071   5.084  20.375  0.00  0.00    +0.000 A 
ATOM      3  C   UNL     1       1.061   3.814  20.954  0.00  0.00    +0.000 A 
ATOM      4  C   UNL     1       2.212   3.047  20.948  0.00  0.00    +0.000 A 
ATOM      5  C   UNL     1       3.374   3.565  20.383  0.00  0.00    +0.000 A 
ATOM      6  C   UNL     1       3.433   4.863  19.819  0.00  0.00    +0.000 A 
ENDROOT
BRANCH   1   7
ATOM      7  C   UNL     1       2.162   6.987  19.180  0.00  0.00    +0.000 C 
ATOM      8  O   UNL     1       2.436   7.178  17.996  0.00  0.00    +0.000 OA
BRANCH   7  10
ATOM      9  N   UNL     1       1.896   8.046  21.382  0.00  0.00    +0.000 N 
ATOM     10  C   UNL     1       1.718   8.213  20.025  0.00  0.00    +0.000 C 
ATOM     11  O   UNL     1       1.265   9.231  19.527  0.00  0.00    +0.000 OA
ATOM     12  H   UNL     1       2.163   7.119  21.700  0.00  0.00    +0.000 HD
BRANCH   9  13
ATOM     13  C   UNL     1       1.506   9.064  22.353  0.00  0.00    +0.000 C 
BRANCH  13  14
ATOM     14  C   UNL     1       0.017   9.122  22.689  0.00  0.00    +0.000 C 
ATOM     15  O   UNL     1      -0.808   8.337  22.237  0.00  0.00    +0.000 OA
BRANCH  14  16
ATOM     16  O   UNL     1      -0.270  10.155  23.530  0.00  0.00    +0.000 OA
BRANCH  16  18
ATOM     17  C   UNL     1      -0.650  12.111  22.146  0.00  0.00    +0.000 C 
ATOM     18  C   UNL     1      -1.265  11.082  23.076  0.00  0.00    +0.000 C 
ENDBRANCH  16  18
ENDBRANCH  14  16
ENDBRANCH  13  14
ENDBRANCH   9  13
ENDBRANCH   7  10
ENDBRANCH   1   7
BRANCH   6  19
ATOM     19  N   UNL     1       4.706   5.357  19.420  0.00  0.00    +0.000 N 
ATOM     20  H   UNL     1       5.232   5.863  20.138  0.00  0.00    +0.000 HD
BRANCH  19  21
ATOM     21  C   UNL     1       5.396   5.113  18.199  0.00  0.00    +0.000 A 
ATOM     22  C   UNL     1       4.658   4.580  17.122  0.00  0.00    +0.000 A 
ATOM     23  C   UNL     1       5.186   4.447  15.836  0.00  0.00    +0.000 A 
ATOM     24  C   UNL     1       6.500   4.848  15.592  0.00  0.00    +0.000 A 
ATOM     25  C   UNL     1       7.288   5.344  16.636  0.00  0.00    +0.000 A 
ATOM     26  C   UNL     1       6.739   5.469  17.941  0.00  0.00    +0.000 A 
BRANCH  24  27
ATOM     27  N   UNL     1       7.030   4.772  14.225  0.00  0.00    +0.000 N 
ATOM     28  O   UNL     1       6.523   3.947  13.455  0.00  0.00    +0.000 OA
ATOM     29  O   UNL     1       7.951   5.546  13.927  0.00  0.00    +0.000 OA
ENDBRANCH  24  27
BRANCH  26  30
ATOM     30  N   UNL     1       7.621   6.014  18.987  0.00  0.00    +0.000 N 
ATOM     31  O   UNL     1       7.682   5.422  20.073  0.00  0.00    +0.000 OA
ATOM     32  O   UNL     1       8.278   7.030  18.711  0.00  0.00    +0.000 OA
ENDBRANCH  26  30
ENDBRANCH  19  21
ENDBRANCH   6  19
TORSDOF 10
ENDMDL
MODEL 2
REMARK VINA RESULT:      -8.5      1.819      2.214
REMARK  Name = 
REMARK  11 active torsions:
REMARK  status: ('A' for Active; 'I' for Inactive)
REMARK    1  A    between atoms: C_1  and  C_2
REMARK    2  A    between atoms: C_2  and  O_3
REMARK    3  A    between atoms: O_3  and  C_4
REMARK    4  A    between atoms: C_4  and  C_6
REMARK    5  A    between atoms: C_6  and  N_7
REMARK    6  A    between atoms: C_8  and  C_10
REMARK    7  A    between atoms: C_10  and  C_12
REMARK    8  A    between atoms: C_17  and  N_18
REMARK    9  A    between atoms: N_18  and  C_19
REMARK   10  A    between atoms: C_22  and  N_23
REMARK   11  A    between atoms: C_27  and  N_28
REMARK                            x       y       z     vdW  Elec       q    Type
REMARK                         _______ _______ _______ _____ _____    ______ ____
ROOT
ATOM      1  C   UNL     1       2.297   5.387  19.803  0.00  0.00    +0.000 A 
ATOM      2  C   UNL     1       1.118   4.848  20.360  0.00  0.00    +0.000 A 
ATOM      3  C   UNL     1       1.076   3.552  20.877  0.00  0.00    +0.000 A 
ATOM      4  C   UNL     1       2.212   2.764  20.844  0.00  0.00    +0.000 A 
ATOM      5  C   UNL     1       3.389   3.284  20.317  0.00  0.00    +0.000 A 
ATOM      6  C   UNL     1       3.480   4.606  19.817  0.00  0.00    +0.000 A 
ENDROOT
BRANCH   1   7
ATOM      7  C   UNL     1       2.260   6.784  19.270  0.00  0.00    +0.000 C 
ATOM      8  O   UNL     1       2.667   7.046  18.139  0.00  0.00    +0.000 OA
BRANCH   7  10
ATOM      9  N   UNL     1       1.388   9.080  19.382  0.00  0.00    +0.000 N 
ATOM     10  C   UNL     1       1.685   7.953  20.118  0.00  0.00    +0.000 C 
ATOM     11  O   UNL     1       1.503   7.870  21.322  0.00  0.00    +0.000 OA
ATOM     12  H   UNL     1       1.690   9.088  18.412  0.00  0.00    +0.000 HD
BRANCH   9  13
ATOM     13  C   UNL     1       0.874  10.301  19.994  0.00  0.00    +0.000 C 
BRANCH  13  14
ATOM     14  C   UNL     1      -0.557  10.680  19.616  0.00  0.00    +0.000 C 
ATOM     15  O   UNL     1      -1.355  11.172  20.405  0.00  0.00    +0.000 OA
BRANCH  14  16
ATOM     16  O   UNL     1      -0.829  10.389  18.313  0.00  0.00    +0.000 OA
BRANCH  16  18
ATOM     17  C   UNL     1      -2.382   9.983  16.495  0.00  0.00    +0.000 C 
ATOM     18  C   UNL     1      -2.207  10.161  17.991  0.00  0.00    +0.000 C 
ENDBRANCH  16  18
ENDBRANCH  14  16
ENDBRANCH  13  14
ENDBRANCH   9  13
ENDBRANCH   7  10
ENDBRANCH   1   7
BRANCH   6  19
ATOM     19  N   UNL     1       4.767   5.093  19.455  0.00  0.00    +0.000 N 
ATOM     20  H   UNL     1       5.307   5.528  20.209  0.00  0.00    +0.000 HD
BRANCH  19  21
ATOM     21  C   UNL     1       5.451   4.922  18.219  0.00  0.00    +0.000 A 
ATOM     22  C   UNL     1       4.737   4.351  17.145  0.00  0.00    +0.000 A 
ATOM     23  C   UNL     1       5.250   4.280  15.848  0.00  0.00    +0.000 A 
ATOM     24  C   UNL     1       6.524   4.785  15.589  0.00  0.00    +0.000 A 
ATOM     25  C   UNL     1       7.291   5.324  16.628  0.00  0.00    +0.000 A 
ATOM     26  C   UNL     1       6.758   5.385  17.944  0.00  0.00    +0.000 A 
BRANCH  24  27
ATOM     27  N   UNL     1       7.033   4.772  14.212  0.00  0.00    +0.000 N 
ATOM     28  O   UNL     1       7.942   5.561  13.925  0.00  0.00    +0.000 OA
ATOM     29  O   UNL     1       6.524   3.963  13.423  0.00  0.00    +0.000 OA
ENDBRANCH  24  27
BRANCH  26  30
ATOM     30  N   UNL     1       7.614   5.979  18.984  0.00  0.00    +0.000 N 
ATOM     31  O   UNL     1       7.655   5.436  20.096  0.00  0.00    +0.000 OA
ATOM     32  O   UNL     1       8.273   6.987  18.678  0.00  0.00    +0.000 OA
ENDBRANCH  26  30
ENDBRANCH  19  21
ENDBRANCH   6  19
TORSDOF 10
ENDMDL
MODEL 3
REMARK VINA RESULT:      -8.4      1.128      1.637
REMARK  Name = 
REMARK  11 active torsions:
REMARK  status: ('A' for Active; 'I' for Inactive)
REMARK    1  A    between atoms: C_1  and  C_2
REMARK    2  A    between atoms: C_2  and  O_3
REMARK    3  A    between atoms: O_3  and  C_4
REMARK    4  A    between atoms: C_4  and  C_6
REMARK    5  A    between atoms: C_6  and  N_7
REMARK    6  A    between atoms: C_8  and  C_10
REMARK    7  A    between atoms: C_10  and  C_12
REMARK    8  A    between atoms: C_17  and  N_18
REMARK    9  A    between atoms: N_18  and  C_19
REMARK   10  A    between atoms: C_22  and  N_23
REMARK   11  A    between atoms: C_27  and  N_28
REMARK                            x       y       z     vdW  Elec       q    Type
REMARK                         _______ _______ _______ _____ _____    ______ ____
ROOT
ATOM      1  C   UNL     1       2.335   5.513  19.881  0.00  0.00    +0.000 A 
ATOM      2  C   UNL     1       1.152   4.968  20.421  0.00  0.00    +0.000 A 
ATOM      3  C   UNL     1       1.067   3.626  20.796  0.00  0.00    +0.000 A 
ATOM      4  C   UNL     1       2.163   2.798  20.634  0.00  0.00    +0.000 A 
ATOM      5  C   UNL     1       3.345   3.322  20.121  0.00  0.00    +0.000 A 
ATOM      6  C   UNL     1       3.481   4.686  19.765  0.00  0.00    +0.000 A 
ENDROOT
BRANCH   1   7
ATOM      7  C   UNL     1       2.346   6.961  19.504  0.00  0.00    +0.000 C 
ATOM      8  O   UNL     1       3.016   7.368  18.557  0.00  0.00    +0.000 OA
BRANCH   7  10
ATOM      9  N   UNL     1       0.909   8.956  19.478  0.00  0.00    +0.000 N 
ATOM     10  C   UNL     1       1.492   8.001  20.283  0.00  0.00    +0.000 C 
ATOM     11  O   UNL     1       1.345   7.962  21.494  0.00  0.00    +0.000 OA
ATOM     12  H   UNL     1       1.193   8.970  18.503  0.00  0.00    +0.000 HD
BRANCH   9  13
ATOM     13  C   UNL     1       0.100  10.044  20.017  0.00  0.00    +0.000 C 
BRANCH  13  14
ATOM     14  C   UNL     1       0.878  11.212  20.620  0.00  0.00    +0.000 C 
ATOM     15  O   UNL     1       1.558  11.985  19.954  0.00  0.00    +0.000 OA
BRANCH  14  16
ATOM     16  O   UNL     1       0.733  11.271  21.973  0.00  0.00    +0.000 OA
BRANCH  16  18
ATOM     17  C   UNL     1      -1.373  11.995  22.936  0.00  0.00    +0.000 C 
ATOM     18  C   UNL     1      -0.524  10.818  22.494  0.00  0.00    +0.000 C 
ENDBRANCH  16  18
ENDBRANCH  14  16
ENDBRANCH  13  14
ENDBRANCH   9  13
ENDBRANCH   7  10
ENDBRANCH   1   7
BRANCH   6  19
ATOM     19  N   UNL     1       4.777   5.154  19.409  0.00  0.00    +0.000 N 
ATOM     20  H   UNL     1       5.321   5.577  20.166  0.00  0.00    +0.000 HD
BRANCH  19  21
ATOM     21  C   UNL     1       5.461   4.978  18.173  0.00  0.00    +0.000 A 
ATOM     22  C   UNL     1       4.744   4.413  17.098  0.00  0.00    +0.000 A 
ATOM     23  C   UNL     1       5.258   4.339  15.802  0.00  0.00    +0.000 A 
ATOM     24  C   UNL     1       6.537   4.833  15.545  0.00  0.00    +0.000 A 
ATOM     25  C   UNL     1       7.307   5.364  16.585  0.00  0.00    +0.000 A 
ATOM     26  C   UNL     1       6.773   5.429  17.900  0.00  0.00    +0.000 A 
BRANCH  24  27
ATOM     27  N   UNL     1       7.049   4.815  14.169  0.00  0.00    +0.000 N 
ATOM     28  O   UNL     1       7.971   5.590  13.886  0.00  0.00    +0.000 OA
ATOM     29  O   UNL     1       6.528   4.017  13.377  0.00  0.00    +0.000 OA
ENDBRANCH  24  27
BRANCH  26  30
ATOM     30  N   UNL     1       7.632   6.015  18.943  0.00  0.00    +0.000 N 
ATOM     31  O   UNL     1       8.240   7.063  18.685  0.00  0.00    +0.000 OA
ATOM     32  O   UNL     1       7.680   5.436  20.040  0.00  0.00    +0.000 OA
ENDBRANCH  26  30
ENDBRANCH  19  21
ENDBRANCH   6  19
TORSDOF 10
ENDMDL
MODEL 4
REMARK VINA RESULT:      -8.4      1.147      1.470
REMARK  Name = 
REMARK  11 active torsions:
REMARK  status: ('A' for Active; 'I' for Inactive)
REMARK    1  A    between atoms: C_1  and  C_2
REMARK    2  A    between atoms: C_2  and  O_3
REMARK    3  A    between atoms: O_3  and  C_4
REMARK    4  A    between atoms: C_4  and  C_6
REMARK    5  A    between atoms: C_6  and  N_7
REMARK    6  A    between atoms: C_8  and  C_10
REMARK    7  A    between atoms: C_10  and  C_12
REMARK    8  A    between atoms: C_17  and  N_18
REMARK    9  A    between atoms: N_18  and  C_19
REMARK   10  A    between atoms: C_22  and  N_23
REMARK   11  A    between atoms: C_27  and  N_28
REMARK                            x       y       z     vdW  Elec       q    Type
REMARK                         _______ _______ _______ _____ _____    ______ ____
ROOT
ATOM      1  C   UNL     1       2.375   5.111  19.657  0.00  0.00    +0.000 A 
ATOM      2  C   UNL     1       1.142   4.644  20.159  0.00  0.00    +0.000 A 
ATOM      3  C   UNL     1       1.016   3.378  20.734  0.00  0.00    +0.000 A 
ATOM      4  C   UNL     1       2.121   2.550  20.816  0.00  0.00    +0.000 A 
ATOM      5  C   UNL     1       3.350   3.000  20.344  0.00  0.00    +0.000 A 
ATOM      6  C   UNL     1       3.524   4.291  19.788  0.00  0.00    +0.000 A 
ENDROOT
BRANCH   1   7
ATOM      7  C   UNL     1       2.426   6.481  19.055  0.00  0.00    +0.000 C 
ATOM      8  O   UNL     1       2.852   6.660  17.915  0.00  0.00    +0.000 OA
BRANCH   7  10
ATOM      9  N   UNL     1       1.594   8.794  19.038  0.00  0.00    +0.000 N 
ATOM     10  C   UNL     1       1.923   7.723  19.841  0.00  0.00    +0.000 C 
ATOM     11  O   UNL     1       1.819   7.739  21.058  0.00  0.00    +0.000 OA
ATOM     12  H   UNL     1       1.833   8.719  18.053  0.00  0.00    +0.000 HD
BRANCH   9  13
ATOM     13  C   UNL     1       1.138  10.069  19.581  0.00  0.00    +0.000 C 
BRANCH  13  14
ATOM     14  C   UNL     1      -0.342  10.139  19.952  0.00  0.00    +0.000 C 
ATOM     15  O   UNL     1      -1.241  10.242  19.125  0.00  0.00    +0.000 OA
BRANCH  14  16
ATOM     16  O   UNL     1      -0.528  10.089  21.301  0.00  0.00    +0.000 OA
BRANCH  16  18
ATOM     17  C   UNL     1      -1.570  11.431  23.033  0.00  0.00    +0.000 C 
ATOM     18  C   UNL     1      -0.469  11.344  21.993  0.00  0.00    +0.000 C 
ENDBRANCH  16  18
ENDBRANCH  14  16
ENDBRANCH  13  14
ENDBRANCH   9  13
ENDBRANCH   7  10
ENDBRANCH   1   7
BRANCH   6  19
ATOM     19  N   UNL     1       4.850   4.713  19.490  0.00  0.00    +0.000 N 
ATOM     20  H   UNL     1       5.417   5.000  20.293  0.00  0.00    +0.000 HD
BRANCH  19  21
ATOM     21  C   UNL     1       5.528   4.651  18.240  0.00  0.00    +0.000 A 
ATOM     22  C   UNL     1       4.868   4.020  17.165  0.00  0.00    +0.000 A 
ATOM     23  C   UNL     1       5.364   4.037  15.859  0.00  0.00    +0.000 A 
ATOM     24  C   UNL     1       6.564   4.696  15.593  0.00  0.00    +0.000 A 
ATOM     25  C   UNL     1       7.278   5.302  16.631  0.00  0.00    +0.000 A 
ATOM     26  C   UNL     1       6.765   5.272  17.956  0.00  0.00    +0.000 A 
BRANCH  24  27
ATOM     27  N   UNL     1       7.047   4.772  14.208  0.00  0.00    +0.000 N 
ATOM     28  O   UNL     1       7.942   5.587  13.953  0.00  0.00    +0.000 OA
ATOM     29  O   UNL     1       6.531   4.005  13.382  0.00  0.00    +0.000 OA
ENDBRANCH  24  27
BRANCH  26  30
ATOM     30  N   UNL     1       7.562   5.944  18.997  0.00  0.00    +0.000 N 
ATOM     31  O   UNL     1       7.600   5.441  20.127  0.00  0.00    +0.000 OA
ATOM     32  O   UNL     1       8.176   6.973  18.673  0.00  0.00    +0.000 OA
ENDBRANCH  26  30
ENDBRANCH  19  21
ENDBRANCH   6  19
TORSDOF 10
ENDMDL
MODEL 5
REMARK VINA RESULT:      -8.2      0.903      1.168
REMARK  Name = 
REMARK  11 active torsions:
REMARK  status: ('A' for Active; 'I' for Inactive)
REMARK    1  A    between atoms: C_1  and  C_2
REMARK    2  A    between atoms: C_2  and  O_3
REMARK    3  A    between atoms: O_3  and  C_4
REMARK    4  A    between atoms: C_4  and  C_6
REMARK    5  A    between atoms: C_6  and  N_7
REMARK    6  A    between atoms: C_8  and  C_10
REMARK    7  A    between atoms: C_10  and  C_12
REMARK    8  A    between atoms: C_17  and  N_18
REMARK    9  A    between atoms: N_18  and  C_19
REMARK   10  A    between atoms: C_22  and  N_23
REMARK   11  A    between atoms: C_27  and  N_28
REMARK                            x       y       z     vdW  Elec       q    Type
REMARK                         _______ _______ _______ _____ _____    ______ ____
ROOT
ATOM      1  C   UNL     1       2.552   5.159  19.698  0.00  0.00    +0.000 A 
ATOM      2  C   UNL     1       1.269   4.803  20.163  0.00  0.00    +0.000 A 
ATOM      3  C   UNL     1       0.982   3.513  20.612  0.00  0.00    +0.000 A 
ATOM      4  C   UNL     1       1.973   2.548  20.602  0.00  0.00    +0.000 A 
ATOM      5  C   UNL     1       3.250   2.884  20.167  0.00  0.00    +0.000 A 
ATOM      6  C   UNL     1       3.588   4.192  19.739  0.00  0.00    +0.000 A 
ENDROOT
BRANCH   1   7
ATOM      7  C   UNL     1       2.779   6.563  19.234  0.00  0.00    +0.000 C 
ATOM      8  O   UNL     1       3.707   6.841  18.476  0.00  0.00    +0.000 OA
BRANCH   7  10
ATOM      9  N   UNL     1       1.364   7.589  20.962  0.00  0.00    +0.000 N 
ATOM     10  C   UNL     1       1.836   7.717  19.673  0.00  0.00    +0.000 C 
ATOM     11  O   UNL     1       1.552   8.654  18.944  0.00  0.00    +0.000 OA
ATOM     12  H   UNL     1       1.561   6.714  21.439  0.00  0.00    +0.000 HD
BRANCH   9  13
ATOM     13  C   UNL     1       0.435   8.546  21.553  0.00  0.00    +0.000 C 
BRANCH  13  14
ATOM     14  C   UNL     1       1.070   9.658  22.387  0.00  0.00    +0.000 C 
ATOM     15  O   UNL     1       1.459   9.500  23.538  0.00  0.00    +0.000 OA
BRANCH  14  16
ATOM     16  O   UNL     1       1.130  10.833  21.700  0.00  0.00    +0.000 OA
BRANCH  16  18
ATOM     17  C   UNL     1      -0.822  12.089  22.406  0.00  0.00    +0.000 C 
ATOM     18  C   UNL     1      -0.124  11.375  21.264  0.00  0.00    +0.000 C 
ENDBRANCH  16  18
ENDBRANCH  14  16
ENDBRANCH  13  14
ENDBRANCH   9  13
ENDBRANCH   7  10
ENDBRANCH   1   7
BRANCH   6  19
ATOM     19  N   UNL     1       4.958   4.470  19.472  0.00  0.00    +0.000 N 
ATOM     20  H   UNL     1       5.559   4.578  20.295  0.00  0.00    +0.000 HD
BRANCH  19  21
ATOM     21  C   UNL     1       5.621   4.476  18.213  0.00  0.00    +0.000 A 
ATOM     22  C   UNL     1       4.979   3.840  17.129  0.00  0.00    +0.000 A 
ATOM     23  C   UNL     1       5.455   3.917  15.818  0.00  0.00    +0.000 A 
ATOM     24  C   UNL     1       6.616   4.644  15.555  0.00  0.00    +0.000 A 
ATOM     25  C   UNL     1       7.314   5.257  16.600  0.00  0.00    +0.000 A 
ATOM     26  C   UNL     1       6.821   5.167  17.930  0.00  0.00    +0.000 A 
BRANCH  24  27
ATOM     27  N   UNL     1       7.076   4.780  14.166  0.00  0.00    +0.000 N 
ATOM     28  O   UNL     1       6.525   4.085  13.305  0.00  0.00    +0.000 OA
ATOM     29  O   UNL     1       7.985   5.593  13.945  0.00  0.00    +0.000 OA
ENDBRANCH  24  27
BRANCH  26  30
ATOM     30  N   UNL     1       7.597   5.851  18.978  0.00  0.00    +0.000 N 
ATOM     31  O   UNL     1       8.176   6.906  18.690  0.00  0.00    +0.000 OA
ATOM     32  O   UNL     1       7.606   5.341  20.110  0.00  0.00    +0.000 OA
ENDBRANCH  26  30
ENDBRANCH  19  21
ENDBRANCH   6  19
TORSDOF 10
ENDMDL
MODEL 6
REMARK VINA RESULT:      -8.2      1.374      1.806
REMARK  Name = 
REMARK  11 active torsions:
REMARK  status: ('A' for Active; 'I' for Inactive)
REMARK    1  A    between atoms: C_1  and  C_2
REMARK    2  A    between atoms: C_2  and  O_3
REMARK    3  A    between atoms: O_3  and  C_4
REMARK    4  A    between atoms: C_4  and  C_6
REMARK    5  A    between atoms: C_6  and  N_7
REMARK    6  A    between atoms: C_8  and  C_10
REMARK    7  A    between atoms: C_10  and  C_12
REMARK    8  A    between atoms: C_17  and  N_18
REMARK    9  A    between atoms: N_18  and  C_19
REMARK   10  A    between atoms: C_22  and  N_23
REMARK   11  A    between atoms: C_27  and  N_28
REMARK                            x       y       z     vdW  Elec       q    Type
REMARK                         _______ _______ _______ _____ _____    ______ ____
ROOT
ATOM      1  C   UNL     1       2.324   5.330  19.815  0.00  0.00    +0.000 A 
ATOM      2  C   UNL     1       1.124   4.813  20.346  0.00  0.00    +0.000 A 
ATOM      3  C   UNL     1       1.034   3.502  20.817  0.00  0.00    +0.000 A 
ATOM      4  C   UNL     1       2.143   2.677  20.764  0.00  0.00    +0.000 A 
ATOM      5  C   UNL     1       3.341   3.175  20.262  0.00  0.00    +0.000 A 
ATOM      6  C   UNL     1       3.480   4.510  19.809  0.00  0.00    +0.000 A 
ENDROOT
BRANCH   1   7
ATOM      7  C   UNL     1       2.338   6.746  19.331  0.00  0.00    +0.000 C 
ATOM      8  O   UNL     1       2.804   7.038  18.231  0.00  0.00    +0.000 OA
BRANCH   7  10
ATOM      9  N   UNL     1       1.366   9.000  19.458  0.00  0.00    +0.000 N 
ATOM     10  C   UNL     1       1.743   7.896  20.191  0.00  0.00    +0.000 C 
ATOM     11  O   UNL     1       1.613   7.817  21.402  0.00  0.00    +0.000 OA
ATOM     12  H   UNL     1       1.628   9.012  18.477  0.00  0.00    +0.000 HD
BRANCH   9  13
ATOM     13  C   UNL     1       0.820  10.203  20.080  0.00  0.00    +0.000 C 
BRANCH  13  14
ATOM     14  C   UNL     1      -0.507  10.700  19.510  0.00  0.00    +0.000 C 
ATOM     15  O   UNL     1      -1.235  10.015  18.801  0.00  0.00    +0.000 OA
BRANCH  14  16
ATOM     16  O   UNL     1      -0.761  11.988  19.873  0.00  0.00    +0.000 OA
BRANCH  16  18
ATOM     17  C   UNL     1      -3.024  12.667  20.424  0.00  0.00    +0.000 C 
ATOM     18  C   UNL     1      -1.691  12.169  20.949  0.00  0.00    +0.000 C 
ENDBRANCH  16  18
ENDBRANCH  14  16
ENDBRANCH  13  14
ENDBRANCH   9  13
ENDBRANCH   7  10
ENDBRANCH   1   7
BRANCH   6  19
ATOM     19  N   UNL     1       4.786   4.965  19.472  0.00  0.00    +0.000 N 
ATOM     20  H   UNL     1       5.339   5.343  20.246  0.00  0.00    +0.000 HD
BRANCH  19  21
ATOM     21  C   UNL     1       5.466   4.828  18.229  0.00  0.00    +0.000 A 
ATOM     22  C   UNL     1       4.761   4.251  17.153  0.00  0.00    +0.000 A 
ATOM     23  C   UNL     1       5.267   4.210  15.852  0.00  0.00    +0.000 A 
ATOM     24  C   UNL     1       6.526   4.752  15.592  0.00  0.00    +0.000 A 
ATOM     25  C   UNL     1       7.284   5.298  16.632  0.00  0.00    +0.000 A 
ATOM     26  C   UNL     1       6.759   5.329  17.952  0.00  0.00    +0.000 A 
BRANCH  24  27
ATOM     27  N   UNL     1       7.026   4.770  14.211  0.00  0.00    +0.000 N 
ATOM     28  O   UNL     1       7.951   5.546  13.943  0.00  0.00    +0.000 OA
ATOM     29  O   UNL     1       6.494   3.996  13.402  0.00  0.00    +0.000 OA
ENDBRANCH  24  27
BRANCH  26  30
ATOM     30  N   UNL     1       7.605   5.934  18.995  0.00  0.00    +0.000 N 
ATOM     31  O   UNL     1       8.206   6.983  18.731  0.00  0.00    +0.000 OA
ATOM     32  O   UNL     1       7.649   5.366  20.098  0.00  0.00    +0.000 OA
ENDBRANCH  26  30
ENDBRANCH  19  21
ENDBRANCH   6  19
TORSDOF 10
ENDMDL
MODEL 7
REMARK VINA RESULT:      -8.2      0.891      1.333
REMARK  Name = 
REMARK  11 active torsions:
REMARK  status: ('A' for Active; 'I' for Inactive)
REMARK    1  A    between atoms: C_1  and  C_2
REMARK    2  A    between atoms: C_2  and  O_3
REMARK    3  A    between atoms: O_3  and  C_4
REMARK    4  A    between atoms: C_4  and  C_6
REMARK    5  A    between atoms: C_6  and  N_7
REMARK    6  A    between atoms: C_8  and  C_10
REMARK    7  A    between atoms: C_10  and  C_12
REMARK    8  A    between atoms: C_17  and  N_18
REMARK    9  A    between atoms: N_18  and  C_19
REMARK   10  A    between atoms: C_22  and  N_23
REMARK   11  A    between atoms: C_27  and  N_28
REMARK                            x       y       z     vdW  Elec       q    Type
REMARK                         _______ _______ _______ _____ _____    ______ ____
ROOT
ATOM      1  C   UNL     1       2.315   4.790  19.737  0.00  0.00    +0.000 A 
ATOM      2  C   UNL     1       1.155   4.245  20.327  0.00  0.00    +0.000 A 
ATOM      3  C   UNL     1       1.202   3.087  21.104  0.00  0.00    +0.000 A 
ATOM      4  C   UNL     1       2.410   2.445  21.306  0.00  0.00    +0.000 A 
ATOM      5  C   UNL     1       3.569   2.978  20.749  0.00  0.00    +0.000 A 
ATOM      6  C   UNL     1       3.566   4.172  19.986  0.00  0.00    +0.000 A 
ENDROOT
BRANCH   1   7
ATOM      7  C   UNL     1       2.181   6.035  18.918  0.00  0.00    +0.000 C 
ATOM      8  O   UNL     1       2.133   5.988  17.690  0.00  0.00    +0.000 OA
BRANCH   7  10
ATOM      9  N   UNL     1       1.657   7.387  20.904  0.00  0.00    +0.000 N 
ATOM     10  C   UNL     1       2.073   7.432  19.590  0.00  0.00    +0.000 C 
ATOM     11  O   UNL     1       2.345   8.470  19.008  0.00  0.00    +0.000 OA
ATOM     12  H   UNL     1       1.340   6.487  21.254  0.00  0.00    +0.000 HD
BRANCH   9  13
ATOM     13  C   UNL     1       1.454   8.591  21.702  0.00  0.00    +0.000 C 
BRANCH  13  14
ATOM     14  C   UNL     1       0.022   9.120  21.753  0.00  0.00    +0.000 C 
ATOM     15  O   UNL     1      -0.705   9.005  22.733  0.00  0.00    +0.000 OA
BRANCH  14  16
ATOM     16  O   UNL     1      -0.340   9.709  20.579  0.00  0.00    +0.000 OA
BRANCH  16  18
ATOM     17  C   UNL     1      -0.056  12.001  21.325  0.00  0.00    +0.000 C 
ATOM     18  C   UNL     1       0.295  10.960  20.279  0.00  0.00    +0.000 C 
ENDBRANCH  16  18
ENDBRANCH  14  16
ENDBRANCH  13  14
ENDBRANCH   9  13
ENDBRANCH   7  10
ENDBRANCH   1   7
BRANCH   6  19
ATOM     19  N   UNL     1       4.823   4.719  19.604  0.00  0.00    +0.000 N 
ATOM     20  H   UNL     1       5.366   5.153  20.356  0.00  0.00    +0.000 HD
BRANCH  19  21
ATOM     21  C   UNL     1       5.477   4.612  18.345  0.00  0.00    +0.000 A 
ATOM     22  C   UNL     1       4.790   3.962  17.299  0.00  0.00    +0.000 A 
ATOM     23  C   UNL     1       5.262   3.936  15.985  0.00  0.00    +0.000 A 
ATOM     24  C   UNL     1       6.467   4.569  15.680  0.00  0.00    +0.000 A 
ATOM     25  C   UNL     1       7.209   5.191  16.689  0.00  0.00    +0.000 A 
ATOM     26  C   UNL     1       6.719   5.206  18.022  0.00  0.00    +0.000 A 
BRANCH  24  27
ATOM     27  N   UNL     1       6.927   4.599  14.285  0.00  0.00    +0.000 N 
ATOM     28  O   UNL     1       7.774   5.446  13.975  0.00  0.00    +0.000 OA
ATOM     29  O   UNL     1       6.442   3.765  13.507  0.00  0.00    +0.000 OA
ENDBRANCH  24  27
BRANCH  26  30
ATOM     30  N   UNL     1       7.544   5.893  19.030  0.00  0.00    +0.000 N 
ATOM     31  O   UNL     1       8.117   6.942  18.707  0.00  0.00    +0.000 OA
ATOM     32  O   UNL     1       7.599   5.392  20.165  0.00  0.00    +0.000 OA
ENDBRANCH  26  30
ENDBRANCH  19  21
ENDBRANCH   6  19
TORSDOF 10
ENDMDL
MODEL 8
REMARK VINA RESULT:      -8.0      1.921      2.544
REMARK  Name = 
REMARK  11 active torsions:
REMARK  status: ('A' for Active; 'I' for Inactive)
REMARK    1  A    between atoms: C_1  and  C_2
REMARK    2  A    between atoms: C_2  and  O_3
REMARK    3  A    between atoms: O_3  and  C_4
REMARK    4  A    between atoms: C_4  and  C_6
REMARK    5  A    between atoms: C_6  and  N_7
REMARK    6  A    between atoms: C_8  and  C_10
REMARK    7  A    between atoms: C_10  and  C_12
REMARK    8  A    between atoms: C_17  and  N_18
REMARK    9  A    between atoms: N_18  and  C_19
REMARK   10  A    between atoms: C_22  and  N_23
REMARK   11  A    between atoms: C_27  and  N_28
REMARK                            x       y       z     vdW  Elec       q    Type
REMARK                         _______ _______ _______ _____ _____    ______ ____
ROOT
ATOM      1  C   UNL     1       2.151   5.064  20.014  0.00  0.00    +0.000 A 
ATOM      2  C   UNL     1       1.043   4.321  20.471  0.00  0.00    +0.000 A 
ATOM      3  C   UNL     1       1.024   2.926  20.424  0.00  0.00    +0.000 A 
ATOM      4  C   UNL     1       2.112   2.243  19.913  0.00  0.00    +0.000 A 
ATOM      5  C   UNL     1       3.223   2.957  19.475  0.00  0.00    +0.000 A 
ATOM      6  C   UNL     1       3.294   4.370  19.542  0.00  0.00    +0.000 A 
ENDROOT
BRANCH   1   7
ATOM      7  C   UNL     1       2.094   6.557  20.099  0.00  0.00    +0.000 C 
ATOM      8  O   UNL     1       1.934   7.128  21.177  0.00  0.00    +0.000 OA
BRANCH   7  10
ATOM      9  N   UNL     1       1.869   8.751  19.013  0.00  0.00    +0.000 N 
ATOM     10  C   UNL     1       2.257   7.441  18.832  0.00  0.00    +0.000 C 
ATOM     11  O   UNL     1       2.701   7.012  17.778  0.00  0.00    +0.000 OA
ATOM     12  H   UNL     1       1.401   8.974  19.887  0.00  0.00    +0.000 HD
BRANCH   9  13
ATOM     13  C   UNL     1       1.907   9.735  17.936  0.00  0.00    +0.000 C 
BRANCH  13  14
ATOM     14  C   UNL     1       1.749  11.193  18.365  0.00  0.00    +0.000 C 
ATOM     15  O   UNL     1       2.476  12.095  17.966  0.00  0.00    +0.000 OA
BRANCH  14  16
ATOM     16  O   UNL     1       0.723  11.351  19.246  0.00  0.00    +0.000 OA
BRANCH  16  18
ATOM     17  C   UNL     1      -1.357  10.691  18.185  0.00  0.00    +0.000 C 
ATOM     18  C   UNL     1      -0.510  11.840  18.700  0.00  0.00    +0.000 C 
ENDBRANCH  16  18
ENDBRANCH  14  16
ENDBRANCH  13  14
ENDBRANCH   9  13
ENDBRANCH   7  10
ENDBRANCH   1   7
BRANCH   6  19
ATOM     19  N   UNL     1       4.535   4.989  19.225  0.00  0.00    +0.000 N 
ATOM     20  H   UNL     1       4.984   5.504  19.987  0.00  0.00    +0.000 HD
BRANCH  19  21
ATOM     21  C   UNL     1       5.296   4.861  18.028  0.00  0.00    +0.000 A 
ATOM     22  C   UNL     1       4.650   4.332  16.891  0.00  0.00    +0.000 A 
ATOM     23  C   UNL     1       5.244   4.307  15.628  0.00  0.00    +0.000 A 
ATOM     24  C   UNL     1       6.533   4.816  15.468  0.00  0.00    +0.000 A 
ATOM     25  C   UNL     1       7.233   5.313  16.573  0.00  0.00    +0.000 A 
ATOM     26  C   UNL     1       6.619   5.328  17.854  0.00  0.00    +0.000 A 
BRANCH  24  27
ATOM     27  N   UNL     1       7.129   4.852  14.126  0.00  0.00    +0.000 N 
ATOM     28  O   UNL     1       6.661   4.093  13.268  0.00  0.00    +0.000 OA
ATOM     29  O   UNL     1       8.059   5.648  13.937  0.00  0.00    +0.000 OA
ENDBRANCH  24  27
BRANCH  26  30
ATOM     30  N   UNL     1       7.408   5.881  18.967  0.00  0.00    +0.000 N 
ATOM     31  O   UNL     1       8.159   6.838  18.739  0.00  0.00    +0.000 OA
ATOM     32  O   UNL     1       7.256   5.368  20.088  0.00  0.00    +0.000 OA
ENDBRANCH  26  30
ENDBRANCH  19  21
ENDBRANCH   6  19
TORSDOF 10
ENDMDL
MODEL 9
REMARK VINA RESULT:      -7.8      2.280      8.208
REMARK  Name = 
REMARK  11 active torsions:
REMARK  status: ('A' for Active; 'I' for Inactive)
REMARK    1  A    between atoms: C_1  and  C_2
REMARK    2  A    between atoms: C_2  and  O_3
REMARK    3  A    between atoms: O_3  and  C_4
REMARK    4  A    between atoms: C_4  and  C_6
REMARK    5  A    between atoms: C_6  and  N_7
REMARK    6  A    between atoms: C_8  and  C_10
REMARK    7  A    between atoms: C_10  and  C_12
REMARK    8  A    between atoms: C_17  and  N_18
REMARK    9  A    between atoms: N_18  and  C_19
REMARK   10  A    between atoms: C_22  and  N_23
REMARK   11  A    between atoms: C_27  and  N_28
REMARK                            x       y       z     vdW  Elec       q    Type
REMARK                         _______ _______ _______ _____ _____    ______ ____
ROOT
ATOM      1  C   UNL     1       3.234   4.980  19.373  0.00  0.00    +0.000 A 
ATOM      2  C   UNL     1       2.864   3.658  19.047  0.00  0.00    +0.000 A 
ATOM      3  C   UNL     1       1.664   3.101  19.494  0.00  0.00    +0.000 A 
ATOM      4  C   UNL     1       0.809   3.853  20.279  0.00  0.00    +0.000 A 
ATOM      5  C   UNL     1       1.148   5.166  20.594  0.00  0.00    +0.000 A 
ATOM      6  C   UNL     1       2.338   5.776  20.129  0.00  0.00    +0.000 A 
ENDROOT
BRANCH   1   7
ATOM      7  C   UNL     1       4.537   5.503  18.855  0.00  0.00    +0.000 C 
ATOM      8  O   UNL     1       5.536   5.545  19.572  0.00  0.00    +0.000 OA
BRANCH   7  10
ATOM      9  N   UNL     1       5.101   5.009  16.514  0.00  0.00    +0.000 N 
ATOM     10  C   UNL     1       4.682   5.990  17.387  0.00  0.00    +0.000 C 
ATOM     11  O   UNL     1       4.433   7.134  17.041  0.00  0.00    +0.000 OA
ATOM     12  H   UNL     1       5.396   4.127  16.922  0.00  0.00    +0.000 HD
BRANCH   9  13
ATOM     13  C   UNL     1       5.335   5.270  15.097  0.00  0.00    +0.000 C 
BRANCH  13  14
ATOM     14  C   UNL     1       6.743   4.961  14.591  0.00  0.00    +0.000 C 
ATOM     15  O   UNL     1       7.760   5.402  15.113  0.00  0.00    +0.000 OA
BRANCH  14  16
ATOM     16  O   UNL     1       6.718   4.157  13.491  0.00  0.00    +0.000 OA
BRANCH  16  18
ATOM     17  C   UNL     1       5.541   2.843  11.826  0.00  0.00    +0.000 C 
ATOM     18  C   UNL     1       5.429   3.671  13.093  0.00  0.00    +0.000 C 
ENDBRANCH  16  18
ENDBRANCH  14  16
ENDBRANCH  13  14
ENDBRANCH   9  13
ENDBRANCH   7  10
ENDBRANCH   1   7
BRANCH   6  19
ATOM     19  N   UNL     1       2.508   7.169  20.369  0.00  0.00    +0.000 N 
ATOM     20  H   UNL     1       3.353   7.432  20.884  0.00  0.00    +0.000 HD
BRANCH  19  21
ATOM     21  C   UNL     1       1.728   8.245  19.861  0.00  0.00    +0.000 A 
ATOM     22  C   UNL     1       1.674   8.417  18.462  0.00  0.00    +0.000 A 
ATOM     23  C   UNL     1       0.821   9.334  17.845  0.00  0.00    +0.000 A 
ATOM     24  C   UNL     1      -0.015  10.126  18.632  0.00  0.00    +0.000 A 
ATOM     25  C   UNL     1       0.030  10.025  20.027  0.00  0.00    +0.000 A 
ATOM     26  C   UNL     1       0.907   9.091  20.642  0.00  0.00    +0.000 A 
BRANCH  24  27
ATOM     27  N   UNL     1      -0.960  11.041  17.978  0.00  0.00    +0.000 N 
ATOM     28  O   UNL     1      -0.875  12.245  18.245  0.00  0.00    +0.000 OA
ATOM     29  O   UNL     1      -1.779  10.546  17.191  0.00  0.00    +0.000 OA
ENDBRANCH  24  27
BRANCH  26  30
ATOM     30  N   UNL     1       0.889   9.027  22.113  0.00  0.00    +0.000 N 
ATOM     31  O   UNL     1       1.925   9.313  22.728  0.00  0.00    +0.000 OA
ATOM     32  O   UNL     1      -0.180   8.711  22.660  0.00  0.00    +0.000 OA
ENDBRANCH  26  30
ENDBRANCH  19  21
ENDBRANCH   6  19
TORSDOF 10
ENDMDL
