MODEL 1
REMARK VINA RESULT:      -8.4      0.000      0.000
REMARK  Name = 
REMARK  7 active torsions:
REMARK  status: ('A' for Active; 'I' for Inactive)
REMARK    1  A    between atoms: C_1  and  C_2
REMARK    2  A    between atoms: C_2  and  O_3
REMARK    3  A    between atoms: O_3  and  C_4
REMARK    4  A    between atoms: C_7  and  N_8
REMARK    5  A    between atoms: C_11  and  C_12
REMARK    6  A    between atoms: N_14  and  C_15
REMARK    7  A    between atoms: C_15  and  C_16
REMARK                            x       y       z     vdW  Elec       q    Type
REMARK                         _______ _______ _______ _____ _____    ______ ____
ROOT
ATOM      1  N   UNL     1       2.217   7.366  18.883  0.00  0.00    +0.000 N 
ATOM      2  C   UNL     1       3.178   6.650  18.090  0.00  0.00    +0.000 A 
ATOM      3  C   UNL     1       3.345   5.334  18.475  0.00  0.00    +0.000 A 
ATOM      4  C   UNL     1       4.529   4.676  18.198  0.00  0.00    +0.000 A 
ATOM      5  C   UNL     1       5.121   4.986  16.994  0.00  0.00    +0.000 A 
ATOM      6  C   UNL     1       6.003   4.078  16.377  0.00  0.00    +0.000 A 
ATOM      7  C   UNL     1       6.560   4.371  15.147  0.00  0.00    +0.000 A 
ATOM      8  C   UNL     1       6.246   5.592  14.581  0.00  0.00    +0.000 A 
ATOM      9  C   UNL     1       5.368   6.505  15.213  0.00  0.00    +0.000 A 
ATOM     10  C   UNL     1       4.764   6.227  16.432  0.00  0.00    +0.000 A 
ATOM     11  N   UNL     1       3.893   7.094  17.051  0.00  0.00    +0.000 NA
ATOM     12  H   UNL     1       2.256   7.000  19.835  0.00  0.00    +0.000 HD
ENDROOT
BRANCH   1  16
ATOM     13  C   UNL     1       1.126  11.468  19.215  0.00  0.00    +0.000 A 
ATOM     14  C   UNL     1       1.805  10.995  18.084  0.00  0.00    +0.000 A 
ATOM     15  C   UNL     1       2.167   9.644  17.952  0.00  0.00    +0.000 A 
ATOM     16  C   UNL     1       1.894   8.743  18.966  0.00  0.00    +0.000 A 
ATOM     17  C   UNL     1       1.163   9.217  20.085  0.00  0.00    +0.000 A 
ATOM     18  C   UNL     1       0.794  10.570  20.215  0.00  0.00    +0.000 A 
BRANCH  13  19
ATOM     19  O   UNL     1       0.891  12.820  19.215  0.00  0.00    +0.000 OA
BRANCH  19  21
ATOM     20  C   UNL     1      -1.279  13.631  19.846  0.00  0.00    +0.000 C 
ATOM     21  C   UNL     1      -0.355  13.279  18.687  0.00  0.00    +0.000 C 
ENDBRANCH  19  21
ENDBRANCH  13  19
ENDBRANCH   1  16
BRANCH   4  22
ATOM     22  C   UNL     1       5.497   4.329  19.314  0.00  0.00    +0.000 C 
ATOM     23  O   UNL     1       6.368   5.111  19.696  0.00  0.00    +0.000 OA
ATOM     24  N   UNL     1       5.383   3.151  20.013  0.00  0.00    +0.000 N 
ATOM     25  H   UNL     1       5.918   3.144  20.877  0.00  0.00    +0.000 HD
BRANCH  24  26
ATOM     26  C   UNL     1       4.500   2.059  19.740  0.00  0.00    +0.000 C 
BRANCH  26  27
ATOM     27  C   UNL     1       3.066   2.417  19.896  0.00  0.00    +0.000 A 
ATOM     28  C   UNL     1       2.611   2.725  21.193  0.00  0.00    +0.000 A 
ATOM     29  C   UNL     1       1.261   2.946  21.429  0.00  0.00    +0.000 A 
ATOM     30  C   UNL     1       0.355   2.861  20.379  0.00  0.00    +0.000 A 
ATOM     31  C   UNL     1       0.799   2.554  19.090  0.00  0.00    +0.000 A 
ATOM     32  C   UNL     1       2.151   2.327  18.844  0.00  0.00    +0.000 A 
ATOM     33 CL   UNL     1       2.624   1.898  17.240  0.00  0.00    +0.000 Cl
ENDBRANCH  26  27
ENDBRANCH  24  26
ENDBRANCH   4  22
TORSDOF 6
ENDMDL
MODEL 2
REMARK VINA RESULT:      -8.3      2.420      4.869
REMARK  Name = 
REMARK  7 active torsions:
REMARK  status: ('A' for Active; 'I' for Inactive)
REMARK    1  A    between atoms: C_1  and  C_2
REMARK    2  A    between atoms: C_2  and  O_3
REMARK    3  A    between atoms: O_3  and  C_4
REMARK    4  A    between atoms: C_7  and  N_8
REMARK    5  A    between atoms: C_11  and  C_12
REMARK    6  A    between atoms: N_14  and  C_15
REMARK    7  A    between atoms: C_15  and  C_16
REMARK                            x       y       z     vdW  Elec       q    Type
REMARK                         _______ _______ _______ _____ _____    ______ ____
ROOT
ATOM      1  N   UNL     1       2.474   8.046  18.929  0.00  0.00    +0.000 N 
ATOM      2  C   UNL     1       2.681   6.698  19.382  0.00  0.00    +0.000 A 
ATOM      3  C   UNL     1       3.848   6.128  18.913  0.00  0.00    +0.000 A 
ATOM      4  C   UNL     1       3.955   4.753  18.811  0.00  0.00    +0.000 A 
ATOM      5  C   UNL     1       3.338   4.027  19.805  0.00  0.00    +0.000 A 
ATOM      6  C   UNL     1       3.766   2.719  20.106  0.00  0.00    +0.000 A 
ATOM      7  C   UNL     1       3.176   2.010  21.133  0.00  0.00    +0.000 A 
ATOM      8  C   UNL     1       2.138   2.619  21.814  0.00  0.00    +0.000 A 
ATOM      9  C   UNL     1       1.706   3.929  21.498  0.00  0.00    +0.000 A 
ATOM     10  C   UNL     1       2.300   4.683  20.495  0.00  0.00    +0.000 A 
ATOM     11  N   UNL     1       1.905   5.966  20.188  0.00  0.00    +0.000 NA
ATOM     12  H   UNL     1       2.871   8.130  17.993  0.00  0.00    +0.000 HD
ENDROOT
BRANCH   1  16
ATOM     13  C   UNL     1      -0.938  10.570  19.262  0.00  0.00    +0.000 A 
ATOM     14  C   UNL     1      -0.441  10.197  18.006  0.00  0.00    +0.000 A 
ATOM     15  C   UNL     1       0.680   9.359  17.875  0.00  0.00    +0.000 A 
ATOM     16  C   UNL     1       1.352   8.907  18.997  0.00  0.00    +0.000 A 
ATOM     17  C   UNL     1       0.813   9.246  20.265  0.00  0.00    +0.000 A 
ATOM     18  C   UNL     1      -0.313  10.081  20.397  0.00  0.00    +0.000 A 
BRANCH  13  19
ATOM     19  O   UNL     1      -2.004  11.433  19.220  0.00  0.00    +0.000 OA
BRANCH  19  21
ATOM     20  C   UNL     1      -4.022  11.008  17.989  0.00  0.00    +0.000 C 
ATOM     21  C   UNL     1      -2.639  11.645  17.957  0.00  0.00    +0.000 C 
ENDBRANCH  19  21
ENDBRANCH  13  19
ENDBRANCH   1  16
BRANCH   4  22
ATOM     22  C   UNL     1       3.979   4.081  17.451  0.00  0.00    +0.000 C 
ATOM     23  O   UNL     1       2.957   3.900  16.789  0.00  0.00    +0.000 OA
ATOM     24  N   UNL     1       5.164   3.724  16.855  0.00  0.00    +0.000 N 
ATOM     25  H   UNL     1       5.069   3.517  15.865  0.00  0.00    +0.000 HD
BRANCH  24  26
ATOM     26  C   UNL     1       6.476   3.777  17.425  0.00  0.00    +0.000 C 
BRANCH  26  27
ATOM     27  C   UNL     1       7.019   5.159  17.507  0.00  0.00    +0.000 A 
ATOM     28  C   UNL     1       7.679   5.527  18.695  0.00  0.00    +0.000 A 
ATOM     29  C   UNL     1       8.100   6.836  18.887  0.00  0.00    +0.000 A 
ATOM     30  C   UNL     1       7.865   7.787  17.902  0.00  0.00    +0.000 A 
ATOM     31  C   UNL     1       7.208   7.430  16.722  0.00  0.00    +0.000 A 
ATOM     32  C   UNL     1       6.779   6.120  16.522  0.00  0.00    +0.000 A 
ATOM     33 CL   UNL     1       5.924   5.758  15.065  0.00  0.00    +0.000 Cl
ENDBRANCH  26  27
ENDBRANCH  24  26
ENDBRANCH   4  22
TORSDOF 6
ENDMDL
MODEL 3
REMARK VINA RESULT:      -8.2      0.712      1.202
REMARK  Name = 
REMARK  7 active torsions:
REMARK  status: ('A' for Active; 'I' for Inactive)
REMARK    1  A    between atoms: C_1  and  C_2
REMARK    2  A    between atoms: C_2  and  O_3
REMARK    3  A    between atoms: O_3  and  C_4
REMARK    4  A    between atoms: C_7  and  N_8
REMARK    5  A    between atoms: C_11  and  C_12
REMARK    6  A    between atoms: N_14  and  C_15
REMARK    7  A    between atoms: C_15  and  C_16
REMARK                            x       y       z     vdW  Elec       q    Type
REMARK                         _______ _______ _______ _____ _____    ______ ____
ROOT
ATOM      1  N   UNL     1       2.174   7.342  18.879  0.00  0.00    +0.000 N 
ATOM      2  C   UNL     1       3.151   6.642  18.091  0.00  0.00    +0.000 A 
ATOM      3  C   UNL     1       3.334   5.328  18.474  0.00  0.00    +0.000 A 
ATOM      4  C   UNL     1       4.530   4.689  18.203  0.00  0.00    +0.000 A 
ATOM      5  C   UNL     1       5.126   5.010  17.004  0.00  0.00    +0.000 A 
ATOM      6  C   UNL     1       6.025   4.117  16.390  0.00  0.00    +0.000 A 
ATOM      7  C   UNL     1       6.586   4.421  15.165  0.00  0.00    +0.000 A 
ATOM      8  C   UNL     1       6.258   5.639  14.600  0.00  0.00    +0.000 A 
ATOM      9  C   UNL     1       5.362   6.537  15.228  0.00  0.00    +0.000 A 
ATOM     10  C   UNL     1       4.754   6.247  16.443  0.00  0.00    +0.000 A 
ATOM     11  N   UNL     1       3.866   7.100  17.058  0.00  0.00    +0.000 NA
ATOM     12  H   UNL     1       2.212   6.974  19.830  0.00  0.00    +0.000 HD
ENDROOT
BRANCH   1  16
ATOM     13  C   UNL     1       1.266  11.497  19.058  0.00  0.00    +0.000 A 
ATOM     14  C   UNL     1       0.856  10.628  20.078  0.00  0.00    +0.000 A 
ATOM     15  C   UNL     1       1.152   9.255  20.041  0.00  0.00    +0.000 A 
ATOM     16  C   UNL     1       1.831   8.714  18.964  0.00  0.00    +0.000 A 
ATOM     17  C   UNL     1       2.287   9.607  17.961  0.00  0.00    +0.000 A 
ATOM     18  C   UNL     1       1.996  10.983  18.000  0.00  0.00    +0.000 A 
BRANCH  13  19
ATOM     19  O   UNL     1       0.854  12.797  19.217  0.00  0.00    +0.000 OA
BRANCH  19  21
ATOM     20  C   UNL     1       2.753  13.799  20.291  0.00  0.00    +0.000 C 
ATOM     21  C   UNL     1       1.833  13.828  19.076  0.00  0.00    +0.000 C 
ENDBRANCH  19  21
ENDBRANCH  13  19
ENDBRANCH   1  16
BRANCH   4  22
ATOM     22  C   UNL     1       5.496   4.352  19.325  0.00  0.00    +0.000 C 
ATOM     23  O   UNL     1       6.359   5.142  19.708  0.00  0.00    +0.000 OA
ATOM     24  N   UNL     1       5.387   3.176  20.027  0.00  0.00    +0.000 N 
ATOM     25  H   UNL     1       5.918   3.176  20.894  0.00  0.00    +0.000 HD
BRANCH  24  26
ATOM     26  C   UNL     1       4.513   2.076  19.754  0.00  0.00    +0.000 C 
BRANCH  26  27
ATOM     27  C   UNL     1       3.076   2.420  19.919  0.00  0.00    +0.000 A 
ATOM     28  C   UNL     1       2.626   2.721  21.218  0.00  0.00    +0.000 A 
ATOM     29  C   UNL     1       1.275   2.928  21.462  0.00  0.00    +0.000 A 
ATOM     30  C   UNL     1       0.364   2.836  20.417  0.00  0.00    +0.000 A 
ATOM     31  C   UNL     1       0.804   2.536  19.125  0.00  0.00    +0.000 A 
ATOM     32  C   UNL     1       2.157   2.322  18.872  0.00  0.00    +0.000 A 
ATOM     33 CL   UNL     1       2.626   1.901  17.264  0.00  0.00    +0.000 Cl
ENDBRANCH  26  27
ENDBRANCH  24  26
ENDBRANCH   4  22
TORSDOF 6
ENDMDL
MODEL 4
REMARK VINA RESULT:      -8.0      2.681      5.192
REMARK  Name = 
REMARK  7 active torsions:
REMARK  status: ('A' for Active; 'I' for Inactive)
REMARK    1  A    between atoms: C_1  and  C_2
REMARK    2  A    between atoms: C_2  and  O_3
REMARK    3  A    between atoms: O_3  and  C_4
REMARK    4  A    between atoms: C_7  and  N_8
REMARK    5  A    between atoms: C_11  and  C_12
REMARK    6  A    between atoms: N_14  and  C_15
REMARK    7  A    between atoms: C_15  and  C_16
REMARK                            x       y       z     vdW  Elec       q    Type
REMARK                         _______ _______ _______ _____ _____    ______ ____
ROOT
ATOM      1  N   UNL     1       2.407   8.106  19.124  0.00  0.00    +0.000 N 
ATOM      2  C   UNL     1       2.631   6.747  19.530  0.00  0.00    +0.000 A 
ATOM      3  C   UNL     1       3.865   6.253  19.158  0.00  0.00    +0.000 A 
ATOM      4  C   UNL     1       4.048   4.891  19.002  0.00  0.00    +0.000 A 
ATOM      5  C   UNL     1       3.369   4.088  19.890  0.00  0.00    +0.000 A 
ATOM      6  C   UNL     1       3.826   2.785  20.170  0.00  0.00    +0.000 A 
ATOM      7  C   UNL     1       3.170   1.998  21.096  0.00  0.00    +0.000 A 
ATOM      8  C   UNL     1       2.040   2.526  21.694  0.00  0.00    +0.000 A 
ATOM      9  C   UNL     1       1.580   3.831  21.399  0.00  0.00    +0.000 A 
ATOM     10  C   UNL     1       2.236   4.662  20.500  0.00  0.00    +0.000 A 
ATOM     11  N   UNL     1       1.814   5.940  20.216  0.00  0.00    +0.000 NA
ATOM     12  H   UNL     1       2.892   8.257  18.238  0.00  0.00    +0.000 HD
ENDROOT
BRANCH   1  16
ATOM     13  C   UNL     1      -1.046  10.592  18.969  0.00  0.00    +0.000 A 
ATOM     14  C   UNL     1      -0.476  10.231  20.198  0.00  0.00    +0.000 A 
ATOM     15  C   UNL     1       0.667   9.417  20.269  0.00  0.00    +0.000 A 
ATOM     16  C   UNL     1       1.243   8.914  19.116  0.00  0.00    +0.000 A 
ATOM     17  C   UNL     1       0.692   9.325  17.875  0.00  0.00    +0.000 A 
ATOM     18  C   UNL     1      -0.450  10.145  17.802  0.00  0.00    +0.000 A 
BRANCH  13  19
ATOM     19  O   UNL     1      -2.188  11.346  19.071  0.00  0.00    +0.000 OA
BRANCH  19  21
ATOM     20  C   UNL     1      -4.475  11.744  18.453  0.00  0.00    +0.000 C 
ATOM     21  C   UNL     1      -3.089  11.343  17.962  0.00  0.00    +0.000 C 
ENDBRANCH  19  21
ENDBRANCH  13  19
ENDBRANCH   1  16
BRANCH   4  22
ATOM     22  C   UNL     1       4.241   4.293  17.620  0.00  0.00    +0.000 C 
ATOM     23  O   UNL     1       3.293   4.024  16.882  0.00  0.00    +0.000 OA
ATOM     24  N   UNL     1       5.497   4.108  17.095  0.00  0.00    +0.000 N 
ATOM     25  H   UNL     1       5.492   3.939  16.093  0.00  0.00    +0.000 HD
BRANCH  24  26
ATOM     26  C   UNL     1       6.753   4.289  17.758  0.00  0.00    +0.000 C 
BRANCH  26  27
ATOM     27  C   UNL     1       7.143   5.718  17.886  0.00  0.00    +0.000 A 
ATOM     28  C   UNL     1       6.788   6.584  16.835  0.00  0.00    +0.000 A 
ATOM     29  C   UNL     1       7.228   7.901  16.832  0.00  0.00    +0.000 A 
ATOM     30  C   UNL     1       8.025   8.363  17.872  0.00  0.00    +0.000 A 
ATOM     31  C   UNL     1       8.383   7.508  18.917  0.00  0.00    +0.000 A 
ATOM     32  C   UNL     1       7.949   6.185  18.927  0.00  0.00    +0.000 A 
ATOM     33 CL   UNL     1       8.474   5.167  20.220  0.00  0.00    +0.000 Cl
ENDBRANCH  26  27
ENDBRANCH  24  26
ENDBRANCH   4  22
TORSDOF 6
ENDMDL
MODEL 5
REMARK VINA RESULT:      -8.0      2.562      5.073
REMARK  Name = 
REMARK  7 active torsions:
REMARK  status: ('A' for Active; 'I' for Inactive)
REMARK    1  A    between atoms: C_1  and  C_2
REMARK    2  A    between atoms: C_2  and  O_3
REMARK    3  A    between atoms: O_3  and  C_4
REMARK    4  A    between atoms: C_7  and  N_8
REMARK    5  A    between atoms: C_11  and  C_12
REMARK    6  A    between atoms: N_14  and  C_15
REMARK    7  A    between atoms: C_15  and  C_16
REMARK                            x       y       z     vdW  Elec       q    Type
REMARK                         _______ _______ _______ _____ _____    ______ ____
ROOT
ATOM      1  N   UNL     1       2.471   8.128  19.048  0.00  0.00    +0.000 N 
ATOM      2  C   UNL     1       2.682   6.771  19.470  0.00  0.00    +0.000 A 
ATOM      3  C   UNL     1       3.912   6.260  19.104  0.00  0.00    +0.000 A 
ATOM      4  C   UNL     1       4.080   4.895  18.962  0.00  0.00    +0.000 A 
ATOM      5  C   UNL     1       3.393   4.108  19.859  0.00  0.00    +0.000 A 
ATOM      6  C   UNL     1       3.837   2.805  20.153  0.00  0.00    +0.000 A 
ATOM      7  C   UNL     1       3.172   2.034  21.087  0.00  0.00    +0.000 A 
ATOM      8  C   UNL     1       2.048   2.579  21.678  0.00  0.00    +0.000 A 
ATOM      9  C   UNL     1       1.601   3.886  21.369  0.00  0.00    +0.000 A 
ATOM     10  C   UNL     1       2.266   4.700  20.461  0.00  0.00    +0.000 A 
ATOM     11  N   UNL     1       1.856   5.980  20.163  0.00  0.00    +0.000 NA
ATOM     12  H   UNL     1       2.959   8.264  18.162  0.00  0.00    +0.000 HD
ENDROOT
BRANCH   1  16
ATOM     13  C   UNL     1      -1.042  10.531  19.129  0.00  0.00    +0.000 A 
ATOM     14  C   UNL     1      -0.486  10.114  17.912  0.00  0.00    +0.000 A 
ATOM     15  C   UNL     1       0.669   9.314  17.865  0.00  0.00    +0.000 A 
ATOM     16  C   UNL     1       1.316   8.948  19.032  0.00  0.00    +0.000 A 
ATOM     17  C   UNL     1       0.719   9.331  20.260  0.00  0.00    +0.000 A 
ATOM     18  C   UNL     1      -0.441  10.126  20.309  0.00  0.00    +0.000 A 
BRANCH  13  19
ATOM     19  O   UNL     1      -2.137  11.349  19.003  0.00  0.00    +0.000 OA
BRANCH  19  21
ATOM     20  C   UNL     1      -3.760  12.687  20.161  0.00  0.00    +0.000 C 
ATOM     21  C   UNL     1      -2.277  12.422  19.937  0.00  0.00    +0.000 C 
ENDBRANCH  19  21
ENDBRANCH  13  19
ENDBRANCH   1  16
BRANCH   4  22
ATOM     22  C   UNL     1       4.269   4.280  17.587  0.00  0.00    +0.000 C 
ATOM     23  O   UNL     1       3.318   4.006  16.854  0.00  0.00    +0.000 OA
ATOM     24  N   UNL     1       5.523   4.086  17.062  0.00  0.00    +0.000 N 
ATOM     25  H   UNL     1       5.515   3.905  16.062  0.00  0.00    +0.000 HD
BRANCH  24  26
ATOM     26  C   UNL     1       6.781   4.270  17.719  0.00  0.00    +0.000 C 
BRANCH  26  27
ATOM     27  C   UNL     1       7.162   5.700  17.856  0.00  0.00    +0.000 A 
ATOM     28  C   UNL     1       6.839   6.563  16.791  0.00  0.00    +0.000 A 
ATOM     29  C   UNL     1       7.275   7.881  16.799  0.00  0.00    +0.000 A 
ATOM     30  C   UNL     1       8.036   8.348  17.863  0.00  0.00    +0.000 A 
ATOM     31  C   UNL     1       8.363   7.497  18.922  0.00  0.00    +0.000 A 
ATOM     32  C   UNL     1       7.933   6.173  18.921  0.00  0.00    +0.000 A 
ATOM     33 CL   UNL     1       8.418   5.160  20.233  0.00  0.00    +0.000 Cl
ENDBRANCH  26  27
ENDBRANCH  24  26
ENDBRANCH   4  22
TORSDOF 6
ENDMDL
MODEL 6
REMARK VINA RESULT:      -7.9      3.202      9.373
REMARK  Name = 
REMARK  7 active torsions:
REMARK  status: ('A' for Active; 'I' for Inactive)
REMARK    1  A    between atoms: C_1  and  C_2
REMARK    2  A    between atoms: C_2  and  O_3
REMARK    3  A    between atoms: O_3  and  C_4
REMARK    4  A    between atoms: C_7  and  N_8
REMARK    5  A    between atoms: C_11  and  C_12
REMARK    6  A    between atoms: N_14  and  C_15
REMARK    7  A    between atoms: C_15  and  C_16
REMARK                            x       y       z     vdW  Elec       q    Type
REMARK                         _______ _______ _______ _____ _____    ______ ____
ROOT
ATOM      1  N   UNL     1       2.169   8.324  17.758  0.00  0.00    +0.000 N 
ATOM      2  C   UNL     1       1.511   8.908  18.893  0.00  0.00    +0.000 A 
ATOM      3  C   UNL     1       0.788  10.045  18.591  0.00  0.00    +0.000 A 
ATOM      4  C   UNL     1       0.538  10.988  19.572  0.00  0.00    +0.000 A 
ATOM      5  C   UNL     1       0.301  10.493  20.835  0.00  0.00    +0.000 A 
ATOM      6  C   UNL     1      -0.430  11.248  21.772  0.00  0.00    +0.000 A 
ATOM      7  C   UNL     1      -0.706  10.731  23.023  0.00  0.00    +0.000 A 
ATOM      8  C   UNL     1      -0.205   9.476  23.319  0.00  0.00    +0.000 A 
ATOM      9  C   UNL     1       0.539   8.729  22.375  0.00  0.00    +0.000 A 
ATOM     10  C   UNL     1       0.805   9.205  21.097  0.00  0.00    +0.000 A 
ATOM     11  N   UNL     1       1.510   8.483  20.161  0.00  0.00    +0.000 NA
ATOM     12  H   UNL     1       2.437   9.078  17.124  0.00  0.00    +0.000 HD
ENDROOT
BRANCH   1  16
ATOM     13  C   UNL     1       5.036   5.185  17.536  0.00  0.00    +0.000 A 
ATOM     14  C   UNL     1       5.402   6.511  17.267  0.00  0.00    +0.000 A 
ATOM     15  C   UNL     1       4.472   7.562  17.342  0.00  0.00    +0.000 A 
ATOM     16  C   UNL     1       3.147   7.305  17.649  0.00  0.00    +0.000 A 
ATOM     17  C   UNL     1       2.796   5.969  17.970  0.00  0.00    +0.000 A 
ATOM     18  C   UNL     1       3.728   4.916  17.901  0.00  0.00    +0.000 A 
BRANCH  13  19
ATOM     19  O   UNL     1       6.046   4.271  17.369  0.00  0.00    +0.000 OA
BRANCH  19  21
ATOM     20  C   UNL     1       6.096   3.851  15.005  0.00  0.00    +0.000 C 
ATOM     21  C   UNL     1       6.866   4.390  16.204  0.00  0.00    +0.000 C 
ENDBRANCH  19  21
ENDBRANCH  13  19
ENDBRANCH   1  16
BRANCH   4  22
ATOM     22  C   UNL     1       1.228  12.339  19.535  0.00  0.00    +0.000 C 
ATOM     23  O   UNL     1       2.385  12.497  19.923  0.00  0.00    +0.000 OA
ATOM     24  N   UNL     1       0.615  13.435  18.978  0.00  0.00    +0.000 N 
ATOM     25  H   UNL     1       1.255  14.202  18.791  0.00  0.00    +0.000 HD
BRANCH  24  26
ATOM     26  C   UNL     1      -0.733  13.533  18.506  0.00  0.00    +0.000 C 
BRANCH  26  27
ATOM     27  C   UNL     1      -1.729  13.626  19.606  0.00  0.00    +0.000 A 
ATOM     28  C   UNL     1      -1.495  14.580  20.615  0.00  0.00    +0.000 A 
ATOM     29  C   UNL     1      -2.316  14.634  21.733  0.00  0.00    +0.000 A 
ATOM     30  C   UNL     1      -3.372  13.741  21.857  0.00  0.00    +0.000 A 
ATOM     31  C   UNL     1      -3.609  12.789  20.861  0.00  0.00    +0.000 A 
ATOM     32  C   UNL     1      -2.788  12.724  19.738  0.00  0.00    +0.000 A 
ATOM     33 CL   UNL     1      -3.103  11.489  18.572  0.00  0.00    +0.000 Cl
ENDBRANCH  26  27
ENDBRANCH  24  26
ENDBRANCH   4  22
TORSDOF 6
ENDMDL
MODEL 7
REMARK VINA RESULT:      -7.9      2.157      4.691
REMARK  Name = 
REMARK  7 active torsions:
REMARK  status: ('A' for Active; 'I' for Inactive)
REMARK    1  A    between atoms: C_1  and  C_2
REMARK    2  A    between atoms: C_2  and  O_3
REMARK    3  A    between atoms: O_3  and  C_4
REMARK    4  A    between atoms: C_7  and  N_8
REMARK    5  A    between atoms: C_11  and  C_12
REMARK    6  A    between atoms: N_14  and  C_15
REMARK    7  A    between atoms: C_15  and  C_16
REMARK                            x       y       z     vdW  Elec       q    Type
REMARK                         _______ _______ _______ _____ _____    ______ ____
ROOT
ATOM      1  N   UNL     1       2.440   8.068  18.967  0.00  0.00    +0.000 N 
ATOM      2  C   UNL     1       2.638   6.706  19.377  0.00  0.00    +0.000 A 
ATOM      3  C   UNL     1       3.707   6.089  18.757  0.00  0.00    +0.000 A 
ATOM      4  C   UNL     1       3.734   4.713  18.630  0.00  0.00    +0.000 A 
ATOM      5  C   UNL     1       3.214   4.001  19.687  0.00  0.00    +0.000 A 
ATOM      6  C   UNL     1       3.614   2.670  19.918  0.00  0.00    +0.000 A 
ATOM      7  C   UNL     1       3.126   1.973  21.006  0.00  0.00    +0.000 A 
ATOM      8  C   UNL     1       2.214   2.618  21.820  0.00  0.00    +0.000 A 
ATOM      9  C   UNL     1       1.809   3.953  21.575  0.00  0.00    +0.000 A 
ATOM     10  C   UNL     1       2.306   4.693  20.510  0.00  0.00    +0.000 A 
ATOM     11  N   UNL     1       1.937   5.997  20.269  0.00  0.00    +0.000 NA
ATOM     12  H   UNL     1       2.718   8.148  17.988  0.00  0.00    +0.000 HD
ENDROOT
BRANCH   1  16
ATOM     13  C   UNL     1      -0.792  10.727  19.746  0.00  0.00    +0.000 A 
ATOM     14  C   UNL     1      -0.343  10.507  18.437  0.00  0.00    +0.000 A 
ATOM     15  C   UNL     1       0.717   9.628  18.158  0.00  0.00    +0.000 A 
ATOM     16  C   UNL     1       1.378   8.980  19.186  0.00  0.00    +0.000 A 
ATOM     17  C   UNL     1       0.886   9.168  20.503  0.00  0.00    +0.000 A 
ATOM     18  C   UNL     1      -0.180  10.043  20.783  0.00  0.00    +0.000 A 
BRANCH  13  19
ATOM     19  O   UNL     1      -1.800  11.653  19.854  0.00  0.00    +0.000 OA
BRANCH  19  21
ATOM     20  C   UNL     1      -0.702  13.731  20.346  0.00  0.00    +0.000 C 
ATOM     21  C   UNL     1      -1.556  12.965  19.344  0.00  0.00    +0.000 C 
ENDBRANCH  19  21
ENDBRANCH  13  19
ENDBRANCH   1  16
BRANCH   4  22
ATOM     22  C   UNL     1       3.552   4.061  17.271  0.00  0.00    +0.000 C 
ATOM     23  O   UNL     1       2.457   4.005  16.711  0.00  0.00    +0.000 OA
ATOM     24  N   UNL     1       4.627   3.583  16.562  0.00  0.00    +0.000 N 
ATOM     25  H   UNL     1       4.415   3.401  15.585  0.00  0.00    +0.000 HD
BRANCH  24  26
ATOM     26  C   UNL     1       5.985   3.481  17.003  0.00  0.00    +0.000 C 
BRANCH  26  27
ATOM     27  C   UNL     1       6.629   4.804  17.214  0.00  0.00    +0.000 A 
ATOM     28  C   UNL     1       7.315   5.007  18.426  0.00  0.00    +0.000 A 
ATOM     29  C   UNL     1       7.831   6.256  18.740  0.00  0.00    +0.000 A 
ATOM     30  C   UNL     1       7.667   7.312  17.852  0.00  0.00    +0.000 A 
ATOM     31  C   UNL     1       6.986   7.119  16.648  0.00  0.00    +0.000 A 
ATOM     32  C   UNL     1       6.461   5.870  16.326  0.00  0.00    +0.000 A 
ATOM     33 CL   UNL     1       5.583   5.714  14.847  0.00  0.00    +0.000 Cl
ENDBRANCH  26  27
ENDBRANCH  24  26
ENDBRANCH   4  22
TORSDOF 6
ENDMDL
MODEL 8
REMARK VINA RESULT:      -7.9      4.436     10.014
REMARK  Name = 
REMARK  7 active torsions:
REMARK  status: ('A' for Active; 'I' for Inactive)
REMARK    1  A    between atoms: C_1  and  C_2
REMARK    2  A    between atoms: C_2  and  O_3
REMARK    3  A    between atoms: O_3  and  C_4
REMARK    4  A    between atoms: C_7  and  N_8
REMARK    5  A    between atoms: C_11  and  C_12
REMARK    6  A    between atoms: N_14  and  C_15
REMARK    7  A    between atoms: C_15  and  C_16
REMARK                            x       y       z     vdW  Elec       q    Type
REMARK                         _______ _______ _______ _____ _____    ______ ____
ROOT
ATOM      1  N   UNL     1       0.160   9.725  21.554  0.00  0.00    +0.000 N 
ATOM      2  C   UNL     1      -0.121  11.073  21.963  0.00  0.00    +0.000 A 
ATOM      3  C   UNL     1      -1.116  11.167  22.917  0.00  0.00    +0.000 A 
ATOM      4  C   UNL     1      -1.849  12.333  23.039  0.00  0.00    +0.000 A 
ATOM      5  C   UNL     1      -1.153  13.504  22.839  0.00  0.00    +0.000 A 
ATOM      6  C   UNL     1      -1.610  14.712  23.400  0.00  0.00    +0.000 A 
ATOM      7  C   UNL     1      -0.886  15.877  23.237  0.00  0.00    +0.000 A 
ATOM      8  C   UNL     1       0.267  15.809  22.477  0.00  0.00    +0.000 A 
ATOM      9  C   UNL     1       0.714  14.593  21.907  0.00  0.00    +0.000 A 
ATOM     10  C   UNL     1       0.029  13.398  22.081  0.00  0.00    +0.000 A 
ATOM     11  N   UNL     1       0.460  12.204  21.550  0.00  0.00    +0.000 NA
ATOM     12  H   UNL     1      -0.710   9.192  21.596  0.00  0.00    +0.000 HD
ENDROOT
BRANCH   1  16
ATOM     13  C   UNL     1       2.397   8.216  18.261  0.00  0.00    +0.000 A 
ATOM     14  C   UNL     1       2.265   7.471  19.441  0.00  0.00    +0.000 A 
ATOM     15  C   UNL     1       1.525   7.948  20.536  0.00  0.00    +0.000 A 
ATOM     16  C   UNL     1       0.934   9.198  20.491  0.00  0.00    +0.000 A 
ATOM     17  C   UNL     1       1.028   9.924  19.276  0.00  0.00    +0.000 A 
ATOM     18  C   UNL     1       1.765   9.444  18.176  0.00  0.00    +0.000 A 
BRANCH  13  19
ATOM     19  O   UNL     1       3.194   7.635  17.306  0.00  0.00    +0.000 OA
BRANCH  19  21
ATOM     20  C   UNL     1       4.897   6.132  16.526  0.00  0.00    +0.000 C 
ATOM     21  C   UNL     1       4.034   6.551  17.710  0.00  0.00    +0.000 C 
ENDBRANCH  19  21
ENDBRANCH  13  19
ENDBRANCH   1  16
BRANCH   4  22
ATOM     22  C   UNL     1      -3.305  12.376  22.615  0.00  0.00    +0.000 C 
ATOM     23  O   UNL     1      -4.228  12.233  23.417  0.00  0.00    +0.000 OA
ATOM     24  N   UNL     1      -3.660  12.670  21.321  0.00  0.00    +0.000 N 
ATOM     25  H   UNL     1      -4.642  12.909  21.218  0.00  0.00    +0.000 HD
BRANCH  24  26
ATOM     26  C   UNL     1      -2.792  12.826  20.194  0.00  0.00    +0.000 C 
BRANCH  26  27
ATOM     27  C   UNL     1      -3.065  11.846  19.109  0.00  0.00    +0.000 A 
ATOM     28  C   UNL     1      -1.992  11.047  18.671  0.00  0.00    +0.000 A 
ATOM     29  C   UNL     1      -2.146  10.202  17.581  0.00  0.00    +0.000 A 
ATOM     30  C   UNL     1      -3.365  10.148  16.918  0.00  0.00    +0.000 A 
ATOM     31  C   UNL     1      -4.434  10.940  17.345  0.00  0.00    +0.000 A 
ATOM     32  C   UNL     1      -4.288  11.793  18.436  0.00  0.00    +0.000 A 
ATOM     33 CL   UNL     1      -5.631  12.786  18.877  0.00  0.00    +0.000 Cl
ENDBRANCH  26  27
ENDBRANCH  24  26
ENDBRANCH   4  22
TORSDOF 6
ENDMDL
MODEL 9
REMARK VINA RESULT:      -7.9      2.259      5.223
REMARK  Name = 
REMARK  7 active torsions:
REMARK  status: ('A' for Active; 'I' for Inactive)
REMARK    1  A    between atoms: C_1  and  C_2
REMARK    2  A    between atoms: C_2  and  O_3
REMARK    3  A    between atoms: O_3  and  C_4
REMARK    4  A    between atoms: C_7  and  N_8
REMARK    5  A    between atoms: C_11  and  C_12
REMARK    6  A    between atoms: N_14  and  C_15
REMARK    7  A    between atoms: C_15  and  C_16
REMARK                            x       y       z     vdW  Elec       q    Type
REMARK                         _______ _______ _______ _____ _____    ______ ____
ROOT
ATOM      1  N   UNL     1       2.297   8.107  18.666  0.00  0.00    +0.000 N 
ATOM      2  C   UNL     1       2.526   6.768  19.132  0.00  0.00    +0.000 A 
ATOM      3  C   UNL     1       3.465   6.076  18.393  0.00  0.00    +0.000 A 
ATOM      4  C   UNL     1       3.438   4.694  18.358  0.00  0.00    +0.000 A 
ATOM      5  C   UNL     1       3.079   4.070  19.532  0.00  0.00    +0.000 A 
ATOM      6  C   UNL     1       3.478   2.744  19.788  0.00  0.00    +0.000 A 
ATOM      7  C   UNL     1       3.156   2.135  20.985  0.00  0.00    +0.000 A 
ATOM      8  C   UNL     1       2.404   2.864  21.888  0.00  0.00    +0.000 A 
ATOM      9  C   UNL     1       1.997   4.193  21.619  0.00  0.00    +0.000 A 
ATOM     10  C   UNL     1       2.333   4.846  20.440  0.00  0.00    +0.000 A 
ATOM     11  N   UNL     1       1.962   6.144  20.171  0.00  0.00    +0.000 NA
ATOM     12  H   UNL     1       2.415   8.115  17.652  0.00  0.00    +0.000 HD
ENDROOT
BRANCH   1  16
ATOM     13  C   UNL     1      -0.690  10.932  19.771  0.00  0.00    +0.000 A 
ATOM     14  C   UNL     1      -0.545  10.525  18.438  0.00  0.00    +0.000 A 
ATOM     15  C   UNL     1       0.430   9.589  18.054  0.00  0.00    +0.000 A 
ATOM     16  C   UNL     1       1.307   9.068  18.988  0.00  0.00    +0.000 A 
ATOM     17  C   UNL     1       1.122   9.445  20.343  0.00  0.00    +0.000 A 
ATOM     18  C   UNL     1       0.142  10.378  20.730  0.00  0.00    +0.000 A 
BRANCH  13  19
ATOM     19  O   UNL     1      -1.652  11.890  19.973  0.00  0.00    +0.000 OA
BRANCH  19  21
ATOM     20  C   UNL     1      -0.440  13.879  19.390  0.00  0.00    +0.000 C 
ATOM     21  C   UNL     1      -1.232  13.160  20.475  0.00  0.00    +0.000 C 
ENDBRANCH  19  21
ENDBRANCH  13  19
ENDBRANCH   1  16
BRANCH   4  22
ATOM     22  C   UNL     1       3.022   3.963  17.095  0.00  0.00    +0.000 C 
ATOM     23  O   UNL     1       1.841   3.755  16.814  0.00  0.00    +0.000 OA
ATOM     24  N   UNL     1       3.950   3.579  16.158  0.00  0.00    +0.000 N 
ATOM     25  H   UNL     1       3.538   3.328  15.263  0.00  0.00    +0.000 HD
BRANCH  24  26
ATOM     26  C   UNL     1       5.376   3.654  16.263  0.00  0.00    +0.000 C 
BRANCH  26  27
ATOM     27  C   UNL     1       6.028   4.113  15.008  0.00  0.00    +0.000 A 
ATOM     28  C   UNL     1       5.734   3.404  13.827  0.00  0.00    +0.000 A 
ATOM     29  C   UNL     1       6.402   3.700  12.647  0.00  0.00    +0.000 A 
ATOM     30  C   UNL     1       7.367   4.699  12.633  0.00  0.00    +0.000 A 
ATOM     31  C   UNL     1       7.666   5.405  13.802  0.00  0.00    +0.000 A 
ATOM     32  C   UNL     1       7.003   5.113  14.991  0.00  0.00    +0.000 A 
ATOM     33 CL   UNL     1       7.460   5.984  16.411  0.00  0.00    +0.000 Cl
ENDBRANCH  26  27
ENDBRANCH  24  26
ENDBRANCH   4  22
TORSDOF 6
ENDMDL
