MODEL 1
REMARK VINA RESULT:      -7.8      0.000      0.000
REMARK  Name = 
REMARK  5 active torsions:
REMARK  status: ('A' for Active; 'I' for Inactive)
REMARK    1  A    between atoms: C_1  and  N_2
REMARK    2  A    between atoms: C_3  and  C_5
REMARK    3  A    between atoms: C_6  and  C_7
REMARK    4  A    between atoms: C_12  and  C_13
REMARK    5  A    between atoms: N_19  and  C_20
REMARK                            x       y       z     vdW  Elec       q    Type
REMARK                         _______ _______ _______ _____ _____    ______ ____
ROOT
ATOM      1  C   UNL     1       2.398   4.746  19.845  0.00  0.00    +0.000 A 
ATOM      2  C   UNL     1       1.641   4.487  20.998  0.00  0.00    +0.000 A 
ATOM      3  C   UNL     1       1.902   3.342  21.725  0.00  0.00    +0.000 A 
ATOM      4  N   UNL     1       2.845   2.446  21.383  0.00  0.00    +0.000 NA
ATOM      5  C   UNL     1       3.559   2.716  20.260  0.00  0.00    +0.000 A 
ATOM      6  C   UNL     1       3.415   3.848  19.443  0.00  0.00    +0.000 A 
ENDROOT
BRANCH   6   7
ATOM      7  C   UNL     1       4.318   4.044  18.272  0.00  0.00    +0.000 A 
ATOM      8  C   UNL     1       4.211   3.271  17.100  0.00  0.00    +0.000 A 
ATOM      9  C   UNL     1       4.992   3.509  15.957  0.00  0.00    +0.000 A 
ATOM     10  C   UNL     1       5.961   4.519  16.000  0.00  0.00    +0.000 A 
ATOM     11  C   UNL     1       6.911   5.059  15.107  0.00  0.00    +0.000 A 
ATOM     12  N   UNL     1       7.634   6.039  15.654  0.00  0.00    +0.000 NA
ATOM     13  N   UNL     1       7.143   6.128  16.907  0.00  0.00    +0.000 N 
ATOM     14  C   UNL     1       7.698   7.094  17.825  0.00  0.00    +0.000 C 
ATOM     15  C   UNL     1       6.118   5.252  17.169  0.00  0.00    +0.000 A 
ATOM     16  C   UNL     1       5.315   5.044  18.304  0.00  0.00    +0.000 A 
ENDBRANCH   6   7
BRANCH   1  18
ATOM     17  C   UNL     1       2.354   7.202  19.523  0.00  0.00    +0.000 C 
ATOM     18  C   UNL     1       2.049   5.966  19.105  0.00  0.00    +0.000 C 
BRANCH  17  21
ATOM     19  C   UNL     1       1.014  10.533  18.465  0.00  0.00    +0.000 C 
ATOM     20  N   UNL     1       1.318   9.326  19.188  0.00  0.00    +0.000 N 
ATOM     21  C   UNL     1       2.070   8.338  18.608  0.00  0.00    +0.000 C 
ATOM     22  O   UNL     1       2.494   8.386  17.459  0.00  0.00    +0.000 OA
ATOM     23  H   UNL     1       1.025   9.251  20.152  0.00  0.00    +0.000 HD
ENDBRANCH  17  21
ENDBRANCH   1  18
TORSDOF 3
ENDMDL
MODEL 2
REMARK VINA RESULT:      -7.6      1.887      5.688
REMARK  Name = 
REMARK  5 active torsions:
REMARK  status: ('A' for Active; 'I' for Inactive)
REMARK    1  A    between atoms: C_1  and  N_2
REMARK    2  A    between atoms: C_3  and  C_5
REMARK    3  A    between atoms: C_6  and  C_7
REMARK    4  A    between atoms: C_12  and  C_13
REMARK    5  A    between atoms: N_19  and  C_20
REMARK                            x       y       z     vdW  Elec       q    Type
REMARK                         _______ _______ _______ _____ _____    ______ ____
ROOT
ATOM      1  C   UNL     1       4.170   4.635  19.269  0.00  0.00    +0.000 A 
ATOM      2  C   UNL     1       4.459   3.279  19.485  0.00  0.00    +0.000 A 
ATOM      3  C   UNL     1       3.476   2.462  20.010  0.00  0.00    +0.000 A 
ATOM      4  N   UNL     1       2.248   2.900  20.339  0.00  0.00    +0.000 NA
ATOM      5  C   UNL     1       1.995   4.216  20.126  0.00  0.00    +0.000 A 
ATOM      6  C   UNL     1       2.889   5.150  19.580  0.00  0.00    +0.000 A 
ENDROOT
BRANCH   6   7
ATOM      7  C   UNL     1       2.450   6.556  19.344  0.00  0.00    +0.000 A 
ATOM      8  C   UNL     1       2.545   7.173  18.083  0.00  0.00    +0.000 A 
ATOM      9  C   UNL     1       2.048   8.462  17.826  0.00  0.00    +0.000 A 
ATOM     10  C   UNL     1       1.487   9.191  18.881  0.00  0.00    +0.000 A 
ATOM     11  C   UNL     1       0.895  10.462  19.040  0.00  0.00    +0.000 A 
ATOM     12  N   UNL     1       0.518  10.702  20.299  0.00  0.00    +0.000 NA
ATOM     13  N   UNL     1       0.868   9.574  20.950  0.00  0.00    +0.000 N 
ATOM     14  C   UNL     1       0.622   9.462  22.368  0.00  0.00    +0.000 C 
ATOM     15  C   UNL     1       1.438   8.618  20.145  0.00  0.00    +0.000 A 
ATOM     16  C   UNL     1       1.900   7.315  20.402  0.00  0.00    +0.000 A 
ENDBRANCH   6   7
BRANCH   1  18
ATOM     17  C   UNL     1       5.815   5.263  17.526  0.00  0.00    +0.000 C 
ATOM     18  C   UNL     1       5.268   5.451  18.735  0.00  0.00    +0.000 C 
BRANCH  17  21
ATOM     19  C   UNL     1       7.955   8.332  17.625  0.00  0.00    +0.000 C 
ATOM     20  N   UNL     1       6.968   7.320  17.895  0.00  0.00    +0.000 N 
ATOM     21  C   UNL     1       6.820   6.250  17.053  0.00  0.00    +0.000 C 
ATOM     22  O   UNL     1       7.465   6.095  16.022  0.00  0.00    +0.000 OA
ATOM     23  H   UNL     1       6.435   7.378  18.753  0.00  0.00    +0.000 HD
ENDBRANCH  17  21
ENDBRANCH   1  18
TORSDOF 3
ENDMDL
MODEL 3
REMARK VINA RESULT:      -7.6      1.878      5.708
REMARK  Name = 
REMARK  5 active torsions:
REMARK  status: ('A' for Active; 'I' for Inactive)
REMARK    1  A    between atoms: C_1  and  N_2
REMARK    2  A    between atoms: C_3  and  C_5
REMARK    3  A    between atoms: C_6  and  C_7
REMARK    4  A    between atoms: C_12  and  C_13
REMARK    5  A    between atoms: N_19  and  C_20
REMARK                            x       y       z     vdW  Elec       q    Type
REMARK                         _______ _______ _______ _____ _____    ______ ____
ROOT
ATOM      1  C   UNL     1       3.616   4.021  19.540  0.00  0.00    +0.000 A 
ATOM      2  C   UNL     1       3.751   2.747  20.111  0.00  0.00    +0.000 A 
ATOM      3  C   UNL     1       3.020   2.441  21.243  0.00  0.00    +0.000 A 
ATOM      4  N   UNL     1       2.184   3.309  21.840  0.00  0.00    +0.000 NA
ATOM      5  C   UNL     1       2.077   4.537  21.272  0.00  0.00    +0.000 A 
ATOM      6  C   UNL     1       2.740   4.972  20.115  0.00  0.00    +0.000 A 
ENDROOT
BRANCH   6   7
ATOM      7  C   UNL     1       2.474   6.334  19.567  0.00  0.00    +0.000 A 
ATOM      8  C   UNL     1       2.821   6.699  18.253  0.00  0.00    +0.000 A 
ATOM      9  C   UNL     1       2.491   7.946  17.696  0.00  0.00    +0.000 A 
ATOM     10  C   UNL     1       1.841   8.891  18.499  0.00  0.00    +0.000 A 
ATOM     11  C   UNL     1       1.351  10.204  18.332  0.00  0.00    +0.000 A 
ATOM     12  N   UNL     1       0.805  10.696  19.447  0.00  0.00    +0.000 NA
ATOM     13  N   UNL     1       0.945   9.690  20.334  0.00  0.00    +0.000 N 
ATOM     14  C   UNL     1       0.471   9.859  21.687  0.00  0.00    +0.000 C 
ATOM     15  C   UNL     1       1.543   8.567  19.816  0.00  0.00    +0.000 A 
ATOM     16  C   UNL     1       1.838   7.309  20.368  0.00  0.00    +0.000 A 
ENDBRANCH   6   7
BRANCH   1  18
ATOM     17  C   UNL     1       5.778   4.412  18.392  0.00  0.00    +0.000 C 
ATOM     18  C   UNL     1       4.443   4.287  18.356  0.00  0.00    +0.000 C 
BRANCH  17  21
ATOM     19  C   UNL     1       6.423   3.956  14.734  0.00  0.00    +0.000 C 
ATOM     20  N   UNL     1       5.892   3.876  16.070  0.00  0.00    +0.000 N 
ATOM     21  C   UNL     1       6.503   4.537  17.102  0.00  0.00    +0.000 C 
ATOM     22  O   UNL     1       7.532   5.193  16.982  0.00  0.00    +0.000 OA
ATOM     23  H   UNL     1       5.024   3.379  16.218  0.00  0.00    +0.000 HD
ENDBRANCH  17  21
ENDBRANCH   1  18
TORSDOF 3
ENDMDL
MODEL 4
REMARK VINA RESULT:      -7.6      1.001      1.001
REMARK  Name = 
REMARK  5 active torsions:
REMARK  status: ('A' for Active; 'I' for Inactive)
REMARK    1  A    between atoms: C_1  and  N_2
REMARK    2  A    between atoms: C_3  and  C_5
REMARK    3  A    between atoms: C_6  and  C_7
REMARK    4  A    between atoms: C_12  and  C_13
REMARK    5  A    between atoms: N_19  and  C_20
REMARK                            x       y       z     vdW  Elec       q    Type
REMARK                         _______ _______ _______ _____ _____    ______ ____
ROOT
ATOM      1  C   UNL     1       2.532   4.639  20.270  0.00  0.00    +0.000 A 
ATOM      2  C   UNL     1       1.815   4.248  21.410  0.00  0.00    +0.000 A 
ATOM      3  C   UNL     1       2.025   2.986  21.931  0.00  0.00    +0.000 A 
ATOM      4  N   UNL     1       2.881   2.098  21.397  0.00  0.00    +0.000 NA
ATOM      5  C   UNL     1       3.559   2.498  20.291  0.00  0.00    +0.000 A 
ATOM      6  C   UNL     1       3.459   3.754  19.672  0.00  0.00    +0.000 A 
ENDROOT
BRANCH   6   7
ATOM      7  C   UNL     1       4.317   4.077  18.495  0.00  0.00    +0.000 A 
ATOM      8  C   UNL     1       4.088   3.523  17.221  0.00  0.00    +0.000 A 
ATOM      9  C   UNL     1       4.829   3.893  16.086  0.00  0.00    +0.000 A 
ATOM     10  C   UNL     1       5.880   4.805  16.234  0.00  0.00    +0.000 A 
ATOM     11  C   UNL     1       6.827   5.416  15.385  0.00  0.00    +0.000 A 
ATOM     12  N   UNL     1       7.657   6.233  16.039  0.00  0.00    +0.000 NA
ATOM     13  N   UNL     1       7.236   6.146  17.318  0.00  0.00    +0.000 N 
ATOM     14  C   UNL     1       7.916   6.898  18.346  0.00  0.00    +0.000 C 
ATOM     15  C   UNL     1       6.156   5.317  17.496  0.00  0.00    +0.000 A 
ATOM     16  C   UNL     1       5.395   4.980  18.629  0.00  0.00    +0.000 A 
ENDBRANCH   6   7
BRANCH   1  18
ATOM     17  C   UNL     1       1.714   6.967  20.496  0.00  0.00    +0.000 C 
ATOM     18  C   UNL     1       2.238   5.982  19.754  0.00  0.00    +0.000 C 
BRANCH  17  21
ATOM     19  C   UNL     1       1.956   9.586  17.833  0.00  0.00    +0.000 C 
ATOM     20  N   UNL     1       2.060   8.371  18.597  0.00  0.00    +0.000 N 
ATOM     21  C   UNL     1       1.602   8.317  19.887  0.00  0.00    +0.000 C 
ATOM     22  O   UNL     1       1.120   9.274  20.482  0.00  0.00    +0.000 OA
ATOM     23  H   UNL     1       2.415   7.540  18.142  0.00  0.00    +0.000 HD
ENDBRANCH  17  21
ENDBRANCH   1  18
TORSDOF 3
ENDMDL
MODEL 5
REMARK VINA RESULT:      -7.4      2.480      6.035
REMARK  Name = 
REMARK  5 active torsions:
REMARK  status: ('A' for Active; 'I' for Inactive)
REMARK    1  A    between atoms: C_1  and  N_2
REMARK    2  A    between atoms: C_3  and  C_5
REMARK    3  A    between atoms: C_6  and  C_7
REMARK    4  A    between atoms: C_12  and  C_13
REMARK    5  A    between atoms: N_19  and  C_20
REMARK                            x       y       z     vdW  Elec       q    Type
REMARK                         _______ _______ _______ _____ _____    ______ ____
ROOT
ATOM      1  C   UNL     1       3.922   5.130  18.135  0.00  0.00    +0.000 A 
ATOM      2  C   UNL     1       4.127   3.781  17.808  0.00  0.00    +0.000 A 
ATOM      3  C   UNL     1       3.032   2.988  17.527  0.00  0.00    +0.000 A 
ATOM      4  N   UNL     1       1.765   3.437  17.558  0.00  0.00    +0.000 NA
ATOM      5  C   UNL     1       1.593   4.744  17.883  0.00  0.00    +0.000 A 
ATOM      6  C   UNL     1       2.612   5.664  18.169  0.00  0.00    +0.000 A 
ENDROOT
BRANCH   6   7
ATOM      7  C   UNL     1       2.275   7.090  18.448  0.00  0.00    +0.000 A 
ATOM      8  C   UNL     1       2.349   8.090  17.460  0.00  0.00    +0.000 A 
ATOM      9  C   UNL     1       1.943   9.416  17.686  0.00  0.00    +0.000 A 
ATOM     10  C   UNL     1       1.503   9.778  18.964  0.00  0.00    +0.000 A 
ATOM     11  C   UNL     1       1.026  10.953  19.583  0.00  0.00    +0.000 A 
ATOM     12  N   UNL     1       0.740  10.776  20.876  0.00  0.00    +0.000 NA
ATOM     13  N   UNL     1       1.035   9.477  21.086  0.00  0.00    +0.000 N 
ATOM     14  C   UNL     1       0.861   8.909  22.401  0.00  0.00    +0.000 C 
ATOM     15  C   UNL     1       1.480   8.816  19.966  0.00  0.00    +0.000 A 
ATOM     16  C   UNL     1       1.849   7.479  19.738  0.00  0.00    +0.000 A 
ENDBRANCH   6   7
BRANCH   1  18
ATOM     17  C   UNL     1       6.274   5.815  17.762  0.00  0.00    +0.000 C 
ATOM     18  C   UNL     1       5.127   5.908  18.450  0.00  0.00    +0.000 C 
BRANCH  17  21
ATOM     19  C   UNL     1       8.197   9.026  17.718  0.00  0.00    +0.000 C 
ATOM     20  N   UNL     1       7.261   7.965  17.451  0.00  0.00    +0.000 N 
ATOM     21  C   UNL     1       7.368   6.762  18.097  0.00  0.00    +0.000 C 
ATOM     22  O   UNL     1       8.258   6.491  18.895  0.00  0.00    +0.000 OA
ATOM     23  H   UNL     1       6.484   8.149  16.829  0.00  0.00    +0.000 HD
ENDBRANCH  17  21
ENDBRANCH   1  18
TORSDOF 3
ENDMDL
MODEL 6
REMARK VINA RESULT:      -7.3      1.089      1.869
REMARK  Name = 
REMARK  5 active torsions:
REMARK  status: ('A' for Active; 'I' for Inactive)
REMARK    1  A    between atoms: C_1  and  N_2
REMARK    2  A    between atoms: C_3  and  C_5
REMARK    3  A    between atoms: C_6  and  C_7
REMARK    4  A    between atoms: C_12  and  C_13
REMARK    5  A    between atoms: N_19  and  C_20
REMARK                            x       y       z     vdW  Elec       q    Type
REMARK                         _______ _______ _______ _____ _____    ______ ____
ROOT
ATOM      1  C   UNL     1       2.266   5.052  19.802  0.00  0.00    +0.000 A 
ATOM      2  C   UNL     1       1.202   4.530  20.554  0.00  0.00    +0.000 A 
ATOM      3  C   UNL     1       1.159   3.171  20.796  0.00  0.00    +0.000 A 
ATOM      4  N   UNL     1       2.084   2.308  20.340  0.00  0.00    +0.000 NA
ATOM      5  C   UNL     1       3.099   2.837  19.611  0.00  0.00    +0.000 A 
ATOM      6  C   UNL     1       3.278   4.195  19.309  0.00  0.00    +0.000 A 
ENDROOT
BRANCH   6   7
ATOM      7  C   UNL     1       4.482   4.640  18.548  0.00  0.00    +0.000 A 
ATOM      8  C   UNL     1       5.570   5.284  19.168  0.00  0.00    +0.000 A 
ATOM      9  C   UNL     1       6.747   5.621  18.480  0.00  0.00    +0.000 A 
ATOM     10  C   UNL     1       6.823   5.362  17.106  0.00  0.00    +0.000 A 
ATOM     11  C   UNL     1       7.785   5.537  16.088  0.00  0.00    +0.000 A 
ATOM     12  N   UNL     1       7.352   5.126  14.893  0.00  0.00    +0.000 NA
ATOM     13  N   UNL     1       6.104   4.683  15.149  0.00  0.00    +0.000 N 
ATOM     14  C   UNL     1       5.297   4.162  14.072  0.00  0.00    +0.000 C 
ATOM     15  C   UNL     1       5.735   4.780  16.469  0.00  0.00    +0.000 A 
ATOM     16  C   UNL     1       4.569   4.406  17.157  0.00  0.00    +0.000 A 
ENDBRANCH   6   7
BRANCH   1  18
ATOM     17  C   UNL     1       2.111   7.048  18.342  0.00  0.00    +0.000 C 
ATOM     18  C   UNL     1       2.234   6.500  19.559  0.00  0.00    +0.000 C 
BRANCH  17  21
ATOM     19  C   UNL     1       1.096  10.483  19.426  0.00  0.00    +0.000 C 
ATOM     20  N   UNL     1       1.276   9.059  19.318  0.00  0.00    +0.000 N 
ATOM     21  C   UNL     1       1.949   8.521  18.252  0.00  0.00    +0.000 C 
ATOM     22  O   UNL     1       2.401   9.182  17.324  0.00  0.00    +0.000 OA
ATOM     23  H   UNL     1       0.956   8.470  20.075  0.00  0.00    +0.000 HD
ENDBRANCH  17  21
ENDBRANCH   1  18
TORSDOF 3
ENDMDL
MODEL 7
REMARK VINA RESULT:      -7.2      2.431      6.094
REMARK  Name = 
REMARK  5 active torsions:
REMARK  status: ('A' for Active; 'I' for Inactive)
REMARK    1  A    between atoms: C_1  and  N_2
REMARK    2  A    between atoms: C_3  and  C_5
REMARK    3  A    between atoms: C_6  and  C_7
REMARK    4  A    between atoms: C_12  and  C_13
REMARK    5  A    between atoms: N_19  and  C_20
REMARK                            x       y       z     vdW  Elec       q    Type
REMARK                         _______ _______ _______ _____ _____    ______ ____
ROOT
ATOM      1  C   UNL     1       6.177   6.081  16.816  0.00  0.00    +0.000 A 
ATOM      2  C   UNL     1       7.033   5.521  15.856  0.00  0.00    +0.000 A 
ATOM      3  C   UNL     1       6.697   4.308  15.288  0.00  0.00    +0.000 A 
ATOM      4  N   UNL     1       5.588   3.620  15.612  0.00  0.00    +0.000 NA
ATOM      5  C   UNL     1       4.779   4.180  16.548  0.00  0.00    +0.000 A 
ATOM      6  C   UNL     1       4.986   5.412  17.187  0.00  0.00    +0.000 A 
ENDROOT
BRANCH   6   7
ATOM      7  C   UNL     1       3.975   5.933  18.152  0.00  0.00    +0.000 A 
ATOM      8  C   UNL     1       3.614   5.232  19.318  0.00  0.00    +0.000 A 
ATOM      9  C   UNL     1       2.734   5.756  20.280  0.00  0.00    +0.000 A 
ATOM     10  C   UNL     1       2.143   7.002  20.045  0.00  0.00    +0.000 A 
ATOM     11  C   UNL     1       1.244   7.850  20.729  0.00  0.00    +0.000 A 
ATOM     12  N   UNL     1       0.970   8.966  20.049  0.00  0.00    +0.000 NA
ATOM     13  N   UNL     1       1.699   8.834  18.923  0.00  0.00    +0.000 N 
ATOM     14  C   UNL     1       1.649   9.866  17.915  0.00  0.00    +0.000 C 
ATOM     15  C   UNL     1       2.444   7.681  18.870  0.00  0.00    +0.000 A 
ATOM     16  C   UNL     1       3.351   7.180  17.921  0.00  0.00    +0.000 A 
ENDBRANCH   6   7
BRANCH   1  18
ATOM     17  C   UNL     1       7.893   7.693  17.588  0.00  0.00    +0.000 C 
ATOM     18  C   UNL     1       6.609   7.358  17.399  0.00  0.00    +0.000 C 
BRANCH  17  21
ATOM     19  C   UNL     1       9.464  10.365  19.686  0.00  0.00    +0.000 C 
ATOM     20  N   UNL     1       9.012   9.108  19.150  0.00  0.00    +0.000 N 
ATOM     21  C   UNL     1       8.193   9.071  18.053  0.00  0.00    +0.000 C 
ATOM     22  O   UNL     1       7.766  10.070  17.485  0.00  0.00    +0.000 OA
ATOM     23  H   UNL     1       9.366   8.252  19.557  0.00  0.00    +0.000 HD
ENDBRANCH  17  21
ENDBRANCH   1  18
TORSDOF 3
ENDMDL
MODEL 8
REMARK VINA RESULT:      -7.2      2.470      6.211
REMARK  Name = 
REMARK  5 active torsions:
REMARK  status: ('A' for Active; 'I' for Inactive)
REMARK    1  A    between atoms: C_1  and  N_2
REMARK    2  A    between atoms: C_3  and  C_5
REMARK    3  A    between atoms: C_6  and  C_7
REMARK    4  A    between atoms: C_12  and  C_13
REMARK    5  A    between atoms: N_19  and  C_20
REMARK                            x       y       z     vdW  Elec       q    Type
REMARK                         _______ _______ _______ _____ _____    ______ ____
ROOT
ATOM      1  C   UNL     1       6.627   5.385  15.940  0.00  0.00    +0.000 A 
ATOM      2  C   UNL     1       7.330   5.046  14.775  0.00  0.00    +0.000 A 
ATOM      3  C   UNL     1       6.674   4.354  13.776  0.00  0.00    +0.000 A 
ATOM      4  N   UNL     1       5.387   3.974  13.862  0.00  0.00    +0.000 NA
ATOM      5  C   UNL     1       4.730   4.308  15.002  0.00  0.00    +0.000 A 
ATOM      6  C   UNL     1       5.266   5.026  16.082  0.00  0.00    +0.000 A 
ENDROOT
BRANCH   6   7
ATOM      7  C   UNL     1       4.403   5.378  17.247  0.00  0.00    +0.000 A 
ATOM      8  C   UNL     1       3.848   6.661  17.414  0.00  0.00    +0.000 A 
ATOM      9  C   UNL     1       2.959   6.976  18.455  0.00  0.00    +0.000 A 
ATOM     10  C   UNL     1       2.655   5.993  19.403  0.00  0.00    +0.000 A 
ATOM     11  C   UNL     1       1.841   5.903  20.553  0.00  0.00    +0.000 A 
ATOM     12  N   UNL     1       1.910   4.706  21.141  0.00  0.00    +0.000 NA
ATOM     13  N   UNL     1       2.772   4.023  20.361  0.00  0.00    +0.000 N 
ATOM     14  C   UNL     1       3.113   2.661  20.695  0.00  0.00    +0.000 C 
ATOM     15  C   UNL     1       3.240   4.739  19.285  0.00  0.00    +0.000 A 
ATOM     16  C   UNL     1       4.101   4.405  18.226  0.00  0.00    +0.000 A 
ENDBRANCH   6   7
BRANCH   1  18
ATOM     17  C   UNL     1       7.559   7.425  16.994  0.00  0.00    +0.000 C 
ATOM     18  C   UNL     1       7.394   6.095  16.972  0.00  0.00    +0.000 C 
BRANCH  17  21
ATOM     19  C   UNL     1       9.009  10.129  19.137  0.00  0.00    +0.000 C 
ATOM     20  N   UNL     1       8.434   9.376  18.053  0.00  0.00    +0.000 N 
ATOM     21  C   UNL     1       8.235   8.026  18.172  0.00  0.00    +0.000 C 
ATOM     22  O   UNL     1       8.553   7.371  19.158  0.00  0.00    +0.000 OA
ATOM     23  H   UNL     1       8.118   9.873  17.231  0.00  0.00    +0.000 HD
ENDBRANCH  17  21
ENDBRANCH   1  18
TORSDOF 3
ENDMDL
MODEL 9
REMARK VINA RESULT:      -7.2      1.984      2.288
REMARK  Name = 
REMARK  5 active torsions:
REMARK  status: ('A' for Active; 'I' for Inactive)
REMARK    1  A    between atoms: C_1  and  N_2
REMARK    2  A    between atoms: C_3  and  C_5
REMARK    3  A    between atoms: C_6  and  C_7
REMARK    4  A    between atoms: C_12  and  C_13
REMARK    5  A    between atoms: N_19  and  C_20
REMARK                            x       y       z     vdW  Elec       q    Type
REMARK                         _______ _______ _______ _____ _____    ______ ____
ROOT
ATOM      1  C   UNL     1       2.045   4.466  19.891  0.00  0.00    +0.000 A 
ATOM      2  C   UNL     1       1.093   3.550  20.362  0.00  0.00    +0.000 A 
ATOM      3  C   UNL     1       1.120   2.254  19.885  0.00  0.00    +0.000 A 
ATOM      4  N   UNL     1       2.011   1.817  18.979  0.00  0.00    +0.000 NA
ATOM      5  C   UNL     1       2.918   2.723  18.534  0.00  0.00    +0.000 A 
ATOM      6  C   UNL     1       3.020   4.060  18.948  0.00  0.00    +0.000 A 
ENDROOT
BRANCH   6   7
ATOM      7  C   UNL     1       4.112   4.926  18.418  0.00  0.00    +0.000 A 
ATOM      8  C   UNL     1       3.960   5.706  17.256  0.00  0.00    +0.000 A 
ATOM      9  C   UNL     1       4.948   6.596  16.801  0.00  0.00    +0.000 A 
ATOM     10  C   UNL     1       6.160   6.670  17.497  0.00  0.00    +0.000 A 
ATOM     11  C   UNL     1       7.359   7.406  17.378  0.00  0.00    +0.000 A 
ATOM     12  N   UNL     1       8.253   7.089  18.319  0.00  0.00    +0.000 NA
ATOM     13  N   UNL     1       7.621   6.146  19.046  0.00  0.00    +0.000 N 
ATOM     14  C   UNL     1       8.294   5.540  20.170  0.00  0.00    +0.000 C 
ATOM     15  C   UNL     1       6.348   5.865  18.612  0.00  0.00    +0.000 A 
ATOM     16  C   UNL     1       5.351   4.999  19.094  0.00  0.00    +0.000 A 
ENDBRANCH   6   7
BRANCH   1  18
ATOM     17  C   UNL     1       1.792   6.918  19.646  0.00  0.00    +0.000 C 
ATOM     18  C   UNL     1       1.941   5.833  20.418  0.00  0.00    +0.000 C 
BRANCH  17  21
ATOM     19  C   UNL     1       1.417   9.326  22.487  0.00  0.00    +0.000 C 
ATOM     20  N   UNL     1       1.557   8.141  21.682  0.00  0.00    +0.000 N 
ATOM     21  C   UNL     1       1.556   8.223  20.314  0.00  0.00    +0.000 C 
ATOM     22  O   UNL     1       1.403   9.268  19.692  0.00  0.00    +0.000 OA
ATOM     23  H   UNL     1       1.725   7.257  22.144  0.00  0.00    +0.000 HD
ENDBRANCH  17  21
ENDBRANCH   1  18
TORSDOF 3
ENDMDL
