MODEL 1
REMARK VINA RESULT:      -6.9      0.000      0.000
REMARK  Name = 
REMARK  7 active torsions:
REMARK  status: ('A' for Active; 'I' for Inactive)
REMARK    1  A    between atoms: C_1  and  C_2
REMARK    2  A    between atoms: C_8  and  N_9
REMARK    3  A    between atoms: C_10  and  C_11
REMARK    4  A    between atoms: C_11  and  C_12
REMARK    5  A    between atoms: C_11  and  N_13
REMARK    6  A    between atoms: N_13  and  C_14
REMARK    7  A    between atoms: C_21  and  C_22
REMARK                            x       y       z     vdW  Elec       q    Type
REMARK                         _______ _______ _______ _____ _____    ______ ____
ROOT
ATOM      1  N   UNL     1       0.530  11.626  19.439  0.00  0.00    +0.000 N 
ATOM      2  C   UNL     1      -0.470  12.123  18.609  0.00  0.00    +0.000 A 
ATOM      3  N   UNL     1      -0.299  13.348  18.187  0.00  0.00    +0.000 NA
ATOM      4  C   UNL     1      -0.403  14.214  19.303  0.00  0.00    +0.000 A 
ATOM      5  C   UNL     1      -1.174  15.367  19.176  0.00  0.00    +0.000 A 
ATOM      6  C   UNL     1      -1.776  15.906  20.308  0.00  0.00    +0.000 A 
ATOM      7  C   UNL     1      -1.572  15.307  21.555  0.00  0.00    +0.000 A 
ATOM      8  C   UNL     1      -0.685  14.229  21.702  0.00  0.00    +0.000 A 
ATOM      9 CL   UNL     1      -0.612  13.464  23.246  0.00  0.00    +0.000 Cl
ATOM     10  C   UNL     1      -0.053  13.711  20.574  0.00  0.00    +0.000 A 
ATOM     11  C   UNL     1       0.762  12.446  20.555  0.00  0.00    +0.000 A 
ATOM     12  O   UNL     1       1.558  12.217  21.458  0.00  0.00    +0.000 OA
ENDROOT
BRANCH   1  20
ATOM     13  C   UNL     1       0.172   9.297  21.482  0.00  0.00    +0.000 C 
ATOM     14  C   UNL     1       0.993   9.257  20.224  0.00  0.00    +0.000 A 
ATOM     15  C   UNL     1       1.555   8.003  19.893  0.00  0.00    +0.000 A 
ATOM     16  F   UNL     1       1.362   6.936  20.684  0.00  0.00    +0.000 F 
ATOM     17  C   UNL     1       2.293   7.846  18.737  0.00  0.00    +0.000 A 
ATOM     18  N   UNL     1       2.497   8.848  17.864  0.00  0.00    +0.000 NA
ATOM     19  C   UNL     1       1.891  10.033  18.151  0.00  0.00    +0.000 A 
ATOM     20  C   UNL     1       1.129  10.320  19.298  0.00  0.00    +0.000 A 
ENDBRANCH   1  20
BRANCH   2  21
ATOM     21  C   UNL     1      -1.914  11.639  19.094  0.00  0.00    +0.000 C 
ATOM     22  C   UNL     1      -2.359  10.445  18.278  0.00  0.00    +0.000 C 
BRANCH  21  23
ATOM     23  N   UNL     1      -2.938  12.733  19.091  0.00  0.00    +0.000 N 
ATOM     24  H   UNL     1      -3.185  13.035  18.152  0.00  0.00    +0.000 HD
BRANCH  23  25
ATOM     25  C   UNL     1      -4.037  12.590  19.963  0.00  0.00    +0.000 A 
ATOM     26  N   UNL     1      -3.783  12.705  21.279  0.00  0.00    +0.000 NA
ATOM     27  C   UNL     1      -4.785  12.562  22.147  0.00  0.00    +0.000 A 
ATOM     28  N   UNL     1      -4.475  12.639  23.486  0.00  0.00    +0.000 N 
ATOM     29  N   UNL     1      -6.038  12.275  21.813  0.00  0.00    +0.000 NA
ATOM     30  C   UNL     1      -6.317  12.204  20.505  0.00  0.00    +0.000 A 
ATOM     31  N   UNL     1      -7.628  11.805  20.240  0.00  0.00    +0.000 N 
ATOM     32  C   UNL     1      -5.348  12.401  19.524  0.00  0.00    +0.000 A 
ATOM     33  H   UNL     1      -3.490  12.463  23.626  0.00  0.00    +0.000 HD
ATOM     34  H   UNL     1      -5.118  12.076  24.025  0.00  0.00    +0.000 HD
ATOM     35  H   UNL     1      -8.135  11.765  21.124  0.00  0.00    +0.000 HD
ATOM     36  H   UNL     1      -8.124  12.345  19.542  0.00  0.00    +0.000 HD
BRANCH  32  37
ATOM     37  C   UNL     1      -5.703  12.379  18.140  0.00  0.00    +0.000 C 
ATOM     38  N   UNL     1      -5.969  12.375  17.013  0.00  0.00    +0.000 NA
ENDBRANCH  32  37
ENDBRANCH  23  25
ENDBRANCH  21  23
ENDBRANCH   2  21
TORSDOF 5
ENDMDL
MODEL 2
REMARK VINA RESULT:      -6.9      1.653      2.175
REMARK  Name = 
REMARK  7 active torsions:
REMARK  status: ('A' for Active; 'I' for Inactive)
REMARK    1  A    between atoms: C_1  and  C_2
REMARK    2  A    between atoms: C_8  and  N_9
REMARK    3  A    between atoms: C_10  and  C_11
REMARK    4  A    between atoms: C_11  and  C_12
REMARK    5  A    between atoms: C_11  and  N_13
REMARK    6  A    between atoms: N_13  and  C_14
REMARK    7  A    between atoms: C_21  and  C_22
REMARK                            x       y       z     vdW  Elec       q    Type
REMARK                         _______ _______ _______ _____ _____    ______ ____
ROOT
ATOM      1  N   UNL     1       0.873  10.259  20.017  0.00  0.00    +0.000 N 
ATOM      2  C   UNL     1       0.343  11.048  19.001  0.00  0.00    +0.000 A 
ATOM      3  N   UNL     1       0.785  12.277  18.950  0.00  0.00    +0.000 NA
ATOM      4  C   UNL     1       0.323  12.956  20.105  0.00  0.00    +0.000 A 
ATOM      5  C   UNL     1      -0.218  14.231  19.951  0.00  0.00    +0.000 A 
ATOM      6  C   UNL     1      -1.170  14.675  20.862  0.00  0.00    +0.000 A 
ATOM      7  C   UNL     1      -1.542  13.856  21.933  0.00  0.00    +0.000 A 
ATOM      8  C   UNL     1      -0.895  12.632  22.165  0.00  0.00    +0.000 A 
ATOM      9 CL   UNL     1      -1.522  11.626  23.418  0.00  0.00    +0.000 Cl
ATOM     10  C   UNL     1       0.084  12.201  21.273  0.00  0.00    +0.000 A 
ATOM     11  C   UNL     1       0.714  10.835  21.287  0.00  0.00    +0.000 A 
ATOM     12  O   UNL     1       1.055  10.330  22.350  0.00  0.00    +0.000 OA
ENDROOT
BRANCH   1  20
ATOM     13  C   UNL     1       2.366   9.256  17.469  0.00  0.00    +0.000 C 
ATOM     14  C   UNL     1       2.015   8.432  18.675  0.00  0.00    +0.000 A 
ATOM     15  C   UNL     1       2.516   7.110  18.688  0.00  0.00    +0.000 A 
ATOM     16  F   UNL     1       3.245   6.645  17.661  0.00  0.00    +0.000 F 
ATOM     17  C   UNL     1       2.287   6.280  19.766  0.00  0.00    +0.000 A 
ATOM     18  N   UNL     1       1.608   6.678  20.857  0.00  0.00    +0.000 NA
ATOM     19  C   UNL     1       1.191   7.974  20.871  0.00  0.00    +0.000 A 
ATOM     20  C   UNL     1       1.352   8.909  19.832  0.00  0.00    +0.000 A 
ENDBRANCH   1  20
BRANCH   2  21
ATOM     21  C   UNL     1      -1.213  10.749  18.792  0.00  0.00    +0.000 C 
ATOM     22  C   UNL     1      -1.395   9.670  17.748  0.00  0.00    +0.000 C 
BRANCH  21  23
ATOM     23  N   UNL     1      -2.016  11.974  18.479  0.00  0.00    +0.000 N 
ATOM     24  H   UNL     1      -1.839  12.329  17.542  0.00  0.00    +0.000 HD
BRANCH  23  25
ATOM     25  C   UNL     1      -3.376  11.966  18.849  0.00  0.00    +0.000 A 
ATOM     26  N   UNL     1      -3.660  12.323  20.115  0.00  0.00    +0.000 NA
ATOM     27  C   UNL     1      -4.930  12.316  20.520  0.00  0.00    +0.000 A 
ATOM     28  N   UNL     1      -5.173  12.640  21.836  0.00  0.00    +0.000 N 
ATOM     29  N   UNL     1      -5.961  11.946  19.769  0.00  0.00    +0.000 NA
ATOM     30  C   UNL     1      -5.701  11.634  18.493  0.00  0.00    +0.000 A 
ATOM     31  N   UNL     1      -6.818  11.164  17.799  0.00  0.00    +0.000 N 
ATOM     32  C   UNL     1      -4.413  11.672  17.963  0.00  0.00    +0.000 A 
ATOM     33  H   UNL     1      -4.335  12.514  22.386  0.00  0.00    +0.000 HD
ATOM     34  H   UNL     1      -6.006  12.169  22.162  0.00  0.00    +0.000 HD
ATOM     35  H   UNL     1      -7.635  11.273  18.400  0.00  0.00    +0.000 HD
ATOM     36  H   UNL     1      -6.968  11.559  16.879  0.00  0.00    +0.000 HD
BRANCH  32  37
ATOM     37  C   UNL     1      -4.190  11.393  16.579  0.00  0.00    +0.000 C 
ATOM     38  N   UNL     1      -3.997  11.146  15.464  0.00  0.00    +0.000 NA
ENDBRANCH  32  37
ENDBRANCH  23  25
ENDBRANCH  21  23
ENDBRANCH   2  21
TORSDOF 5
ENDMDL
MODEL 3
REMARK VINA RESULT:      -6.6      1.283      1.471
REMARK  Name = 
REMARK  7 active torsions:
REMARK  status: ('A' for Active; 'I' for Inactive)
REMARK    1  A    between atoms: C_1  and  C_2
REMARK    2  A    between atoms: C_8  and  N_9
REMARK    3  A    between atoms: C_10  and  C_11
REMARK    4  A    between atoms: C_11  and  C_12
REMARK    5  A    between atoms: C_11  and  N_13
REMARK    6  A    between atoms: N_13  and  C_14
REMARK    7  A    between atoms: C_21  and  C_22
REMARK                            x       y       z     vdW  Elec       q    Type
REMARK                         _______ _______ _______ _____ _____    ______ ____
ROOT
ATOM      1  N   UNL     1       0.965  10.755  19.583  0.00  0.00    +0.000 N 
ATOM      2  C   UNL     1       0.248  11.495  18.647  0.00  0.00    +0.000 A 
ATOM      3  N   UNL     1       0.555  12.763  18.573  0.00  0.00    +0.000 NA
ATOM      4  C   UNL     1       0.158  13.381  19.785  0.00  0.00    +0.000 A 
ATOM      5  C   UNL     1      -0.523  14.595  19.716  0.00  0.00    +0.000 A 
ATOM      6  C   UNL     1      -1.408  14.930  20.736  0.00  0.00    +0.000 A 
ATOM      7  C   UNL     1      -1.573  14.068  21.825  0.00  0.00    +0.000 A 
ATOM      8  C   UNL     1      -0.785  12.915  21.959  0.00  0.00    +0.000 A 
ATOM      9 CL   UNL     1      -1.163  11.839  23.253  0.00  0.00    +0.000 Cl
ATOM     10  C   UNL     1       0.128  12.595  20.957  0.00  0.00    +0.000 A 
ATOM     11  C   UNL     1       0.891  11.301  20.874  0.00  0.00    +0.000 A 
ATOM     12  O   UNL     1       1.397  10.824  21.882  0.00  0.00    +0.000 OA
ENDROOT
BRANCH   1  20
ATOM     13  C   UNL     1       0.574   8.242  21.388  0.00  0.00    +0.000 C 
ATOM     14  C   UNL     1       1.402   8.317  20.137  0.00  0.00    +0.000 A 
ATOM     15  C   UNL     1       1.956   7.097  19.688  0.00  0.00    +0.000 A 
ATOM     16  F   UNL     1       1.749   5.959  20.371  0.00  0.00    +0.000 F 
ATOM     17  C   UNL     1       2.701   7.045  18.527  0.00  0.00    +0.000 A 
ATOM     18  N   UNL     1       2.919   8.126  17.757  0.00  0.00    +0.000 NA
ATOM     19  C   UNL     1       2.321   9.283  18.153  0.00  0.00    +0.000 A 
ATOM     20  C   UNL     1       1.554   9.464  19.319  0.00  0.00    +0.000 A 
ENDBRANCH   1  20
BRANCH   2  21
ATOM     21  C   UNL     1      -1.283  11.039  18.604  0.00  0.00    +0.000 C 
ATOM     22  C   UNL     1      -1.440   9.846  17.688  0.00  0.00    +0.000 C 
BRANCH  21  23
ATOM     23  N   UNL     1      -2.223  12.149  18.246  0.00  0.00    +0.000 N 
ATOM     24  H   UNL     1      -2.150  12.424  17.269  0.00  0.00    +0.000 HD
BRANCH  23  25
ATOM     25  C   UNL     1      -3.546  12.056  18.725  0.00  0.00    +0.000 A 
ATOM     26  N   UNL     1      -3.772  12.515  19.969  0.00  0.00    +0.000 NA
ATOM     27  C   UNL     1      -5.003  12.434  20.475  0.00  0.00    +0.000 A 
ATOM     28  N   UNL     1      -5.182  12.871  21.768  0.00  0.00    +0.000 N 
ATOM     29  N   UNL     1      -6.043  11.893  19.850  0.00  0.00    +0.000 NA
ATOM     30  C   UNL     1      -5.845  11.474  18.594  0.00  0.00    +0.000 A 
ATOM     31  N   UNL     1      -6.956  10.833  18.043  0.00  0.00    +0.000 N 
ATOM     32  C   UNL     1      -4.609  11.575  17.959  0.00  0.00    +0.000 A 
ATOM     33  H   UNL     1      -4.298  12.881  22.258  0.00  0.00    +0.000 HD
ATOM     34  H   UNL     1      -5.938  12.362  22.205  0.00  0.00    +0.000 HD
ATOM     35  H   UNL     1      -7.735  10.929  18.694  0.00  0.00    +0.000 HD
ATOM     36  H   UNL     1      -7.210  11.113  17.103  0.00  0.00    +0.000 HD
BRANCH  32  37
ATOM     37  C   UNL     1      -4.459  11.174  16.596  0.00  0.00    +0.000 C 
ATOM     38  N   UNL     1      -4.320  10.832  15.498  0.00  0.00    +0.000 NA
ENDBRANCH  32  37
ENDBRANCH  23  25
ENDBRANCH  21  23
ENDBRANCH   2  21
TORSDOF 5
ENDMDL
MODEL 4
REMARK VINA RESULT:      -6.5      3.176      5.745
REMARK  Name = 
REMARK  7 active torsions:
REMARK  status: ('A' for Active; 'I' for Inactive)
REMARK    1  A    between atoms: C_1  and  C_2
REMARK    2  A    between atoms: C_8  and  N_9
REMARK    3  A    between atoms: C_10  and  C_11
REMARK    4  A    between atoms: C_11  and  C_12
REMARK    5  A    between atoms: C_11  and  N_13
REMARK    6  A    between atoms: N_13  and  C_14
REMARK    7  A    between atoms: C_21  and  C_22
REMARK                            x       y       z     vdW  Elec       q    Type
REMARK                         _______ _______ _______ _____ _____    ______ ____
ROOT
ATOM      1  N   UNL     1       0.655  14.161  21.331  0.00  0.00    +0.000 N 
ATOM      2  C   UNL     1      -0.550  13.604  21.747  0.00  0.00    +0.000 A 
ATOM      3  N   UNL     1      -0.453  12.589  22.564  0.00  0.00    +0.000 NA
ATOM      4  C   UNL     1       0.125  11.509  21.853  0.00  0.00    +0.000 A 
ATOM      5  C   UNL     1      -0.449  10.247  21.986  0.00  0.00    +0.000 A 
ATOM      6  C   UNL     1      -0.332   9.338  20.940  0.00  0.00    +0.000 A 
ATOM      7  C   UNL     1       0.385   9.689  19.791  0.00  0.00    +0.000 A 
ATOM      8  C   UNL     1       1.078  10.907  19.717  0.00  0.00    +0.000 A 
ATOM      9 CL   UNL     1       1.807  11.316  18.208  0.00  0.00    +0.000 Cl
ATOM     10  C   UNL     1       0.992  11.804  20.779  0.00  0.00    +0.000 A 
ATOM     11  C   UNL     1       1.516  13.214  20.754  0.00  0.00    +0.000 A 
ATOM     12  O   UNL     1       2.618  13.448  20.272  0.00  0.00    +0.000 OA
ENDROOT
BRANCH   1  20
ATOM     13  C   UNL     1       0.561  15.915  18.754  0.00  0.00    +0.000 C 
ATOM     14  C   UNL     1       0.909  16.387  20.138  0.00  0.00    +0.000 A 
ATOM     15  C   UNL     1       1.096  17.780  20.287  0.00  0.00    +0.000 A 
ATOM     16  F   UNL     1       0.979  18.603  19.233  0.00  0.00    +0.000 F 
ATOM     17  C   UNL     1       1.379  18.324  21.523  0.00  0.00    +0.000 A 
ATOM     18  N   UNL     1       1.468  17.581  22.640  0.00  0.00    +0.000 NA
ATOM     19  C   UNL     1       1.213  16.250  22.504  0.00  0.00    +0.000 A 
ATOM     20  C   UNL     1       0.929  15.578  21.301  0.00  0.00    +0.000 A 
ENDBRANCH   1  20
BRANCH   2  21
ATOM     21  C   UNL     1      -1.611  13.571  20.553  0.00  0.00    +0.000 C 
ATOM     22  C   UNL     1      -2.433  14.841  20.556  0.00  0.00    +0.000 C 
BRANCH  21  23
ATOM     23  N   UNL     1      -2.473  12.345  20.559  0.00  0.00    +0.000 N 
ATOM     24  H   UNL     1      -3.031  12.264  21.405  0.00  0.00    +0.000 HD
BRANCH  23  25
ATOM     25  C   UNL     1      -3.170  12.040  19.372  0.00  0.00    +0.000 A 
ATOM     26  N   UNL     1      -2.423  11.770  18.286  0.00  0.00    +0.000 NA
ATOM     27  C   UNL     1      -3.035  11.491  17.134  0.00  0.00    +0.000 A 
ATOM     28  N   UNL     1      -2.236  11.268  16.035  0.00  0.00    +0.000 N 
ATOM     29  N   UNL     1      -4.351  11.491  16.957  0.00  0.00    +0.000 NA
ATOM     30  C   UNL     1      -5.108  11.712  18.039  0.00  0.00    +0.000 A 
ATOM     31  N   UNL     1      -6.472  11.792  17.753  0.00  0.00    +0.000 N 
ATOM     32  C   UNL     1      -4.560  11.950  19.298  0.00  0.00    +0.000 A 
ATOM     33  H   UNL     1      -1.321  11.670  16.182  0.00  0.00    +0.000 HD
ATOM     34  H   UNL     1      -2.721  11.539  15.191  0.00  0.00    +0.000 HD
ATOM     35  H   UNL     1      -6.608  11.543  16.773  0.00  0.00    +0.000 HD
ATOM     36  H   UNL     1      -7.086  11.269  18.366  0.00  0.00    +0.000 HD
BRANCH  32  37
ATOM     37  C   UNL     1      -5.407  12.118  20.437  0.00  0.00    +0.000 C 
ATOM     38  N   UNL     1      -6.080  12.234  21.372  0.00  0.00    +0.000 NA
ENDBRANCH  32  37
ENDBRANCH  23  25
ENDBRANCH  21  23
ENDBRANCH   2  21
TORSDOF 5
ENDMDL
MODEL 5
REMARK VINA RESULT:      -6.5      2.867      4.901
REMARK  Name = 
REMARK  7 active torsions:
REMARK  status: ('A' for Active; 'I' for Inactive)
REMARK    1  A    between atoms: C_1  and  C_2
REMARK    2  A    between atoms: C_8  and  N_9
REMARK    3  A    between atoms: C_10  and  C_11
REMARK    4  A    between atoms: C_11  and  C_12
REMARK    5  A    between atoms: C_11  and  N_13
REMARK    6  A    between atoms: N_13  and  C_14
REMARK    7  A    between atoms: C_21  and  C_22
REMARK                            x       y       z     vdW  Elec       q    Type
REMARK                         _______ _______ _______ _____ _____    ______ ____
ROOT
ATOM      1  N   UNL     1       0.089  13.518  20.649  0.00  0.00    +0.000 N 
ATOM      2  C   UNL     1      -1.066  13.057  21.274  0.00  0.00    +0.000 A 
ATOM      3  N   UNL     1      -0.886  12.442  22.413  0.00  0.00    +0.000 NA
ATOM      4  C   UNL     1      -0.203  11.229  22.152  0.00  0.00    +0.000 A 
ATOM      5  C   UNL     1      -0.660  10.066  22.769  0.00  0.00    +0.000 A 
ATOM      6  C   UNL     1      -0.449   8.842  22.144  0.00  0.00    +0.000 A 
ATOM      7  C   UNL     1       0.246   8.791  20.931  0.00  0.00    +0.000 A 
ATOM      8  C   UNL     1       0.825   9.946  20.382  0.00  0.00    +0.000 A 
ATOM      9 CL   UNL     1       1.531   9.813  18.814  0.00  0.00    +0.000 Cl
ATOM     10  C   UNL     1       0.646  11.168  21.025  0.00  0.00    +0.000 A 
ATOM     11  C   UNL     1       1.039  12.503  20.454  0.00  0.00    +0.000 A 
ATOM     12  O   UNL     1       2.120  12.633  19.892  0.00  0.00    +0.000 OA
ENDROOT
BRANCH   1  20
ATOM     13  C   UNL     1       1.756  15.822  21.929  0.00  0.00    +0.000 C 
ATOM     14  C   UNL     1       0.969  15.899  20.651  0.00  0.00    +0.000 A 
ATOM     15  C   UNL     1       1.101  17.098  19.915  0.00  0.00    +0.000 A 
ATOM     16  F   UNL     1       1.877  18.096  20.366  0.00  0.00    +0.000 F 
ATOM     17  C   UNL     1       0.453  17.258  18.706  0.00  0.00    +0.000 A 
ATOM     18  N   UNL     1      -0.306  16.293  18.157  0.00  0.00    +0.000 NA
ATOM     19  C   UNL     1      -0.370  15.114  18.834  0.00  0.00    +0.000 A 
ATOM     20  C   UNL     1       0.231  14.835  20.075  0.00  0.00    +0.000 A 
ENDBRANCH   1  20
BRANCH   2  21
ATOM     21  C   UNL     1      -2.105  12.476  20.209  0.00  0.00    +0.000 C 
ATOM     22  C   UNL     1      -1.412  12.249  18.883  0.00  0.00    +0.000 C 
BRANCH  21  23
ATOM     23  N   UNL     1      -3.336  13.318  20.061  0.00  0.00    +0.000 N 
ATOM     24  H   UNL     1      -3.347  13.846  19.191  0.00  0.00    +0.000 HD
BRANCH  23  25
ATOM     25  C   UNL     1      -4.570  12.721  20.393  0.00  0.00    +0.000 A 
ATOM     26  N   UNL     1      -5.011  12.907  21.650  0.00  0.00    +0.000 NA
ATOM     27  C   UNL     1      -6.165  12.350  22.019  0.00  0.00    +0.000 A 
ATOM     28  N   UNL     1      -6.558  12.523  23.328  0.00  0.00    +0.000 N 
ATOM     29  N   UNL     1      -6.916  11.580  21.240  0.00  0.00    +0.000 NA
ATOM     30  C   UNL     1      -6.515  11.424  19.972  0.00  0.00    +0.000 A 
ATOM     31  N   UNL     1      -7.302  10.527  19.248  0.00  0.00    +0.000 N 
ATOM     32  C   UNL     1      -5.356  12.019  19.478  0.00  0.00    +0.000 A 
ATOM     33  H   UNL     1      -5.762  12.764  23.901  0.00  0.00    +0.000 HD
ATOM     34  H   UNL     1      -7.115  11.736  23.630  0.00  0.00    +0.000 HD
ATOM     35  H   UNL     1      -8.102  10.267  19.825  0.00  0.00    +0.000 HD
ATOM     36  H   UNL     1      -7.583  10.829  18.323  0.00  0.00    +0.000 HD
BRANCH  32  37
ATOM     37  C   UNL     1      -4.999  11.878  18.102  0.00  0.00    +0.000 C 
ATOM     38  N   UNL     1      -4.734  11.768  16.980  0.00  0.00    +0.000 NA
ENDBRANCH  32  37
ENDBRANCH  23  25
ENDBRANCH  21  23
ENDBRANCH   2  21
TORSDOF 5
ENDMDL
MODEL 6
REMARK VINA RESULT:      -6.4      2.052      3.651
REMARK  Name = 
REMARK  7 active torsions:
REMARK  status: ('A' for Active; 'I' for Inactive)
REMARK    1  A    between atoms: C_1  and  C_2
REMARK    2  A    between atoms: C_8  and  N_9
REMARK    3  A    between atoms: C_10  and  C_11
REMARK    4  A    between atoms: C_11  and  C_12
REMARK    5  A    between atoms: C_11  and  N_13
REMARK    6  A    between atoms: N_13  and  C_14
REMARK    7  A    between atoms: C_21  and  C_22
REMARK                            x       y       z     vdW  Elec       q    Type
REMARK                         _______ _______ _______ _____ _____    ______ ____
ROOT
ATOM      1  N   UNL     1       1.112   9.931  20.157  0.00  0.00    +0.000 N 
ATOM      2  C   UNL     1       0.749  10.826  19.154  0.00  0.00    +0.000 A 
ATOM      3  N   UNL     1       1.267  12.022  19.248  0.00  0.00    +0.000 NA
ATOM      4  C   UNL     1       0.719  12.647  20.395  0.00  0.00    +0.000 A 
ATOM      5  C   UNL     1       0.276  13.963  20.282  0.00  0.00    +0.000 A 
ATOM      6  C   UNL     1      -0.746  14.406  21.116  0.00  0.00    +0.000 A 
ATOM      7  C   UNL     1      -1.286  13.541  22.073  0.00  0.00    +0.000 A 
ATOM      8  C   UNL     1      -0.745  12.262  22.277  0.00  0.00    +0.000 A 
ATOM      9 CL   UNL     1      -1.570  11.215  23.372  0.00  0.00    +0.000 Cl
ATOM     10  C   UNL     1       0.303  11.829  21.467  0.00  0.00    +0.000 A 
ATOM     11  C   UNL     1       0.844  10.426  21.443  0.00  0.00    +0.000 A 
ATOM     12  O   UNL     1       1.030   9.824  22.494  0.00  0.00    +0.000 OA
ENDROOT
BRANCH   1  20
ATOM     13  C   UNL     1       2.617   8.970  17.600  0.00  0.00    +0.000 C 
ATOM     14  C   UNL     1       2.194   8.111  18.758  0.00  0.00    +0.000 A 
ATOM     15  C   UNL     1       2.628   6.766  18.721  0.00  0.00    +0.000 A 
ATOM     16  F   UNL     1       3.359   6.311  17.691  0.00  0.00    +0.000 F 
ATOM     17  C   UNL     1       2.330   5.901  19.754  0.00  0.00    +0.000 A 
ATOM     18  N   UNL     1       1.644   6.283  20.846  0.00  0.00    +0.000 NA
ATOM     19  C   UNL     1       1.293   7.597  20.911  0.00  0.00    +0.000 A 
ATOM     20  C   UNL     1       1.526   8.569  19.921  0.00  0.00    +0.000 A 
ENDBRANCH   1  20
BRANCH   2  21
ATOM     21  C   UNL     1      -0.787  10.649  18.754  0.00  0.00    +0.000 C 
ATOM     22  C   UNL     1      -1.026   9.250  18.228  0.00  0.00    +0.000 C 
BRANCH  21  23
ATOM     23  N   UNL     1      -1.277  11.697  17.801  0.00  0.00    +0.000 N 
ATOM     24  H   UNL     1      -0.536  12.060  17.205  0.00  0.00    +0.000 HD
BRANCH  23  25
ATOM     25  C   UNL     1      -2.489  11.442  17.129  0.00  0.00    +0.000 A 
ATOM     26  N   UNL     1      -2.398  10.901  15.900  0.00  0.00    +0.000 NA
ATOM     27  C   UNL     1      -3.516  10.656  15.216  0.00  0.00    +0.000 A 
ATOM     28  N   UNL     1      -3.377  10.148  13.944  0.00  0.00    +0.000 N 
ATOM     29  N   UNL     1      -4.741  10.940  15.643  0.00  0.00    +0.000 NA
ATOM     30  C   UNL     1      -4.852  11.435  16.882  0.00  0.00    +0.000 A 
ATOM     31  N   UNL     1      -6.158  11.796  17.219  0.00  0.00    +0.000 N 
ATOM     32  C   UNL     1      -3.745  11.666  17.696  0.00  0.00    +0.000 A 
ATOM     33  H   UNL     1      -2.451  10.342  13.590  0.00  0.00    +0.000 HD
ATOM     34  H   UNL     1      -4.154  10.437  13.367  0.00  0.00    +0.000 HD
ATOM     35  H   UNL     1      -6.777  11.489  16.470  0.00  0.00    +0.000 HD
ATOM     36  H   UNL     1      -6.482  11.492  18.129  0.00  0.00    +0.000 HD
BRANCH  32  37
ATOM     37  C   UNL     1      -3.914  12.136  19.035  0.00  0.00    +0.000 C 
ATOM     38  N   UNL     1      -4.075  12.506  20.120  0.00  0.00    +0.000 NA
ENDBRANCH  32  37
ENDBRANCH  23  25
ENDBRANCH  21  23
ENDBRANCH   2  21
TORSDOF 5
ENDMDL
MODEL 7
REMARK VINA RESULT:      -6.3      1.723      2.147
REMARK  Name = 
REMARK  7 active torsions:
REMARK  status: ('A' for Active; 'I' for Inactive)
REMARK    1  A    between atoms: C_1  and  C_2
REMARK    2  A    between atoms: C_8  and  N_9
REMARK    3  A    between atoms: C_10  and  C_11
REMARK    4  A    between atoms: C_11  and  C_12
REMARK    5  A    between atoms: C_11  and  N_13
REMARK    6  A    between atoms: N_13  and  C_14
REMARK    7  A    between atoms: C_21  and  C_22
REMARK                            x       y       z     vdW  Elec       q    Type
REMARK                         _______ _______ _______ _____ _____    ______ ____
ROOT
ATOM      1  N   UNL     1       0.582  12.300  20.128  0.00  0.00    +0.000 N 
ATOM      2  C   UNL     1      -0.621  12.812  19.651  0.00  0.00    +0.000 A 
ATOM      3  N   UNL     1      -0.529  13.589  18.604  0.00  0.00    +0.000 NA
ATOM      4  C   UNL     1       0.146  14.772  18.995  0.00  0.00    +0.000 A 
ATOM      5  C   UNL     1      -0.375  15.997  18.584  0.00  0.00    +0.000 A 
ATOM      6  C   UNL     1      -0.146  17.124  19.366  0.00  0.00    +0.000 A 
ATOM      7  C   UNL     1       0.627  17.021  20.526  0.00  0.00    +0.000 A 
ATOM      8  C   UNL     1       1.265  15.816  20.863  0.00  0.00    +0.000 A 
ATOM      9 CL   UNL     1       2.072  15.743  22.386  0.00  0.00    +0.000 Cl
ATOM     10  C   UNL     1       1.067  14.695  20.062  0.00  0.00    +0.000 A 
ATOM     11  C   UNL     1       1.523  13.303  20.407  0.00  0.00    +0.000 A 
ATOM     12  O   UNL     1       2.642  13.125  20.874  0.00  0.00    +0.000 OA
ENDROOT
BRANCH   1  20
ATOM     13  C   UNL     1       1.349  10.043  18.116  0.00  0.00    +0.000 C 
ATOM     14  C   UNL     1       1.120   9.878  19.592  0.00  0.00    +0.000 A 
ATOM     15  C   UNL     1       1.393   8.595  20.120  0.00  0.00    +0.000 A 
ATOM     16  F   UNL     1       1.815   7.603  19.321  0.00  0.00    +0.000 F 
ATOM     17  C   UNL     1       1.255   8.345  21.470  0.00  0.00    +0.000 A 
ATOM     18  N   UNL     1       0.883   9.292  22.349  0.00  0.00    +0.000 NA
ATOM     19  C   UNL     1       0.693  10.544  21.847  0.00  0.00    +0.000 A 
ATOM     20  C   UNL     1       0.789  10.919  20.494  0.00  0.00    +0.000 A 
ENDBRANCH   1  20
BRANCH   2  21
ATOM     21  C   UNL     1      -1.597  13.203  20.854  0.00  0.00    +0.000 C 
ATOM     22  C   UNL     1      -1.861  11.990  21.719  0.00  0.00    +0.000 C 
BRANCH  21  23
ATOM     23  N   UNL     1      -2.867  13.855  20.400  0.00  0.00    +0.000 N 
ATOM     24  H   UNL     1      -2.906  13.975  19.390  0.00  0.00    +0.000 HD
BRANCH  23  25
ATOM     25  C   UNL     1      -4.069  13.400  20.978  0.00  0.00    +0.000 A 
ATOM     26  N   UNL     1      -4.387  13.901  22.185  0.00  0.00    +0.000 NA
ATOM     27  C   UNL     1      -5.507  13.489  22.782  0.00  0.00    +0.000 A 
ATOM     28  N   UNL     1      -5.771  13.989  24.037  0.00  0.00    +0.000 N 
ATOM     29  N   UNL     1      -6.337  12.579  22.286  0.00  0.00    +0.000 NA
ATOM     30  C   UNL     1      -6.059  12.105  21.065  0.00  0.00    +0.000 A 
ATOM     31  N   UNL     1      -6.921  11.086  20.657  0.00  0.00    +0.000 N 
ATOM     32  C   UNL     1      -4.946  12.522  20.338  0.00  0.00    +0.000 A 
ATOM     33  H   UNL     1      -4.922  14.336  24.460  0.00  0.00    +0.000 HD
ATOM     34  H   UNL     1      -6.305  13.319  24.573  0.00  0.00    +0.000 HD
ATOM     35  H   UNL     1      -7.665  11.001  21.350  0.00  0.00    +0.000 HD
ATOM     36  H   UNL     1      -7.286  11.162  19.716  0.00  0.00    +0.000 HD
BRANCH  32  37
ATOM     37  C   UNL     1      -4.723  12.039  19.012  0.00  0.00    +0.000 C 
ATOM     38  N   UNL     1      -4.525  11.664  17.934  0.00  0.00    +0.000 NA
ENDBRANCH  32  37
ENDBRANCH  23  25
ENDBRANCH  21  23
ENDBRANCH   2  21
TORSDOF 5
ENDMDL
MODEL 8
REMARK VINA RESULT:      -6.3      3.024      5.396
REMARK  Name = 
REMARK  7 active torsions:
REMARK  status: ('A' for Active; 'I' for Inactive)
REMARK    1  A    between atoms: C_1  and  C_2
REMARK    2  A    between atoms: C_8  and  N_9
REMARK    3  A    between atoms: C_10  and  C_11
REMARK    4  A    between atoms: C_11  and  C_12
REMARK    5  A    between atoms: C_11  and  N_13
REMARK    6  A    between atoms: N_13  and  C_14
REMARK    7  A    between atoms: C_21  and  C_22
REMARK                            x       y       z     vdW  Elec       q    Type
REMARK                         _______ _______ _______ _____ _____    ______ ____
ROOT
ATOM      1  N   UNL     1      -0.269  13.605  20.922  0.00  0.00    +0.000 N 
ATOM      2  C   UNL     1      -1.378  13.088  21.585  0.00  0.00    +0.000 A 
ATOM      3  N   UNL     1      -1.127  12.462  22.705  0.00  0.00    +0.000 NA
ATOM      4  C   UNL     1      -0.409  11.281  22.394  0.00  0.00    +0.000 A 
ATOM      5  C   UNL     1      -0.795  10.091  23.007  0.00  0.00    +0.000 A 
ATOM      6  C   UNL     1      -0.563   8.887  22.351  0.00  0.00    +0.000 A 
ATOM      7  C   UNL     1       0.083   8.884  21.111  0.00  0.00    +0.000 A 
ATOM      8  C   UNL     1       0.594  10.070  20.560  0.00  0.00    +0.000 A 
ATOM      9 CL   UNL     1       1.240   9.991  18.963  0.00  0.00    +0.000 Cl
ATOM     10  C   UNL     1       0.394  11.273  21.233  0.00  0.00    +0.000 A 
ATOM     11  C   UNL     1       0.711  12.632  20.671  0.00  0.00    +0.000 A 
ATOM     12  O   UNL     1       1.762  12.814  20.068  0.00  0.00    +0.000 OA
ENDROOT
BRANCH   1  20
ATOM     13  C   UNL     1       0.297  16.179  22.591  0.00  0.00    +0.000 C 
ATOM     14  C   UNL     1       0.038  16.118  21.113  0.00  0.00    +0.000 A 
ATOM     15  C   UNL     1       0.179  17.335  20.409  0.00  0.00    +0.000 A 
ATOM     16  F   UNL     1       0.512  18.464  21.056  0.00  0.00    +0.000 F 
ATOM     17  C   UNL     1       0.003  17.384  19.041  0.00  0.00    +0.000 A 
ATOM     18  N   UNL     1      -0.285  16.294  18.308  0.00  0.00    +0.000 NA
ATOM     19  C   UNL     1      -0.347  15.111  18.979  0.00  0.00    +0.000 A 
ATOM     20  C   UNL     1      -0.200  14.936  20.368  0.00  0.00    +0.000 A 
ENDBRANCH   1  20
BRANCH   2  21
ATOM     21  C   UNL     1      -2.437  12.485  20.552  0.00  0.00    +0.000 C 
ATOM     22  C   UNL     1      -1.768  12.229  19.219  0.00  0.00    +0.000 C 
BRANCH  21  23
ATOM     23  N   UNL     1      -3.670  13.324  20.409  0.00  0.00    +0.000 N 
ATOM     24  H   UNL     1      -3.742  13.760  19.492  0.00  0.00    +0.000 HD
BRANCH  23  25
ATOM     25  C   UNL     1      -4.879  12.783  20.891  0.00  0.00    +0.000 A 
ATOM     26  N   UNL     1      -5.555  11.975  20.055  0.00  0.00    +0.000 NA
ATOM     27  C   UNL     1      -6.713  11.450  20.458  0.00  0.00    +0.000 A 
ATOM     28  N   UNL     1      -7.397  10.667  19.556  0.00  0.00    +0.000 N 
ATOM     29  N   UNL     1      -7.285  11.692  21.632  0.00  0.00    +0.000 NA
ATOM     30  C   UNL     1      -6.602  12.457  22.493  0.00  0.00    +0.000 A 
ATOM     31  N   UNL     1      -7.310  12.743  23.662  0.00  0.00    +0.000 N 
ATOM     32  C   UNL     1      -5.356  12.999  22.185  0.00  0.00    +0.000 A 
ATOM     33  H   UNL     1      -7.091  10.871  18.615  0.00  0.00    +0.000 HD
ATOM     34  H   UNL     1      -8.391  10.721  19.731  0.00  0.00    +0.000 HD
ATOM     35  H   UNL     1      -8.171  12.197  23.654  0.00  0.00    +0.000 HD
ATOM     36  H   UNL     1      -6.799  12.634  24.529  0.00  0.00    +0.000 HD
BRANCH  32  37
ATOM     37  C   UNL     1      -4.633  13.756  23.158  0.00  0.00    +0.000 C 
ATOM     38  N   UNL     1      -4.048  14.350  23.961  0.00  0.00    +0.000 NA
ENDBRANCH  32  37
ENDBRANCH  23  25
ENDBRANCH  21  23
ENDBRANCH   2  21
TORSDOF 5
ENDMDL
MODEL 9
REMARK VINA RESULT:      -6.2      3.389      6.182
REMARK  Name = 
REMARK  7 active torsions:
REMARK  status: ('A' for Active; 'I' for Inactive)
REMARK    1  A    between atoms: C_1  and  C_2
REMARK    2  A    between atoms: C_8  and  N_9
REMARK    3  A    between atoms: C_10  and  C_11
REMARK    4  A    between atoms: C_11  and  C_12
REMARK    5  A    between atoms: C_11  and  N_13
REMARK    6  A    between atoms: N_13  and  C_14
REMARK    7  A    between atoms: C_21  and  C_22
REMARK                            x       y       z     vdW  Elec       q    Type
REMARK                         _______ _______ _______ _____ _____    ______ ____
ROOT
ATOM      1  N   UNL     1       0.536  10.695  20.032  0.00  0.00    +0.000 N 
ATOM      2  C   UNL     1       1.088  11.886  20.495  0.00  0.00    +0.000 A 
ATOM      3  N   UNL     1       0.712  12.257  21.690  0.00  0.00    +0.000 NA
ATOM      4  C   UNL     1      -0.664  12.588  21.633  0.00  0.00    +0.000 A 
ATOM      5  C   UNL     1      -1.088  13.762  22.253  0.00  0.00    +0.000 A 
ATOM      6  C   UNL     1      -2.213  14.415  21.762  0.00  0.00    +0.000 A 
ATOM      7  C   UNL     1      -2.920  13.870  20.685  0.00  0.00    +0.000 A 
ATOM      8  C   UNL     1      -2.573  12.618  20.153  0.00  0.00    +0.000 A 
ATOM      9 CL   UNL     1      -3.404  12.098  18.735  0.00  0.00    +0.000 Cl
ATOM     10  C   UNL     1      -1.467  11.944  20.667  0.00  0.00    +0.000 A 
ATOM     11  C   UNL     1      -0.868  10.700  20.069  0.00  0.00    +0.000 A 
ATOM     12  O   UNL     1      -1.598   9.796  19.682  0.00  0.00    +0.000 OA
ENDROOT
BRANCH   1  20
ATOM     13  C   UNL     1       1.352   8.024  21.421  0.00  0.00    +0.000 C 
ATOM     14  C   UNL     1       1.685   8.432  20.014  0.00  0.00    +0.000 A 
ATOM     15  C   UNL     1       2.331   7.454  19.223  0.00  0.00    +0.000 A 
ATOM     16  F   UNL     1       2.629   6.249  19.734  0.00  0.00    +0.000 F 
ATOM     17  C   UNL     1       2.647   7.710  17.904  0.00  0.00    +0.000 A 
ATOM     18  N   UNL     1       2.343   8.872  17.298  0.00  0.00    +0.000 NA
ATOM     19  C   UNL     1       1.655   9.782  18.042  0.00  0.00    +0.000 A 
ATOM     20  C   UNL     1       1.290   9.643  19.394  0.00  0.00    +0.000 A 
ENDBRANCH   1  20
BRANCH   2  21
ATOM     21  C   UNL     1       1.197  12.964  19.321  0.00  0.00    +0.000 C 
ATOM     22  C   UNL     1       2.484  12.760  18.552  0.00  0.00    +0.000 C 
BRANCH  21  23
ATOM     23  N   UNL     1       1.045  14.377  19.796  0.00  0.00    +0.000 N 
ATOM     24  H   UNL     1       0.770  14.433  20.773  0.00  0.00    +0.000 HD
BRANCH  23  25
ATOM     25  C   UNL     1       2.045  15.296  19.419  0.00  0.00    +0.000 A 
ATOM     26  N   UNL     1       1.873  15.928  18.244  0.00  0.00    +0.000 NA
ATOM     27  C   UNL     1       2.800  16.795  17.834  0.00  0.00    +0.000 A 
ATOM     28  N   UNL     1       2.611  17.384  16.604  0.00  0.00    +0.000 N 
ATOM     29  N   UNL     1       3.922  17.068  18.490  0.00  0.00    +0.000 NA
ATOM     30  C   UNL     1       4.085  16.483  19.684  0.00  0.00    +0.000 A 
ATOM     31  N   UNL     1       5.328  16.745  20.263  0.00  0.00    +0.000 N 
ATOM     32  C   UNL     1       3.142  15.611  20.222  0.00  0.00    +0.000 A 
ATOM     33  H   UNL     1       1.974  16.831  16.048  0.00  0.00    +0.000 HD
ATOM     34  H   UNL     1       3.503  17.609  16.186  0.00  0.00    +0.000 HD
ATOM     35  H   UNL     1       5.808  17.437  19.689  0.00  0.00    +0.000 HD
ATOM     36  H   UNL     1       5.316  17.007  21.242  0.00  0.00    +0.000 HD
BRANCH  32  37
ATOM     37  C   UNL     1       3.327  15.059  21.527  0.00  0.00    +0.000 C 
ATOM     38  N   UNL     1       3.498  14.625  22.588  0.00  0.00    +0.000 NA
ENDBRANCH  32  37
ENDBRANCH  23  25
ENDBRANCH  21  23
ENDBRANCH   2  21
TORSDOF 5
ENDMDL
