MODEL 1
REMARK VINA RESULT:      -9.3      0.000      0.000
REMARK  Name = 
REMARK  8 active torsions:
REMARK  status: ('A' for Active; 'I' for Inactive)
REMARK    1  A    between atoms: C_1  and  C_2
REMARK    2  A    between atoms: N_4  and  C_5
REMARK    3  A    between atoms: C_8  and  C_9
REMARK    4  A    between atoms: C_10  and  C_11
REMARK    5  A    between atoms: C_14  and  C_15
REMARK    6  A    between atoms: C_19  and  S_20
REMARK    7  A    between atoms: S_20  and  C_21
REMARK    8  A    between atoms: C_21  and  C_22
REMARK                            x       y       z     vdW  Elec       q    Type
REMARK                         _______ _______ _______ _____ _____    ______ ____
ROOT
ATOM      1  C   UNL     1       3.654   5.621  17.743  0.00  0.00    +0.000 C 
ATOM      2  C   UNL     1       3.375   4.296  18.471  0.00  0.00    +0.000 C 
ATOM      3  C   UNL     1       4.402   3.605  19.041  0.00  0.00    +0.000 C 
ATOM      4  C   UNL     1       4.287   2.311  19.822  0.00  0.00    +0.000 C 
ATOM      5  N   UNL     1       5.714   4.086  18.951  0.00  0.00    +0.000 N 
ATOM      6  C   UNL     1       6.056   5.256  18.376  0.00  0.00    +0.000 A 
ATOM      7  N   UNL     1       7.195   5.913  18.307  0.00  0.00    +0.000 NA
ATOM      8  C   UNL     1       6.850   7.054  17.620  0.00  0.00    +0.000 A 
ATOM      9  N   UNL     1       5.584   7.090  17.185  0.00  0.00    +0.000 NA
ATOM     10  N   UNL     1       5.080   5.979  17.757  0.00  0.00    +0.000 N 
ATOM     11  H   UNL     1       6.430   3.559  19.447  0.00  0.00    +0.000 HD
ENDROOT
BRANCH   1  15
ATOM     12  C   UNL     1       1.449   9.047  19.285  0.00  0.00    +0.000 A 
ATOM     13  C   UNL     1       1.815   8.000  20.127  0.00  0.00    +0.000 A 
ATOM     14  C   UNL     1       2.524   6.904  19.641  0.00  0.00    +0.000 A 
ATOM     15  C   UNL     1       2.847   6.805  18.283  0.00  0.00    +0.000 A 
ATOM     16  C   UNL     1       2.445   7.846  17.425  0.00  0.00    +0.000 A 
ATOM     17  C   UNL     1       1.749   8.954  17.923  0.00  0.00    +0.000 A 
BRANCH  12  21
ATOM     18  C   UNL     1      -0.897  11.895  20.041  0.00  0.00    +0.000 C 
ATOM     19  C   UNL     1      -0.516  10.557  19.470  0.00  0.00    +0.000 C 
ATOM     20  O   UNL     1      -1.332   9.909  18.821  0.00  0.00    +0.000 OA
ATOM     21  N   UNL     1       0.789  10.199  19.759  0.00  0.00    +0.000 N 
ATOM     22  H   UNL     1       1.280  10.750  20.456  0.00  0.00    +0.000 HD
ENDBRANCH  12  21
ENDBRANCH   1  15
BRANCH   2  23
ATOM     23  C   UNL     1       1.942   3.865  18.607  0.00  0.00    +0.000 C 
ATOM     24  N   UNL     1       1.420   3.745  19.857  0.00  0.00    +0.000 N 
ATOM     25  O   UNL     1       1.236   3.546  17.659  0.00  0.00    +0.000 OA
ATOM     26  H   UNL     1       1.944   3.745  20.718  0.00  0.00    +0.000 HD
ATOM     27  H   UNL     1       0.503   3.313  19.892  0.00  0.00    +0.000 HD
ENDBRANCH   2  23
BRANCH   8  28
ATOM     28  S   UNL     1       7.833   8.483  17.419  0.00  0.00    +0.000 S 
BRANCH  28  29
ATOM     29  C   UNL     1       8.662   8.701  19.011  0.00  0.00    +0.000 C 
BRANCH  29  30
ATOM     30  C   UNL     1       9.223  10.111  19.141  0.00  0.00    +0.000 A 
ATOM     31  C   UNL     1       9.438  10.913  18.007  0.00  0.00    +0.000 A 
ATOM     32  C   UNL     1       9.983  12.196  18.129  0.00  0.00    +0.000 A 
ATOM     33  C   UNL     1      10.331  12.695  19.383  0.00  0.00    +0.000 A 
ATOM     34  C   UNL     1      10.133  11.907  20.517  0.00  0.00    +0.000 A 
ATOM     35  C   UNL     1       9.587  10.626  20.397  0.00  0.00    +0.000 A 
ENDBRANCH  29  30
ENDBRANCH  28  29
ENDBRANCH   8  28
TORSDOF 6
ENDMDL
MODEL 2
REMARK VINA RESULT:      -9.2      0.139      1.231
REMARK  Name = 
REMARK  8 active torsions:
REMARK  status: ('A' for Active; 'I' for Inactive)
REMARK    1  A    between atoms: C_1  and  C_2
REMARK    2  A    between atoms: N_4  and  C_5
REMARK    3  A    between atoms: C_8  and  C_9
REMARK    4  A    between atoms: C_10  and  C_11
REMARK    5  A    between atoms: C_14  and  C_15
REMARK    6  A    between atoms: C_19  and  S_20
REMARK    7  A    between atoms: S_20  and  C_21
REMARK    8  A    between atoms: C_21  and  C_22
REMARK                            x       y       z     vdW  Elec       q    Type
REMARK                         _______ _______ _______ _____ _____    ______ ____
ROOT
ATOM      1  C   UNL     1       3.687   5.698  17.715  0.00  0.00    +0.000 C 
ATOM      2  C   UNL     1       3.377   4.371  18.427  0.00  0.00    +0.000 C 
ATOM      3  C   UNL     1       4.386   3.650  18.988  0.00  0.00    +0.000 C 
ATOM      4  C   UNL     1       4.242   2.349  19.754  0.00  0.00    +0.000 C 
ATOM      5  N   UNL     1       5.710   4.101  18.903  0.00  0.00    +0.000 N 
ATOM      6  C   UNL     1       6.079   5.269  18.343  0.00  0.00    +0.000 A 
ATOM      7  N   UNL     1       7.233   5.900  18.281  0.00  0.00    +0.000 NA
ATOM      8  C   UNL     1       6.915   7.057  17.608  0.00  0.00    +0.000 A 
ATOM      9  N   UNL     1       5.651   7.128  17.174  0.00  0.00    +0.000 NA
ATOM     10  N   UNL     1       5.120   6.023  17.733  0.00  0.00    +0.000 N 
ATOM     11  H   UNL     1       6.413   3.551  19.393  0.00  0.00    +0.000 HD
ENDROOT
BRANCH   1  15
ATOM     12  C   UNL     1       1.377   9.042  19.285  0.00  0.00    +0.000 A 
ATOM     13  C   UNL     1       1.746   9.001  17.943  0.00  0.00    +0.000 A 
ATOM     14  C   UNL     1       2.481   7.933  17.434  0.00  0.00    +0.000 A 
ATOM     15  C   UNL     1       2.907   6.894  18.269  0.00  0.00    +0.000 A 
ATOM     16  C   UNL     1       2.566   6.954  19.633  0.00  0.00    +0.000 A 
ATOM     17  C   UNL     1       1.811   8.021  20.135  0.00  0.00    +0.000 A 
BRANCH  12  21
ATOM     18  C   UNL     1      -1.213  11.665  20.054  0.00  0.00    +0.000 C 
ATOM     19  C   UNL     1      -0.662  10.462  19.342  0.00  0.00    +0.000 C 
ATOM     20  O   UNL     1      -1.303   9.933  18.439  0.00  0.00    +0.000 OA
ATOM     21  N   UNL     1       0.579  10.077  19.816  0.00  0.00    +0.000 N 
ATOM     22  H   UNL     1       0.898  10.496  20.684  0.00  0.00    +0.000 HD
ENDBRANCH  12  21
ENDBRANCH   1  15
BRANCH   2  23
ATOM     23  C   UNL     1       1.933   3.973  18.558  0.00  0.00    +0.000 C 
ATOM     24  N   UNL     1       1.400   3.884  19.805  0.00  0.00    +0.000 N 
ATOM     25  O   UNL     1       1.228   3.653  17.609  0.00  0.00    +0.000 OA
ATOM     26  H   UNL     1       1.916   3.887  20.670  0.00  0.00    +0.000 HD
ATOM     27  H   UNL     1       0.473   3.472  19.840  0.00  0.00    +0.000 HD
ENDBRANCH   2  23
BRANCH   8  28
ATOM     28  S   UNL     1       7.931   8.465  17.425  0.00  0.00    +0.000 S 
BRANCH  28  29
ATOM     29  C   UNL     1       8.649   8.734  19.063  0.00  0.00    +0.000 C 
BRANCH  29  30
ATOM     30  C   UNL     1       9.244  10.131  19.170  0.00  0.00    +0.000 A 
ATOM     31  C   UNL     1       9.654  10.653  20.409  0.00  0.00    +0.000 A 
ATOM     32  C   UNL     1      10.171  11.949  20.507  0.00  0.00    +0.000 A 
ATOM     33  C   UNL     1      10.282  12.749  19.369  0.00  0.00    +0.000 A 
ATOM     34  C   UNL     1       9.871  12.248  18.134  0.00  0.00    +0.000 A 
ATOM     35  C   UNL     1       9.355  10.953  18.035  0.00  0.00    +0.000 A 
ENDBRANCH  29  30
ENDBRANCH  28  29
ENDBRANCH   8  28
TORSDOF 6
ENDMDL
MODEL 3
REMARK VINA RESULT:      -9.2      0.734      1.133
REMARK  Name = 
REMARK  8 active torsions:
REMARK  status: ('A' for Active; 'I' for Inactive)
REMARK    1  A    between atoms: C_1  and  C_2
REMARK    2  A    between atoms: N_4  and  C_5
REMARK    3  A    between atoms: C_8  and  C_9
REMARK    4  A    between atoms: C_10  and  C_11
REMARK    5  A    between atoms: C_14  and  C_15
REMARK    6  A    between atoms: C_19  and  S_20
REMARK    7  A    between atoms: S_20  and  C_21
REMARK    8  A    between atoms: C_21  and  C_22
REMARK                            x       y       z     vdW  Elec       q    Type
REMARK                         _______ _______ _______ _____ _____    ______ ____
ROOT
ATOM      1  C   UNL     1       3.641   5.608  17.806  0.00  0.00    +0.000 C 
ATOM      2  C   UNL     1       3.357   4.288  18.541  0.00  0.00    +0.000 C 
ATOM      3  C   UNL     1       4.383   3.586  19.098  0.00  0.00    +0.000 C 
ATOM      4  C   UNL     1       4.265   2.295  19.884  0.00  0.00    +0.000 C 
ATOM      5  N   UNL     1       5.700   4.052  18.988  0.00  0.00    +0.000 N 
ATOM      6  C   UNL     1       6.047   5.216  18.405  0.00  0.00    +0.000 A 
ATOM      7  N   UNL     1       7.192   5.860  18.318  0.00  0.00    +0.000 NA
ATOM      8  C   UNL     1       6.851   7.003  17.634  0.00  0.00    +0.000 A 
ATOM      9  N   UNL     1       5.579   7.053  17.217  0.00  0.00    +0.000 NA
ATOM     10  N   UNL     1       5.070   5.950  17.799  0.00  0.00    +0.000 N 
ATOM     11  H   UNL     1       6.416   3.518  19.475  0.00  0.00    +0.000 HD
ENDROOT
BRANCH   1  15
ATOM     12  C   UNL     1       1.315   8.944  19.368  0.00  0.00    +0.000 A 
ATOM     13  C   UNL     1       1.607   8.856  18.009  0.00  0.00    +0.000 A 
ATOM     14  C   UNL     1       2.347   7.790  17.503  0.00  0.00    +0.000 A 
ATOM     15  C   UNL     1       2.855   6.802  18.355  0.00  0.00    +0.000 A 
ATOM     16  C   UNL     1       2.590   6.911  19.733  0.00  0.00    +0.000 A 
ATOM     17  C   UNL     1       1.830   7.975  20.233  0.00  0.00    +0.000 A 
BRANCH  12  21
ATOM     18  C   UNL     1      -0.209  12.174  20.565  0.00  0.00    +0.000 C 
ATOM     19  C   UNL     1       0.776  11.331  19.805  0.00  0.00    +0.000 C 
ATOM     20  O   UNL     1       1.695  11.863  19.188  0.00  0.00    +0.000 OA
ATOM     21  N   UNL     1       0.515   9.976  19.901  0.00  0.00    +0.000 N 
ATOM     22  H   UNL     1      -0.381   9.700  20.291  0.00  0.00    +0.000 HD
ENDBRANCH  12  21
ENDBRANCH   1  15
BRANCH   2  23
ATOM     23  C   UNL     1       1.921   3.874  18.698  0.00  0.00    +0.000 C 
ATOM     24  N   UNL     1       1.389   3.853  19.950  0.00  0.00    +0.000 N 
ATOM     25  O   UNL     1       1.220   3.486  17.772  0.00  0.00    +0.000 OA
ATOM     26  H   UNL     1       1.906   3.917  20.812  0.00  0.00    +0.000 HD
ATOM     27  H   UNL     1       0.469   3.428  20.011  0.00  0.00    +0.000 HD
ENDBRANCH   2  23
BRANCH   8  28
ATOM     28  S   UNL     1       7.847   8.420  17.416  0.00  0.00    +0.000 S 
BRANCH  28  29
ATOM     29  C   UNL     1       8.655   8.668  19.014  0.00  0.00    +0.000 C 
BRANCH  29  30
ATOM     30  C   UNL     1       9.196  10.086  19.134  0.00  0.00    +0.000 A 
ATOM     31  C   UNL     1       9.334  10.908  18.003  0.00  0.00    +0.000 A 
ATOM     32  C   UNL     1       9.861  12.200  18.113  0.00  0.00    +0.000 A 
ATOM     33  C   UNL     1      10.264  12.689  19.355  0.00  0.00    +0.000 A 
ATOM     34  C   UNL     1      10.141  11.882  20.486  0.00  0.00    +0.000 A 
ATOM     35  C   UNL     1       9.615  10.592  20.377  0.00  0.00    +0.000 A 
ENDBRANCH  29  30
ENDBRANCH  28  29
ENDBRANCH   8  28
TORSDOF 6
ENDMDL
MODEL 4
REMARK VINA RESULT:      -9.2      0.903      1.274
REMARK  Name = 
REMARK  8 active torsions:
REMARK  status: ('A' for Active; 'I' for Inactive)
REMARK    1  A    between atoms: C_1  and  C_2
REMARK    2  A    between atoms: N_4  and  C_5
REMARK    3  A    between atoms: C_8  and  C_9
REMARK    4  A    between atoms: C_10  and  C_11
REMARK    5  A    between atoms: C_14  and  C_15
REMARK    6  A    between atoms: C_19  and  S_20
REMARK    7  A    between atoms: S_20  and  C_21
REMARK    8  A    between atoms: C_21  and  C_22
REMARK                            x       y       z     vdW  Elec       q    Type
REMARK                         _______ _______ _______ _____ _____    ______ ____
ROOT
ATOM      1  C   UNL     1       3.634   5.400  17.742  0.00  0.00    +0.000 C 
ATOM      2  C   UNL     1       3.002   4.058  18.145  0.00  0.00    +0.000 C 
ATOM      3  C   UNL     1       3.776   3.080  18.693  0.00  0.00    +0.000 C 
ATOM      4  C   UNL     1       3.301   1.724  19.175  0.00  0.00    +0.000 C 
ATOM      5  N   UNL     1       5.150   3.285  18.876  0.00  0.00    +0.000 N 
ATOM      6  C   UNL     1       5.789   4.439  18.599  0.00  0.00    +0.000 A 
ATOM      7  N   UNL     1       7.022   4.846  18.814  0.00  0.00    +0.000 NA
ATOM      8  C   UNL     1       7.010   6.134  18.332  0.00  0.00    +0.000 A 
ATOM      9  N   UNL     1       5.863   6.508  17.751  0.00  0.00    +0.000 NA
ATOM     10  N   UNL     1       5.077   5.445  18.016  0.00  0.00    +0.000 N 
ATOM     11  H   UNL     1       5.665   2.543  19.345  0.00  0.00    +0.000 HD
ENDROOT
BRANCH   1  15
ATOM     12  C   UNL     1       1.656   8.813  19.592  0.00  0.00    +0.000 A 
ATOM     13  C   UNL     1       2.099   8.877  18.273  0.00  0.00    +0.000 A 
ATOM     14  C   UNL     1       2.729   7.788  17.675  0.00  0.00    +0.000 A 
ATOM     15  C   UNL     1       2.973   6.616  18.399  0.00  0.00    +0.000 A 
ATOM     16  C   UNL     1       2.558   6.564  19.743  0.00  0.00    +0.000 A 
ATOM     17  C   UNL     1       1.909   7.656  20.333  0.00  0.00    +0.000 A 
BRANCH  12  21
ATOM     18  C   UNL     1      -0.682  11.595  20.580  0.00  0.00    +0.000 C 
ATOM     19  C   UNL     1      -0.247  10.400  19.778  0.00  0.00    +0.000 C 
ATOM     20  O   UNL     1      -0.942   9.994  18.851  0.00  0.00    +0.000 OA
ATOM     21  N   UNL     1       0.959   9.875  20.205  0.00  0.00    +0.000 N 
ATOM     22  H   UNL     1       1.323  10.203  21.094  0.00  0.00    +0.000 HD
ENDBRANCH  12  21
ENDBRANCH   1  15
BRANCH   2  23
ATOM     23  C   UNL     1       1.513   3.919  18.001  0.00  0.00    +0.000 C 
ATOM     24  N   UNL     1       0.807   3.421  19.051  0.00  0.00    +0.000 N 
ATOM     25  O   UNL     1       0.905   4.161  16.966  0.00  0.00    +0.000 OA
ATOM     26  H   UNL     1       1.197   2.966  19.862  0.00  0.00    +0.000 HD
ATOM     27  H   UNL     1      -0.165   3.213  18.846  0.00  0.00    +0.000 HD
ENDBRANCH   2  23
BRANCH   8  28
ATOM     28  S   UNL     1       8.253   7.339  18.556  0.00  0.00    +0.000 S 
BRANCH  28  29
ATOM     29  C   UNL     1       7.638   8.803  17.691  0.00  0.00    +0.000 C 
BRANCH  29  30
ATOM     30  C   UNL     1       8.360  10.057  18.168  0.00  0.00    +0.000 A 
ATOM     31  C   UNL     1       8.190  11.287  17.510  0.00  0.00    +0.000 A 
ATOM     32  C   UNL     1       8.879  12.428  17.933  0.00  0.00    +0.000 A 
ATOM     33  C   UNL     1       9.757  12.358  19.015  0.00  0.00    +0.000 A 
ATOM     34  C   UNL     1       9.943  11.142  19.672  0.00  0.00    +0.000 A 
ATOM     35  C   UNL     1       9.254  10.002  19.251  0.00  0.00    +0.000 A 
ENDBRANCH  29  30
ENDBRANCH  28  29
ENDBRANCH   8  28
TORSDOF 6
ENDMDL
MODEL 5
REMARK VINA RESULT:      -9.2      0.910      1.256
REMARK  Name = 
REMARK  8 active torsions:
REMARK  status: ('A' for Active; 'I' for Inactive)
REMARK    1  A    between atoms: C_1  and  C_2
REMARK    2  A    between atoms: N_4  and  C_5
REMARK    3  A    between atoms: C_8  and  C_9
REMARK    4  A    between atoms: C_10  and  C_11
REMARK    5  A    between atoms: C_14  and  C_15
REMARK    6  A    between atoms: C_19  and  S_20
REMARK    7  A    between atoms: S_20  and  C_21
REMARK    8  A    between atoms: C_21  and  C_22
REMARK                            x       y       z     vdW  Elec       q    Type
REMARK                         _______ _______ _______ _____ _____    ______ ____
ROOT
ATOM      1  C   UNL     1       3.675   5.584  17.761  0.00  0.00    +0.000 C 
ATOM      2  C   UNL     1       3.415   4.247  18.472  0.00  0.00    +0.000 C 
ATOM      3  C   UNL     1       4.453   3.556  19.022  0.00  0.00    +0.000 C 
ATOM      4  C   UNL     1       4.357   2.250  19.786  0.00  0.00    +0.000 C 
ATOM      5  N   UNL     1       5.760   4.050  18.926  0.00  0.00    +0.000 N 
ATOM      6  C   UNL     1       6.086   5.231  18.365  0.00  0.00    +0.000 A 
ATOM      7  N   UNL     1       7.218   5.899  18.295  0.00  0.00    +0.000 NA
ATOM      8  C   UNL     1       6.858   7.046  17.628  0.00  0.00    +0.000 A 
ATOM      9  N   UNL     1       5.587   7.078  17.205  0.00  0.00    +0.000 NA
ATOM     10  N   UNL     1       5.098   5.955  17.767  0.00  0.00    +0.000 N 
ATOM     11  H   UNL     1       6.485   3.522  19.408  0.00  0.00    +0.000 HD
ENDROOT
BRANCH   1  15
ATOM     12  C   UNL     1       1.457   8.968  19.375  0.00  0.00    +0.000 A 
ATOM     13  C   UNL     1       1.830   7.907  20.196  0.00  0.00    +0.000 A 
ATOM     14  C   UNL     1       2.543   6.824  19.687  0.00  0.00    +0.000 A 
ATOM     15  C   UNL     1       2.863   6.753  18.326  0.00  0.00    +0.000 A 
ATOM     16  C   UNL     1       2.454   7.809  17.490  0.00  0.00    +0.000 A 
ATOM     17  C   UNL     1       1.754   8.904  18.011  0.00  0.00    +0.000 A 
BRANCH  12  21
ATOM     18  C   UNL     1      -0.113  11.710  21.426  0.00  0.00    +0.000 C 
ATOM     19  C   UNL     1       0.769  10.515  21.196  0.00  0.00    +0.000 C 
ATOM     20  O   UNL     1       1.372  10.004  22.135  0.00  0.00    +0.000 OA
ATOM     21  N   UNL     1       0.792  10.108  19.873  0.00  0.00    +0.000 N 
ATOM     22  H   UNL     1       0.390  10.736  19.185  0.00  0.00    +0.000 HD
ENDBRANCH  12  21
ENDBRANCH   1  15
BRANCH   2  23
ATOM     23  C   UNL     1       1.987   3.801  18.616  0.00  0.00    +0.000 C 
ATOM     24  N   UNL     1       1.466   3.698  19.867  0.00  0.00    +0.000 N 
ATOM     25  O   UNL     1       1.284   3.457  17.673  0.00  0.00    +0.000 OA
ATOM     26  H   UNL     1       1.989   3.719  20.728  0.00  0.00    +0.000 HD
ATOM     27  H   UNL     1       0.554   3.256  19.910  0.00  0.00    +0.000 HD
ENDBRANCH   2  23
BRANCH   8  28
ATOM     28  S   UNL     1       7.826   8.487  17.438  0.00  0.00    +0.000 S 
BRANCH  28  29
ATOM     29  C   UNL     1       8.649   8.703  19.034  0.00  0.00    +0.000 C 
BRANCH  29  30
ATOM     30  C   UNL     1       9.225  10.107  19.159  0.00  0.00    +0.000 A 
ATOM     31  C   UNL     1       9.594  10.631  20.410  0.00  0.00    +0.000 A 
ATOM     32  C   UNL     1      10.094  11.933  20.524  0.00  0.00    +0.000 A 
ATOM     33  C   UNL     1      10.226  12.736  19.391  0.00  0.00    +0.000 A 
ATOM     34  C   UNL     1       9.856  12.233  18.144  0.00  0.00    +0.000 A 
ATOM     35  C   UNL     1       9.358  10.933  18.029  0.00  0.00    +0.000 A 
ENDBRANCH  29  30
ENDBRANCH  28  29
ENDBRANCH   8  28
TORSDOF 6
ENDMDL
MODEL 6
REMARK VINA RESULT:      -9.0      0.588      1.042
REMARK  Name = 
REMARK  8 active torsions:
REMARK  status: ('A' for Active; 'I' for Inactive)
REMARK    1  A    between atoms: C_1  and  C_2
REMARK    2  A    between atoms: N_4  and  C_5
REMARK    3  A    between atoms: C_8  and  C_9
REMARK    4  A    between atoms: C_10  and  C_11
REMARK    5  A    between atoms: C_14  and  C_15
REMARK    6  A    between atoms: C_19  and  S_20
REMARK    7  A    between atoms: S_20  and  C_21
REMARK    8  A    between atoms: C_21  and  C_22
REMARK                            x       y       z     vdW  Elec       q    Type
REMARK                         _______ _______ _______ _____ _____    ______ ____
ROOT
ATOM      1  C   UNL     1       3.662   5.709  17.874  0.00  0.00    +0.000 C 
ATOM      2  C   UNL     1       3.399   4.393  18.625  0.00  0.00    +0.000 C 
ATOM      3  C   UNL     1       4.433   3.729  19.213  0.00  0.00    +0.000 C 
ATOM      4  C   UNL     1       4.334   2.448  20.018  0.00  0.00    +0.000 C 
ATOM      5  N   UNL     1       5.738   4.229  19.123  0.00  0.00    +0.000 N 
ATOM      6  C   UNL     1       6.065   5.394  18.528  0.00  0.00    +0.000 A 
ATOM      7  N   UNL     1       7.193   6.067  18.454  0.00  0.00    +0.000 NA
ATOM      8  C   UNL     1       6.836   7.190  17.744  0.00  0.00    +0.000 A 
ATOM      9  N   UNL     1       5.572   7.197  17.300  0.00  0.00    +0.000 NA
ATOM     10  N   UNL     1       5.082   6.090  17.890  0.00  0.00    +0.000 N 
ATOM     11  H   UNL     1       6.458   3.724  19.633  0.00  0.00    +0.000 HD
ENDROOT
BRANCH   1  15
ATOM     12  C   UNL     1       1.394   9.126  19.341  0.00  0.00    +0.000 A 
ATOM     13  C   UNL     1       1.736   8.081  20.195  0.00  0.00    +0.000 A 
ATOM     14  C   UNL     1       2.465   6.988  19.733  0.00  0.00    +0.000 A 
ATOM     15  C   UNL     1       2.832   6.889  18.386  0.00  0.00    +0.000 A 
ATOM     16  C   UNL     1       2.454   7.928  17.516  0.00  0.00    +0.000 A 
ATOM     17  C   UNL     1       1.738   9.034  17.990  0.00  0.00    +0.000 A 
BRANCH  12  21
ATOM     18  C   UNL     1      -0.975  11.979  20.000  0.00  0.00    +0.000 C 
ATOM     19  C   UNL     1      -0.570  10.648  19.433  0.00  0.00    +0.000 C 
ATOM     20  O   UNL     1      -1.350  10.015  18.726  0.00  0.00    +0.000 OA
ATOM     21  N   UNL     1       0.713  10.276  19.793  0.00  0.00    +0.000 N 
ATOM     22  H   UNL     1       1.166  10.812  20.527  0.00  0.00    +0.000 HD
ENDBRANCH  12  21
ENDBRANCH   1  15
BRANCH   2  23
ATOM     23  C   UNL     1       1.972   3.942  18.759  0.00  0.00    +0.000 C 
ATOM     24  N   UNL     1       1.251   3.736  17.625  0.00  0.00    +0.000 N 
ATOM     25  O   UNL     1       1.397   3.818  19.833  0.00  0.00    +0.000 OA
ATOM     26  H   UNL     1       1.517   4.022  16.696  0.00  0.00    +0.000 HD
ATOM     27  H   UNL     1       0.261   3.577  17.777  0.00  0.00    +0.000 HD
ENDBRANCH   2  23
BRANCH   8  28
ATOM     28  S   UNL     1       7.797   8.630  17.523  0.00  0.00    +0.000 S 
BRANCH  28  29
ATOM     29  C   UNL     1       8.760   8.781  19.045  0.00  0.00    +0.000 C 
BRANCH  29  30
ATOM     30  C   UNL     1       9.326  10.187  19.190  0.00  0.00    +0.000 A 
ATOM     31  C   UNL     1       9.456  10.791  20.453  0.00  0.00    +0.000 A 
ATOM     32  C   UNL     1       9.947  12.095  20.578  0.00  0.00    +0.000 A 
ATOM     33  C   UNL     1      10.310  12.821  19.444  0.00  0.00    +0.000 A 
ATOM     34  C   UNL     1      10.178  12.239  18.184  0.00  0.00    +0.000 A 
ATOM     35  C   UNL     1       9.689  10.936  18.057  0.00  0.00    +0.000 A 
ENDBRANCH  29  30
ENDBRANCH  28  29
ENDBRANCH   8  28
TORSDOF 6
ENDMDL
MODEL 7
REMARK VINA RESULT:      -8.9      4.641      7.692
REMARK  Name = 
REMARK  8 active torsions:
REMARK  status: ('A' for Active; 'I' for Inactive)
REMARK    1  A    between atoms: C_1  and  C_2
REMARK    2  A    between atoms: N_4  and  C_5
REMARK    3  A    between atoms: C_8  and  C_9
REMARK    4  A    between atoms: C_10  and  C_11
REMARK    5  A    between atoms: C_14  and  C_15
REMARK    6  A    between atoms: C_19  and  S_20
REMARK    7  A    between atoms: S_20  and  C_21
REMARK    8  A    between atoms: C_21  and  C_22
REMARK                            x       y       z     vdW  Elec       q    Type
REMARK                         _______ _______ _______ _____ _____    ______ ____
ROOT
ATOM      1  C   UNL     1       4.261   4.718  19.553  0.00  0.00    +0.000 C 
ATOM      2  C   UNL     1       3.685   3.457  20.216  0.00  0.00    +0.000 C 
ATOM      3  C   UNL     1       2.411   3.465  20.698  0.00  0.00    +0.000 C 
ATOM      4  C   UNL     1       1.688   2.298  21.341  0.00  0.00    +0.000 C 
ATOM      5  N   UNL     1       1.628   4.623  20.608  0.00  0.00    +0.000 N 
ATOM      6  C   UNL     1       2.024   5.761  20.006  0.00  0.00    +0.000 A 
ATOM      7  N   UNL     1       1.394   6.883  19.725  0.00  0.00    +0.000 NA
ATOM      8  C   UNL     1       2.353   7.618  19.068  0.00  0.00    +0.000 A 
ATOM      9  N   UNL     1       3.562   7.045  19.012  0.00  0.00    +0.000 NA
ATOM     10  N   UNL     1       3.300   5.831  19.533  0.00  0.00    +0.000 N 
ATOM     11  H   UNL     1       0.665   4.550  20.930  0.00  0.00    +0.000 HD
ENDROOT
BRANCH   1  15
ATOM     12  C   UNL     1       5.715   3.957  15.517  0.00  0.00    +0.000 A 
ATOM     13  C   UNL     1       6.593   4.337  16.529  0.00  0.00    +0.000 A 
ATOM     14  C   UNL     1       6.135   4.578  17.822  0.00  0.00    +0.000 A 
ATOM     15  C   UNL     1       4.772   4.488  18.127  0.00  0.00    +0.000 A 
ATOM     16  C   UNL     1       3.880   4.140  17.096  0.00  0.00    +0.000 A 
ATOM     17  C   UNL     1       4.349   3.880  15.803  0.00  0.00    +0.000 A 
BRANCH  12  21
ATOM     18  C   UNL     1       7.162   3.881  12.041  0.00  0.00    +0.000 C 
ATOM     19  C   UNL     1       6.949   4.449  13.416  0.00  0.00    +0.000 C 
ATOM     20  O   UNL     1       7.454   5.524  13.725  0.00  0.00    +0.000 OA
ATOM     21  N   UNL     1       6.157   3.643  14.215  0.00  0.00    +0.000 N 
ATOM     22  H   UNL     1       5.965   2.702  13.885  0.00  0.00    +0.000 HD
ENDBRANCH  12  21
ENDBRANCH   1  15
BRANCH   2  23
ATOM     23  C   UNL     1       4.538   2.219  20.216  0.00  0.00    +0.000 C 
ATOM     24  N   UNL     1       4.462   1.384  19.146  0.00  0.00    +0.000 N 
ATOM     25  O   UNL     1       5.245   1.882  21.157  0.00  0.00    +0.000 OA
ATOM     26  H   UNL     1       3.761   1.413  18.423  0.00  0.00    +0.000 HD
ATOM     27  H   UNL     1       4.944   0.499  19.266  0.00  0.00    +0.000 HD
ENDBRANCH   2  23
BRANCH   8  28
ATOM     28  S   UNL     1       2.101   9.102  18.183  0.00  0.00    +0.000 S 
BRANCH  28  29
ATOM     29  C   UNL     1       1.108  10.134  19.286  0.00  0.00    +0.000 C 
BRANCH  29  30
ATOM     30  C   UNL     1      -0.236  10.466  18.652  0.00  0.00    +0.000 A 
ATOM     31  C   UNL     1      -1.029  11.518  19.141  0.00  0.00    +0.000 A 
ATOM     32  C   UNL     1      -2.278  11.799  18.575  0.00  0.00    +0.000 A 
ATOM     33  C   UNL     1      -2.758  11.029  17.516  0.00  0.00    +0.000 A 
ATOM     34  C   UNL     1      -1.986   9.976  17.026  0.00  0.00    +0.000 A 
ATOM     35  C   UNL     1      -0.739   9.695  17.590  0.00  0.00    +0.000 A 
ENDBRANCH  29  30
ENDBRANCH  28  29
ENDBRANCH   8  28
TORSDOF 6
ENDMDL
MODEL 8
REMARK VINA RESULT:      -8.9      4.661      7.640
REMARK  Name = 
REMARK  8 active torsions:
REMARK  status: ('A' for Active; 'I' for Inactive)
REMARK    1  A    between atoms: C_1  and  C_2
REMARK    2  A    between atoms: N_4  and  C_5
REMARK    3  A    between atoms: C_8  and  C_9
REMARK    4  A    between atoms: C_10  and  C_11
REMARK    5  A    between atoms: C_14  and  C_15
REMARK    6  A    between atoms: C_19  and  S_20
REMARK    7  A    between atoms: S_20  and  C_21
REMARK    8  A    between atoms: C_21  and  C_22
REMARK                            x       y       z     vdW  Elec       q    Type
REMARK                         _______ _______ _______ _____ _____    ______ ____
ROOT
ATOM      1  C   UNL     1       4.266   4.697  19.520  0.00  0.00    +0.000 C 
ATOM      2  C   UNL     1       3.688   3.456  20.218  0.00  0.00    +0.000 C 
ATOM      3  C   UNL     1       2.422   3.487  20.720  0.00  0.00    +0.000 C 
ATOM      4  C   UNL     1       1.697   2.340  21.398  0.00  0.00    +0.000 C 
ATOM      5  N   UNL     1       1.649   4.651  20.619  0.00  0.00    +0.000 N 
ATOM      6  C   UNL     1       2.047   5.773  19.987  0.00  0.00    +0.000 A 
ATOM      7  N   UNL     1       1.424   6.895  19.694  0.00  0.00    +0.000 NA
ATOM      8  C   UNL     1       2.380   7.606  19.007  0.00  0.00    +0.000 A 
ATOM      9  N   UNL     1       3.582   7.020  18.943  0.00  0.00    +0.000 NA
ATOM     10  N   UNL     1       3.316   5.819  19.493  0.00  0.00    +0.000 N 
ATOM     11  H   UNL     1       0.691   4.595  20.957  0.00  0.00    +0.000 HD
ENDROOT
BRANCH   1  15
ATOM     12  C   UNL     1       5.650   4.055  15.440  0.00  0.00    +0.000 A 
ATOM     13  C   UNL     1       4.301   3.930  15.760  0.00  0.00    +0.000 A 
ATOM     14  C   UNL     1       3.851   4.139  17.062  0.00  0.00    +0.000 A 
ATOM     15  C   UNL     1       4.752   4.433  18.092  0.00  0.00    +0.000 A 
ATOM     16  C   UNL     1       6.120   4.523  17.775  0.00  0.00    +0.000 A 
ATOM     17  C   UNL     1       6.564   4.331  16.461  0.00  0.00    +0.000 A 
BRANCH  12  21
ATOM     18  C   UNL     1       7.314   4.366  12.075  0.00  0.00    +0.000 C 
ATOM     19  C   UNL     1       7.099   4.698  13.525  0.00  0.00    +0.000 C 
ATOM     20  O   UNL     1       7.752   5.592  14.056  0.00  0.00    +0.000 OA
ATOM     21  N   UNL     1       6.127   3.913  14.120  0.00  0.00    +0.000 N 
ATOM     22  H   UNL     1       5.807   3.099  13.606  0.00  0.00    +0.000 HD
ENDBRANCH  12  21
ENDBRANCH   1  15
BRANCH   2  23
ATOM     23  C   UNL     1       4.528   2.210  20.230  0.00  0.00    +0.000 C 
ATOM     24  N   UNL     1       4.453   1.372  19.162  0.00  0.00    +0.000 N 
ATOM     25  O   UNL     1       5.224   1.868  21.178  0.00  0.00    +0.000 OA
ATOM     26  H   UNL     1       3.758   1.405  18.433  0.00  0.00    +0.000 HD
ATOM     27  H   UNL     1       4.924   0.482  19.289  0.00  0.00    +0.000 HD
ENDBRANCH   2  23
BRANCH   8  28
ATOM     28  S   UNL     1       2.129   9.075  18.096  0.00  0.00    +0.000 S 
BRANCH  28  29
ATOM     29  C   UNL     1       1.193  10.152  19.206  0.00  0.00    +0.000 C 
BRANCH  29  30
ATOM     30  C   UNL     1      -0.196  10.432  18.646  0.00  0.00    +0.000 A 
ATOM     31  C   UNL     1      -0.717   9.672  17.585  0.00  0.00    +0.000 A 
ATOM     32  C   UNL     1      -1.980   9.953  17.053  0.00  0.00    +0.000 A 
ATOM     33  C   UNL     1      -2.741  11.002  17.568  0.00  0.00    +0.000 A 
ATOM     34  C   UNL     1      -2.233  11.771  18.615  0.00  0.00    +0.000 A 
ATOM     35  C   UNL     1      -0.972  11.491  19.148  0.00  0.00    +0.000 A 
ENDBRANCH  29  30
ENDBRANCH  28  29
ENDBRANCH   8  28
TORSDOF 6
ENDMDL
MODEL 9
REMARK VINA RESULT:      -8.6      4.643      7.206
REMARK  Name = 
REMARK  8 active torsions:
REMARK  status: ('A' for Active; 'I' for Inactive)
REMARK    1  A    between atoms: C_1  and  C_2
REMARK    2  A    between atoms: N_4  and  C_5
REMARK    3  A    between atoms: C_8  and  C_9
REMARK    4  A    between atoms: C_10  and  C_11
REMARK    5  A    between atoms: C_14  and  C_15
REMARK    6  A    between atoms: C_19  and  S_20
REMARK    7  A    between atoms: S_20  and  C_21
REMARK    8  A    between atoms: C_21  and  C_22
REMARK                            x       y       z     vdW  Elec       q    Type
REMARK                         _______ _______ _______ _____ _____    ______ ____
ROOT
ATOM      1  C   UNL     1       4.341   4.672  19.452  0.00  0.00    +0.000 C 
ATOM      2  C   UNL     1       3.710   3.458  20.153  0.00  0.00    +0.000 C 
ATOM      3  C   UNL     1       2.437   3.535  20.631  0.00  0.00    +0.000 C 
ATOM      4  C   UNL     1       1.664   2.420  21.308  0.00  0.00    +0.000 C 
ATOM      5  N   UNL     1       1.704   4.722  20.502  0.00  0.00    +0.000 N 
ATOM      6  C   UNL     1       2.149   5.823  19.866  0.00  0.00    +0.000 A 
ATOM      7  N   UNL     1       1.567   6.960  19.548  0.00  0.00    +0.000 NA
ATOM      8  C   UNL     1       2.558   7.633  18.870  0.00  0.00    +0.000 A 
ATOM      9  N   UNL     1       3.742   7.008  18.836  0.00  0.00    +0.000 NA
ATOM     10  N   UNL     1       3.428   5.823  19.395  0.00  0.00    +0.000 N 
ATOM     11  H   UNL     1       0.739   4.700  20.823  0.00  0.00    +0.000 HD
ENDROOT
BRANCH   1  15
ATOM     12  C   UNL     1       5.774   3.937  15.404  0.00  0.00    +0.000 A 
ATOM     13  C   UNL     1       4.421   3.811  15.713  0.00  0.00    +0.000 A 
ATOM     14  C   UNL     1       3.956   4.049  17.004  0.00  0.00    +0.000 A 
ATOM     15  C   UNL     1       4.844   4.376  18.036  0.00  0.00    +0.000 A 
ATOM     16  C   UNL     1       6.215   4.467  17.731  0.00  0.00    +0.000 A 
ATOM     17  C   UNL     1       6.674   4.246  16.427  0.00  0.00    +0.000 A 
BRANCH  12  21
ATOM     18  C   UNL     1       7.403   4.215  12.020  0.00  0.00    +0.000 C 
ATOM     19  C   UNL     1       7.151   4.611  13.447  0.00  0.00    +0.000 C 
ATOM     20  O   UNL     1       7.705   5.599  13.920  0.00  0.00    +0.000 OA
ATOM     21  N   UNL     1       6.266   3.766  14.093  0.00  0.00    +0.000 N 
ATOM     22  H   UNL     1       6.034   2.892  13.632  0.00  0.00    +0.000 HD
ENDBRANCH  12  21
ENDBRANCH   1  15
BRANCH   2  23
ATOM     23  C   UNL     1       4.510   2.186  20.194  0.00  0.00    +0.000 C 
ATOM     24  N   UNL     1       4.405   1.324  19.148  0.00  0.00    +0.000 N 
ATOM     25  O   UNL     1       5.197   1.846  21.149  0.00  0.00    +0.000 OA
ATOM     26  H   UNL     1       3.710   1.362  18.419  0.00  0.00    +0.000 HD
ATOM     27  H   UNL     1       4.848   0.423  19.296  0.00  0.00    +0.000 HD
ENDBRANCH   2  23
BRANCH   8  28
ATOM     28  S   UNL     1       2.370   9.098  17.939  0.00  0.00    +0.000 S 
BRANCH  28  29
ATOM     29  C   UNL     1       0.618   9.518  18.086  0.00  0.00    +0.000 C 
BRANCH  29  30
ATOM     30  C   UNL     1       0.375  10.412  19.294  0.00  0.00    +0.000 A 
ATOM     31  C   UNL     1       0.861  11.729  19.332  0.00  0.00    +0.000 A 
ATOM     32  C   UNL     1       0.663  12.536  20.458  0.00  0.00    +0.000 A 
ATOM     33  C   UNL     1      -0.019  12.038  21.567  0.00  0.00    +0.000 A 
ATOM     34  C   UNL     1      -0.501  10.728  21.548  0.00  0.00    +0.000 A 
ATOM     35  C   UNL     1      -0.303   9.922  20.424  0.00  0.00    +0.000 A 
ENDBRANCH  29  30
ENDBRANCH  28  29
ENDBRANCH   8  28
TORSDOF 6
ENDMDL
