MODEL 1
REMARK VINA RESULT:      -7.7      0.000      0.000
REMARK  Name = 
REMARK  4 active torsions:
REMARK  status: ('A' for Active; 'I' for Inactive)
REMARK    1  A    between atoms: C_1  and  C_2
REMARK    2  A    between atoms: C_2  and  N_3
REMARK    3  A    between atoms: C_11  and  C_12
REMARK    4  A    between atoms: C_18  and  C_19
REMARK                            x       y       z     vdW  Elec       q    Type
REMARK                         _______ _______ _______ _____ _____    ______ ____
ROOT
ATOM      1  N   UNL     1       1.774   3.925  19.599  0.00  0.00    +0.000 N 
ATOM      2  C   UNL     1       2.362   3.097  18.548  0.00  0.00    +0.000 C 
ATOM      3  C   UNL     1       2.917   3.912  17.374  0.00  0.00    +0.000 C 
ATOM      4  N   UNL     1       3.789   4.948  17.903  0.00  0.00    +0.000 N 
ATOM      5  C   UNL     1       4.939   5.290  17.238  0.00  0.00    +0.000 A 
ATOM      6  N   UNL     1       5.713   6.267  17.729  0.00  0.00    +0.000 NA
ATOM      7  C   UNL     1       6.875   6.529  17.098  0.00  0.00    +0.000 A 
ATOM      8  C   UNL     1       7.287   5.867  15.967  0.00  0.00    +0.000 A 
ATOM      9  C   UNL     1       6.433   4.897  15.499  0.00  0.00    +0.000 A 
ATOM     10  N   UNL     1       5.275   4.601  16.135  0.00  0.00    +0.000 NA
ATOM     11  C   UNL     1       3.242   5.832  18.945  0.00  0.00    +0.000 C 
ATOM     12  C   UNL     1       2.212   6.802  18.351  0.00  0.00    +0.000 C 
ATOM     13  C   UNL     1       2.499   5.036  20.045  0.00  0.00    +0.000 C 
ATOM     14  O   UNL     1       2.410   5.469  21.196  0.00  0.00    +0.000 OA
ENDROOT
BRANCH   9  15
ATOM     15  C   UNL     1       6.751   4.139  14.234  0.00  0.00    +0.000 C 
ATOM     16  C   UNL     1       5.527   3.658  13.458  0.00  0.00    +0.000 C 
ATOM     17  C   UNL     1       6.083   3.341  12.073  0.00  0.00    +0.000 C 
ATOM     18  C   UNL     1       7.264   4.289  11.866  0.00  0.00    +0.000 C 
ATOM     19  C   UNL     1       7.486   4.999  13.197  0.00  0.00    +0.000 C 
ENDBRANCH   9  15
BRANCH   1  21
ATOM     20  C   UNL     1       1.336   2.524  21.613  0.00  0.00    +0.000 C 
ATOM     21  C   UNL     1       0.765   3.339  20.469  0.00  0.00    +0.000 C 
ENDBRANCH   1  21
TORSDOF 2
ENDMDL
MODEL 2
REMARK VINA RESULT:      -7.3      4.339      7.063
REMARK  Name = 
REMARK  4 active torsions:
REMARK  status: ('A' for Active; 'I' for Inactive)
REMARK    1  A    between atoms: C_1  and  C_2
REMARK    2  A    between atoms: C_2  and  N_3
REMARK    3  A    between atoms: C_11  and  C_12
REMARK    4  A    between atoms: C_18  and  C_19
REMARK                            x       y       z     vdW  Elec       q    Type
REMARK                         _______ _______ _______ _____ _____    ______ ____
ROOT
ATOM      1  N   UNL     1       0.073  11.227  21.367  0.00  0.00    +0.000 N 
ATOM      2  C   UNL     1       0.403   9.953  22.003  0.00  0.00    +0.000 C 
ATOM      3  C   UNL     1       0.360   8.765  21.035  0.00  0.00    +0.000 C 
ATOM      4  N   UNL     1       1.156   9.094  19.863  0.00  0.00    +0.000 N 
ATOM      5  C   UNL     1       1.922   8.132  19.255  0.00  0.00    +0.000 A 
ATOM      6  N   UNL     1       2.624   8.452  18.161  0.00  0.00    +0.000 NA
ATOM      7  C   UNL     1       3.428   7.509  17.630  0.00  0.00    +0.000 A 
ATOM      8  C   UNL     1       3.540   6.237  18.137  0.00  0.00    +0.000 A 
ATOM      9  C   UNL     1       2.769   5.967  19.242  0.00  0.00    +0.000 A 
ATOM     10  N   UNL     1       1.977   6.909  19.806  0.00  0.00    +0.000 NA
ATOM     11  C   UNL     1       0.848  10.352  19.165  0.00  0.00    +0.000 C 
ATOM     12  C   UNL     1      -0.482  10.246  18.409  0.00  0.00    +0.000 C 
ATOM     13  C   UNL     1       0.690  11.536  20.150  0.00  0.00    +0.000 C 
ATOM     14  O   UNL     1       0.925  12.694  19.799  0.00  0.00    +0.000 OA
ENDROOT
BRANCH   9  15
ATOM     15  C   UNL     1       2.765   4.589  19.857  0.00  0.00    +0.000 C 
ATOM     16  C   UNL     1       2.162   4.521  21.258  0.00  0.00    +0.000 C 
ATOM     17  C   UNL     1       1.877   3.034  21.454  0.00  0.00    +0.000 C 
ATOM     18  C   UNL     1       1.591   2.474  20.061  0.00  0.00    +0.000 C 
ATOM     19  C   UNL     1       1.898   3.593  19.073  0.00  0.00    +0.000 C 
ENDBRANCH   9  15
BRANCH   1  21
ATOM     20  C   UNL     1      -1.665  11.923  23.014  0.00  0.00    +0.000 C 
ATOM     21  C   UNL     1      -0.448  12.306  22.193  0.00  0.00    +0.000 C 
ENDBRANCH   1  21
TORSDOF 2
ENDMDL
MODEL 3
REMARK VINA RESULT:      -7.2      3.756      7.596
REMARK  Name = 
REMARK  4 active torsions:
REMARK  status: ('A' for Active; 'I' for Inactive)
REMARK    1  A    between atoms: C_1  and  C_2
REMARK    2  A    between atoms: C_2  and  N_3
REMARK    3  A    between atoms: C_11  and  C_12
REMARK    4  A    between atoms: C_18  and  C_19
REMARK                            x       y       z     vdW  Elec       q    Type
REMARK                         _______ _______ _______ _____ _____    ______ ____
ROOT
ATOM      1  N   UNL     1       2.315   3.505  19.006  0.00  0.00    +0.000 N 
ATOM      2  C   UNL     1       1.529   4.206  20.019  0.00  0.00    +0.000 C 
ATOM      3  C   UNL     1       2.072   5.602  20.348  0.00  0.00    +0.000 C 
ATOM      4  N   UNL     1       2.262   6.328  19.102  0.00  0.00    +0.000 N 
ATOM      5  C   UNL     1       1.982   7.669  19.035  0.00  0.00    +0.000 A 
ATOM      6  N   UNL     1       2.191   8.324  17.885  0.00  0.00    +0.000 NA
ATOM      7  C   UNL     1       1.835   9.622  17.824  0.00  0.00    +0.000 A 
ATOM      8  C   UNL     1       1.298  10.309  18.885  0.00  0.00    +0.000 A 
ATOM      9  C   UNL     1       1.138   9.587  20.043  0.00  0.00    +0.000 A 
ATOM     10  N   UNL     1       1.464   8.275  20.115  0.00  0.00    +0.000 NA
ATOM     11  C   UNL     1       3.069   5.683  18.055  0.00  0.00    +0.000 C 
ATOM     12  C   UNL     1       4.554   5.671  18.440  0.00  0.00    +0.000 C 
ATOM     13  C   UNL     1       2.667   4.203  17.845  0.00  0.00    +0.000 C 
ATOM     14  O   UNL     1       2.830   3.645  16.758  0.00  0.00    +0.000 OA
ENDROOT
BRANCH   9  15
ATOM     15  C   UNL     1       0.608  10.246  21.293  0.00  0.00    +0.000 C 
ATOM     16  C   UNL     1      -0.634  11.108  21.079  0.00  0.00    +0.000 C 
ATOM     17  C   UNL     1      -1.199  11.278  22.486  0.00  0.00    +0.000 C 
ATOM     18  C   UNL     1      -0.806  10.016  23.253  0.00  0.00    +0.000 C 
ATOM     19  C   UNL     1       0.133   9.231  22.342  0.00  0.00    +0.000 C 
ENDBRANCH   9  15
BRANCH   1  21
ATOM     20  C   UNL     1       3.650   1.400  18.941  0.00  0.00    +0.000 C 
ATOM     21  C   UNL     1       2.280   2.050  18.977  0.00  0.00    +0.000 C 
ENDBRANCH   1  21
TORSDOF 2
ENDMDL
MODEL 4
REMARK VINA RESULT:      -7.2      3.423      7.373
REMARK  Name = 
REMARK  4 active torsions:
REMARK  status: ('A' for Active; 'I' for Inactive)
REMARK    1  A    between atoms: C_1  and  C_2
REMARK    2  A    between atoms: C_2  and  N_3
REMARK    3  A    between atoms: C_11  and  C_12
REMARK    4  A    between atoms: C_18  and  C_19
REMARK                            x       y       z     vdW  Elec       q    Type
REMARK                         _______ _______ _______ _____ _____    ______ ____
ROOT
ATOM      1  N   UNL     1       5.560   5.251  17.532  0.00  0.00    +0.000 N 
ATOM      2  C   UNL     1       5.266   6.620  17.111  0.00  0.00    +0.000 C 
ATOM      3  C   UNL     1       3.780   6.979  17.217  0.00  0.00    +0.000 C 
ATOM      4  N   UNL     1       3.314   6.630  18.550  0.00  0.00    +0.000 N 
ATOM      5  C   UNL     1       2.412   7.434  19.200  0.00  0.00    +0.000 A 
ATOM      6  N   UNL     1       1.976   7.078  20.414  0.00  0.00    +0.000 NA
ATOM      7  C   UNL     1       1.151   7.925  21.062  0.00  0.00    +0.000 A 
ATOM      8  C   UNL     1       0.718   9.114  20.528  0.00  0.00    +0.000 A 
ATOM      9  C   UNL     1       1.179   9.404  19.267  0.00  0.00    +0.000 A 
ATOM     10  N   UNL     1       2.029   8.580  18.612  0.00  0.00    +0.000 NA
ATOM     11  C   UNL     1       3.557   5.256  19.016  0.00  0.00    +0.000 C 
ATOM     12  C   UNL     1       2.648   4.261  18.283  0.00  0.00    +0.000 C 
ATOM     13  C   UNL     1       5.009   4.799  18.736  0.00  0.00    +0.000 C 
ATOM     14  O   UNL     1       5.557   3.949  19.441  0.00  0.00    +0.000 OA
ENDROOT
BRANCH   9  15
ATOM     15  C   UNL     1       0.729  10.656  18.553  0.00  0.00    +0.000 C 
ATOM     16  C   UNL     1      -0.715  11.063  18.835  0.00  0.00    +0.000 C 
ATOM     17  C   UNL     1      -0.771  12.520  18.384  0.00  0.00    +0.000 C 
ATOM     18  C   UNL     1       0.634  13.082  18.598  0.00  0.00    +0.000 C 
ATOM     19  C   UNL     1       1.517  11.900  18.987  0.00  0.00    +0.000 C 
ENDBRANCH   9  15
BRANCH   1  21
ATOM     20  C   UNL     1       6.959   4.800  15.518  0.00  0.00    +0.000 C 
ATOM     21  C   UNL     1       6.750   4.598  17.006  0.00  0.00    +0.000 C 
ENDBRANCH   1  21
TORSDOF 2
ENDMDL
MODEL 5
REMARK VINA RESULT:      -6.9      3.587      7.455
REMARK  Name = 
REMARK  4 active torsions:
REMARK  status: ('A' for Active; 'I' for Inactive)
REMARK    1  A    between atoms: C_1  and  C_2
REMARK    2  A    between atoms: C_2  and  N_3
REMARK    3  A    between atoms: C_11  and  C_12
REMARK    4  A    between atoms: C_18  and  C_19
REMARK                            x       y       z     vdW  Elec       q    Type
REMARK                         _______ _______ _______ _____ _____    ______ ____
ROOT
ATOM      1  N   UNL     1       3.109   3.515  18.234  0.00  0.00    +0.000 N 
ATOM      2  C   UNL     1       1.984   3.963  19.054  0.00  0.00    +0.000 C 
ATOM      3  C   UNL     1       2.231   5.315  19.733  0.00  0.00    +0.000 C 
ATOM      4  N   UNL     1       2.676   6.264  18.725  0.00  0.00    +0.000 N 
ATOM      5  C   UNL     1       2.261   7.571  18.775  0.00  0.00    +0.000 A 
ATOM      6  N   UNL     1       2.706   8.433  17.852  0.00  0.00    +0.000 NA
ATOM      7  C   UNL     1       2.221   9.691  17.879  0.00  0.00    +0.000 A 
ATOM      8  C   UNL     1       1.322  10.135  18.817  0.00  0.00    +0.000 A 
ATOM      9  C   UNL     1       0.930   9.208  19.753  0.00  0.00    +0.000 A 
ATOM     10  N   UNL     1       1.384   7.933  19.725  0.00  0.00    +0.000 NA
ATOM     11  C   UNL     1       3.823   5.879  17.888  0.00  0.00    +0.000 C 
ATOM     12  C   UNL     1       5.125   5.911  18.698  0.00  0.00    +0.000 C 
ATOM     13  C   UNL     1       3.686   4.434  17.350  0.00  0.00    +0.000 C 
ATOM     14  O   UNL     1       4.222   4.093  16.294  0.00  0.00    +0.000 OA
ENDROOT
BRANCH   9  15
ATOM     15  C   UNL     1      -0.013   9.592  20.867  0.00  0.00    +0.000 C 
ATOM     16  C   UNL     1       0.405   9.098  22.250  0.00  0.00    +0.000 C 
ATOM     17  C   UNL     1      -0.422   9.958  23.202  0.00  0.00    +0.000 C 
ATOM     18  C   UNL     1      -0.641  11.289  22.485  0.00  0.00    +0.000 C 
ATOM     19  C   UNL     1      -0.104  11.111  21.068  0.00  0.00    +0.000 C 
ENDBRANCH   9  15
BRANCH   1  21
ATOM     20  C   UNL     1       4.008   1.348  19.075  0.00  0.00    +0.000 C 
ATOM     21  C   UNL     1       3.266   2.091  17.981  0.00  0.00    +0.000 C 
ENDBRANCH   1  21
TORSDOF 2
ENDMDL
MODEL 6
REMARK VINA RESULT:      -6.8      1.232      1.324
REMARK  Name = 
REMARK  4 active torsions:
REMARK  status: ('A' for Active; 'I' for Inactive)
REMARK    1  A    between atoms: C_1  and  C_2
REMARK    2  A    between atoms: C_2  and  N_3
REMARK    3  A    between atoms: C_11  and  C_12
REMARK    4  A    between atoms: C_18  and  C_19
REMARK                            x       y       z     vdW  Elec       q    Type
REMARK                         _______ _______ _______ _____ _____    ______ ____
ROOT
ATOM      1  N   UNL     1       2.982   2.947  20.427  0.00  0.00    +0.000 N 
ATOM      2  C   UNL     1       3.931   2.323  19.507  0.00  0.00    +0.000 C 
ATOM      3  C   UNL     1       3.759   2.784  18.055  0.00  0.00    +0.000 C 
ATOM      4  N   UNL     1       3.743   4.238  18.032  0.00  0.00    +0.000 N 
ATOM      5  C   UNL     1       4.349   4.920  17.007  0.00  0.00    +0.000 A 
ATOM      6  N   UNL     1       4.297   6.258  16.992  0.00  0.00    +0.000 NA
ATOM      7  C   UNL     1       4.966   6.904  16.017  0.00  0.00    +0.000 A 
ATOM      8  C   UNL     1       5.671   6.261  15.029  0.00  0.00    +0.000 A 
ATOM      9  C   UNL     1       5.659   4.888  15.087  0.00  0.00    +0.000 A 
ATOM     10  N   UNL     1       5.015   4.222  16.074  0.00  0.00    +0.000 NA
ATOM     11  C   UNL     1       2.786   4.922  18.917  0.00  0.00    +0.000 C 
ATOM     12  C   UNL     1       1.351   4.755  18.403  0.00  0.00    +0.000 C 
ATOM     13  C   UNL     1       2.802   4.333  20.348  0.00  0.00    +0.000 C 
ATOM     14  O   UNL     1       2.491   5.019  21.324  0.00  0.00    +0.000 OA
ENDROOT
BRANCH   9  15
ATOM     15  C   UNL     1       6.352   4.068  14.025  0.00  0.00    +0.000 C 
ATOM     16  C   UNL     1       5.414   3.431  13.003  0.00  0.00    +0.000 C 
ATOM     17  C   UNL     1       6.341   3.061  11.849  0.00  0.00    +0.000 C 
ATOM     18  C   UNL     1       7.474   4.087  11.873  0.00  0.00    +0.000 C 
ATOM     19  C   UNL     1       7.285   4.909  13.143  0.00  0.00    +0.000 C 
ENDBRANCH   9  15
BRANCH   1  21
ATOM     20  C   UNL     1       1.183   2.331  22.039  0.00  0.00    +0.000 C 
ATOM     21  C   UNL     1       2.651   2.257  21.665  0.00  0.00    +0.000 C 
ENDBRANCH   1  21
TORSDOF 2
ENDMDL
MODEL 7
REMARK VINA RESULT:      -6.8      1.981      3.976
REMARK  Name = 
REMARK  4 active torsions:
REMARK  status: ('A' for Active; 'I' for Inactive)
REMARK    1  A    between atoms: C_1  and  C_2
REMARK    2  A    between atoms: C_2  and  N_3
REMARK    3  A    between atoms: C_11  and  C_12
REMARK    4  A    between atoms: C_18  and  C_19
REMARK                            x       y       z     vdW  Elec       q    Type
REMARK                         _______ _______ _______ _____ _____    ______ ____
ROOT
ATOM      1  N   UNL     1       1.794   3.214  19.947  0.00  0.00    +0.000 N 
ATOM      2  C   UNL     1       2.670   4.359  20.188  0.00  0.00    +0.000 C 
ATOM      3  C   UNL     1       4.052   4.209  19.542  0.00  0.00    +0.000 C 
ATOM      4  N   UNL     1       3.872   3.854  18.143  0.00  0.00    +0.000 N 
ATOM      5  C   UNL     1       4.709   4.369  17.185  0.00  0.00    +0.000 A 
ATOM      6  N   UNL     1       4.542   4.006  15.907  0.00  0.00    +0.000 NA
ATOM      7  C   UNL     1       5.327   4.587  14.979  0.00  0.00    +0.000 A 
ATOM      8  C   UNL     1       6.302   5.505  15.280  0.00  0.00    +0.000 A 
ATOM      9  C   UNL     1       6.441   5.811  16.613  0.00  0.00    +0.000 A 
ATOM     10  N   UNL     1       5.643   5.259  17.557  0.00  0.00    +0.000 NA
ATOM     11  C   UNL     1       3.022   2.691  17.841  0.00  0.00    +0.000 C 
ATOM     12  C   UNL     1       3.726   1.385  18.230  0.00  0.00    +0.000 C 
ATOM     13  C   UNL     1       1.698   2.722  18.640  0.00  0.00    +0.000 C 
ATOM     14  O   UNL     1       0.680   2.175  18.210  0.00  0.00    +0.000 OA
ENDROOT
BRANCH   9  15
ATOM     15  C   UNL     1       7.515   6.766  17.075  0.00  0.00    +0.000 C 
ATOM     16  C   UNL     1       7.100   8.235  17.075  0.00  0.00    +0.000 C 
ATOM     17  C   UNL     1       8.146   8.902  17.963  0.00  0.00    +0.000 C 
ATOM     18  C   UNL     1       8.580   7.841  18.973  0.00  0.00    +0.000 C 
ATOM     19  C   UNL     1       7.925   6.535  18.536  0.00  0.00    +0.000 C 
ENDBRANCH   9  15
BRANCH   1  21
ATOM     20  C   UNL     1       1.184   2.440  22.237  0.00  0.00    +0.000 C 
ATOM     21  C   UNL     1       0.715   2.948  20.887  0.00  0.00    +0.000 C 
ENDBRANCH   1  21
TORSDOF 2
ENDMDL
MODEL 8
REMARK VINA RESULT:      -6.6      5.455      7.821
REMARK  Name = 
REMARK  4 active torsions:
REMARK  status: ('A' for Active; 'I' for Inactive)
REMARK    1  A    between atoms: C_1  and  C_2
REMARK    2  A    between atoms: C_2  and  N_3
REMARK    3  A    between atoms: C_11  and  C_12
REMARK    4  A    between atoms: C_18  and  C_19
REMARK                            x       y       z     vdW  Elec       q    Type
REMARK                         _______ _______ _______ _____ _____    ______ ____
ROOT
ATOM      1  N   UNL     1      -1.019  11.950  22.263  0.00  0.00    +0.000 N 
ATOM      2  C   UNL     1      -0.406  10.683  22.658  0.00  0.00    +0.000 C 
ATOM      3  C   UNL     1      -0.382   9.646  21.530  0.00  0.00    +0.000 C 
ATOM      4  N   UNL     1       0.190  10.265  20.345  0.00  0.00    +0.000 N 
ATOM      5  C   UNL     1       1.017   9.546  19.519  0.00  0.00    +0.000 A 
ATOM      6  N   UNL     1       1.509  10.128  18.418  0.00  0.00    +0.000 NA
ATOM      7  C   UNL     1       2.379   9.424  17.668  0.00  0.00    +0.000 A 
ATOM      8  C   UNL     1       2.761   8.138  17.959  0.00  0.00    +0.000 A 
ATOM      9  C   UNL     1       2.196   7.589  19.086  0.00  0.00    +0.000 A 
ATOM     10  N   UNL     1       1.342   8.290  19.867  0.00  0.00    +0.000 NA
ATOM     11  C   UNL     1      -0.406  11.529  19.883  0.00  0.00    +0.000 C 
ATOM     12  C   UNL     1      -1.789  11.286  19.265  0.00  0.00    +0.000 C 
ATOM     13  C   UNL     1      -0.624  12.523  21.049  0.00  0.00    +0.000 C 
ATOM     14  O   UNL     1      -0.629  13.741  20.857  0.00  0.00    +0.000 OA
ENDROOT
BRANCH   9  15
ATOM     15  C   UNL     1       2.496   6.163  19.479  0.00  0.00    +0.000 C 
ATOM     16  C   UNL     1       1.693   5.652  20.672  0.00  0.00    +0.000 C 
ATOM     17  C   UNL     1       1.841   4.136  20.581  0.00  0.00    +0.000 C 
ATOM     18  C   UNL     1       2.003   3.817  19.095  0.00  0.00    +0.000 C 
ATOM     19  C   UNL     1       2.134   5.157  18.378  0.00  0.00    +0.000 C 
ENDBRANCH   9  15
BRANCH   1  21
ATOM     20  C   UNL     1      -3.093  12.627  23.469  0.00  0.00    +0.000 C 
ATOM     21  C   UNL     1      -1.597  12.799  23.295  0.00  0.00    +0.000 C 
ENDBRANCH   1  21
TORSDOF 2
ENDMDL
MODEL 9
REMARK VINA RESULT:      -6.6      4.486      7.066
REMARK  Name = 
REMARK  4 active torsions:
REMARK  status: ('A' for Active; 'I' for Inactive)
REMARK    1  A    between atoms: C_1  and  C_2
REMARK    2  A    between atoms: C_2  and  N_3
REMARK    3  A    between atoms: C_11  and  C_12
REMARK    4  A    between atoms: C_18  and  C_19
REMARK                            x       y       z     vdW  Elec       q    Type
REMARK                         _______ _______ _______ _____ _____    ______ ____
ROOT
ATOM      1  N   UNL     1      -0.258  10.945  21.920  0.00  0.00    +0.000 N 
ATOM      2  C   UNL     1       0.063   9.598  22.389  0.00  0.00    +0.000 C 
ATOM      3  C   UNL     1       0.051   8.550  21.271  0.00  0.00    +0.000 C 
ATOM      4  N   UNL     1       0.876   9.033  20.176  0.00  0.00    +0.000 N 
ATOM      5  C   UNL     1       1.663   8.162  19.466  0.00  0.00    +0.000 A 
ATOM      6  N   UNL     1       2.393   8.626  18.443  0.00  0.00    +0.000 NA
ATOM      7  C   UNL     1       3.215   7.763  17.814  0.00  0.00    +0.000 A 
ATOM      8  C   UNL     1       3.320   6.436  18.150  0.00  0.00    +0.000 A 
ATOM      9  C   UNL     1       2.522   6.020  19.188  0.00  0.00    +0.000 A 
ATOM     10  N   UNL     1       1.710   6.876  19.850  0.00  0.00    +0.000 NA
ATOM     11  C   UNL     1       0.581  10.373  19.643  0.00  0.00    +0.000 C 
ATOM     12  C   UNL     1      -0.728  10.366  18.843  0.00  0.00    +0.000 C 
ATOM     13  C   UNL     1       0.391  11.414  20.772  0.00  0.00    +0.000 C 
ATOM     14  O   UNL     1       0.628  12.609  20.584  0.00  0.00    +0.000 OA
ENDROOT
BRANCH   9  15
ATOM     15  C   UNL     1       2.509   4.571  19.614  0.00  0.00    +0.000 C 
ATOM     16  C   UNL     1       3.880   3.902  19.629  0.00  0.00    +0.000 C 
ATOM     17  C   UNL     1       3.661   2.656  20.482  0.00  0.00    +0.000 C 
ATOM     18  C   UNL     1       2.556   3.014  21.476  0.00  0.00    +0.000 C 
ATOM     19  C   UNL     1       2.029   4.384  21.060  0.00  0.00    +0.000 C 
ENDBRANCH   9  15
BRANCH   1  21
ATOM     20  C   UNL     1      -2.271  12.225  22.643  0.00  0.00    +0.000 C 
ATOM     21  C   UNL     1      -0.806  11.904  22.868  0.00  0.00    +0.000 C 
ENDBRANCH   1  21
TORSDOF 2
ENDMDL
