MODEL 1
REMARK VINA RESULT:      -7.6      0.000      0.000
REMARK  Name = 
REMARK  9 active torsions:
REMARK  status: ('A' for Active; 'I' for Inactive)
REMARK    1  A    between atoms: C_1  and  O_2
REMARK    2  A    between atoms: O_2  and  C_3
REMARK    3  A    between atoms: C_6  and  C_7
REMARK    4  A    between atoms: C_7  and  C_9
REMARK    5  A    between atoms: C_9  and  C_10
REMARK    6  A    between atoms: C_10  and  C_11
REMARK    7  A    between atoms: C_15  and  O_16
REMARK    8  A    between atoms: O_16  and  C_17
REMARK    9  A    between atoms: C_17  and  C_18
REMARK                            x       y       z     vdW  Elec       q    Type
REMARK                         _______ _______ _______ _____ _____    ______ ____
ROOT
ATOM      1  C   UNL     1       2.979   2.243  18.710  0.00  0.00    +0.000 C 
ATOM      2  O   UNL     1       3.928   1.476  18.864  0.00  0.00    +0.000 OA
ATOM      3  N   UNL     1       2.139   2.601  19.743  0.00  0.00    +0.000 N 
ATOM      4  C   UNL     1       1.012   3.521  19.741  0.00  0.00    +0.000 C 
ATOM      5  C   UNL     1       1.685   4.261  20.906  0.00  0.00    +0.000 C 
ATOM      6  C   UNL     1       2.606   3.029  21.065  0.00  0.00    +0.000 C 
ENDROOT
BRANCH   1   7
ATOM      7  C   UNL     1       2.665   2.903  17.383  0.00  0.00    +0.000 C 
BRANCH   7   8
ATOM      8  C   UNL     1       3.303   4.278  17.250  0.00  0.00    +0.000 C 
BRANCH   8   9
ATOM      9  C   UNL     1       4.734   4.179  16.747  0.00  0.00    +0.000 C 
ATOM     10  O   UNL     1       5.078   3.334  15.922  0.00  0.00    +0.000 OA
BRANCH   9  14
ATOM     11  C   UNL     1       7.641   6.987  18.239  0.00  0.00    +0.000 A 
ATOM     12  C   UNL     1       6.713   7.367  17.266  0.00  0.00    +0.000 A 
ATOM     13  C   UNL     1       5.762   6.453  16.799  0.00  0.00    +0.000 A 
ATOM     14  C   UNL     1       5.747   5.139  17.282  0.00  0.00    +0.000 A 
ATOM     15  C   UNL     1       6.684   4.760  18.247  0.00  0.00    +0.000 A 
ATOM     16  C   UNL     1       7.626   5.678  18.720  0.00  0.00    +0.000 A 
BRANCH  11  18
ATOM     17  C   UNL     1       8.311   9.244  18.054  0.00  0.00    +0.000 C 
ATOM     18  O   UNL     1       8.537   7.951  18.611  0.00  0.00    +0.000 OA
ENDBRANCH  11  18
ENDBRANCH   9  14
ENDBRANCH   8   9
ENDBRANCH   7   8
ENDBRANCH   1   7
BRANCH   5  19
ATOM     19  O   UNL     1       2.340   5.515  20.586  0.00  0.00    +0.000 OA
BRANCH  19  20
ATOM     20  C   UNL     1       1.666   6.698  21.010  0.00  0.00    +0.000 C 
BRANCH  20  21
ATOM     21  C   UNL     1       1.733   7.716  19.907  0.00  0.00    +0.000 A 
ATOM     22  C   UNL     1       2.467   7.452  18.740  0.00  0.00    +0.000 A 
ATOM     23  C   UNL     1       2.548   8.406  17.725  0.00  0.00    +0.000 A 
ATOM     24  C   UNL     1       1.902   9.632  17.873  0.00  0.00    +0.000 A 
ATOM     25  C   UNL     1       1.173   9.905  19.031  0.00  0.00    +0.000 A 
ATOM     26  C   UNL     1       1.093   8.952  20.047  0.00  0.00    +0.000 A 
ENDBRANCH  20  21
ENDBRANCH  19  20
ENDBRANCH   5  19
TORSDOF 8
ENDMDL
MODEL 2
REMARK VINA RESULT:      -7.5      1.766      5.427
REMARK  Name = 
REMARK  9 active torsions:
REMARK  status: ('A' for Active; 'I' for Inactive)
REMARK    1  A    between atoms: C_1  and  O_2
REMARK    2  A    between atoms: O_2  and  C_3
REMARK    3  A    between atoms: C_6  and  C_7
REMARK    4  A    between atoms: C_7  and  C_9
REMARK    5  A    between atoms: C_9  and  C_10
REMARK    6  A    between atoms: C_10  and  C_11
REMARK    7  A    between atoms: C_15  and  O_16
REMARK    8  A    between atoms: O_16  and  C_17
REMARK    9  A    between atoms: C_17  and  C_18
REMARK                            x       y       z     vdW  Elec       q    Type
REMARK                         _______ _______ _______ _____ _____    ______ ____
ROOT
ATOM      1  C   UNL     1       1.704   2.940  20.266  0.00  0.00    +0.000 C 
ATOM      2  O   UNL     1       0.513   2.632  20.287  0.00  0.00    +0.000 OA
ATOM      3  N   UNL     1       2.627   2.279  19.484  0.00  0.00    +0.000 N 
ATOM      4  C   UNL     1       4.047   2.543  19.309  0.00  0.00    +0.000 C 
ATOM      5  C   UNL     1       3.792   2.609  17.796  0.00  0.00    +0.000 C 
ATOM      6  C   UNL     1       2.418   1.954  18.070  0.00  0.00    +0.000 C 
ENDROOT
BRANCH   1   7
ATOM      7  C   UNL     1       2.266   4.101  21.060  0.00  0.00    +0.000 C 
BRANCH   7   8
ATOM      8  C   UNL     1       1.592   5.423  20.717  0.00  0.00    +0.000 C 
BRANCH   8   9
ATOM      9  C   UNL     1       2.509   6.315  19.898  0.00  0.00    +0.000 C 
ATOM     10  O   UNL     1       3.613   5.937  19.510  0.00  0.00    +0.000 OA
BRANCH   9  14
ATOM     11  C   UNL     1       1.216  10.298  18.880  0.00  0.00    +0.000 A 
ATOM     12  C   UNL     1       1.934   9.524  17.966  0.00  0.00    +0.000 A 
ATOM     13  C   UNL     1       2.336   8.225  18.299  0.00  0.00    +0.000 A 
ATOM     14  C   UNL     1       2.046   7.697  19.562  0.00  0.00    +0.000 A 
ATOM     15  C   UNL     1       1.337   8.479  20.479  0.00  0.00    +0.000 A 
ATOM     16  C   UNL     1       0.927   9.772  20.140  0.00  0.00    +0.000 A 
BRANCH  11  18
ATOM     17  C   UNL     1       1.969  12.487  18.418  0.00  0.00    +0.000 C 
ATOM     18  O   UNL     1       0.890  11.558  18.461  0.00  0.00    +0.000 OA
ENDBRANCH  11  18
ENDBRANCH   9  14
ENDBRANCH   8   9
ENDBRANCH   7   8
ENDBRANCH   1   7
BRANCH   5  19
ATOM     19  O   UNL     1       3.766   3.931  17.200  0.00  0.00    +0.000 OA
BRANCH  19  20
ATOM     20  C   UNL     1       4.829   4.230  16.297  0.00  0.00    +0.000 C 
BRANCH  20  21
ATOM     21  C   UNL     1       5.805   5.143  16.983  0.00  0.00    +0.000 A 
ATOM     22  C   UNL     1       5.824   6.514  16.686  0.00  0.00    +0.000 A 
ATOM     23  C   UNL     1       6.745   7.360  17.307  0.00  0.00    +0.000 A 
ATOM     24  C   UNL     1       7.656   6.837  18.224  0.00  0.00    +0.000 A 
ATOM     25  C   UNL     1       7.647   5.475  18.522  0.00  0.00    +0.000 A 
ATOM     26  C   UNL     1       6.728   4.629  17.901  0.00  0.00    +0.000 A 
ENDBRANCH  20  21
ENDBRANCH  19  20
ENDBRANCH   5  19
TORSDOF 8
ENDMDL
MODEL 3
REMARK VINA RESULT:      -6.9      2.191      6.290
REMARK  Name = 
REMARK  9 active torsions:
REMARK  status: ('A' for Active; 'I' for Inactive)
REMARK    1  A    between atoms: C_1  and  O_2
REMARK    2  A    between atoms: O_2  and  C_3
REMARK    3  A    between atoms: C_6  and  C_7
REMARK    4  A    between atoms: C_7  and  C_9
REMARK    5  A    between atoms: C_9  and  C_10
REMARK    6  A    between atoms: C_10  and  C_11
REMARK    7  A    between atoms: C_15  and  O_16
REMARK    8  A    between atoms: O_16  and  C_17
REMARK    9  A    between atoms: C_17  and  C_18
REMARK                            x       y       z     vdW  Elec       q    Type
REMARK                         _______ _______ _______ _____ _____    ______ ____
ROOT
ATOM      1  C   UNL     1       6.009   6.642  16.695  0.00  0.00    +0.000 C 
ATOM      2  O   UNL     1       6.997   7.374  16.666  0.00  0.00    +0.000 OA
ATOM      3  N   UNL     1       6.101   5.268  16.630  0.00  0.00    +0.000 N 
ATOM      4  C   UNL     1       5.047   4.267  16.697  0.00  0.00    +0.000 C 
ATOM      5  C   UNL     1       5.824   3.607  17.846  0.00  0.00    +0.000 C 
ATOM      6  C   UNL     1       7.036   4.472  17.430  0.00  0.00    +0.000 C 
ENDROOT
BRANCH   1   7
ATOM      7  C   UNL     1       4.599   7.173  16.850  0.00  0.00    +0.000 C 
BRANCH   7   8
ATOM      8  C   UNL     1       4.158   7.244  18.306  0.00  0.00    +0.000 C 
BRANCH   8   9
ATOM      9  C   UNL     1       2.665   6.999  18.446  0.00  0.00    +0.000 C 
ATOM     10  O   UNL     1       2.107   6.045  17.906  0.00  0.00    +0.000 OA
BRANCH   9  14
ATOM     11  C   UNL     1       0.333   9.715  20.844  0.00  0.00    +0.000 A 
ATOM     12  C   UNL     1       0.853   8.541  21.394  0.00  0.00    +0.000 A 
ATOM     13  C   UNL     1       1.623   7.673  20.612  0.00  0.00    +0.000 A 
ATOM     14  C   UNL     1       1.859   7.957  19.262  0.00  0.00    +0.000 A 
ATOM     15  C   UNL     1       1.327   9.127  18.712  0.00  0.00    +0.000 A 
ATOM     16  C   UNL     1       0.567   9.999  19.498  0.00  0.00    +0.000 A 
BRANCH  11  18
ATOM     17  C   UNL     1      -0.506  10.009  23.031  0.00  0.00    +0.000 C 
ATOM     18  O   UNL     1      -0.420  10.482  21.689  0.00  0.00    +0.000 OA
ENDBRANCH  11  18
ENDBRANCH   9  14
ENDBRANCH   8   9
ENDBRANCH   7   8
ENDBRANCH   1   7
BRANCH   5  19
ATOM     19  O   UNL     1       5.310   3.822  19.185  0.00  0.00    +0.000 OA
BRANCH  19  20
ATOM     20  C   UNL     1       4.661   2.707  19.792  0.00  0.00    +0.000 C 
BRANCH  20  21
ATOM     21  C   UNL     1       3.176   2.929  19.751  0.00  0.00    +0.000 A 
ATOM     22  C   UNL     1       2.567   3.824  20.644  0.00  0.00    +0.000 A 
ATOM     23  C   UNL     1       1.184   4.015  20.621  0.00  0.00    +0.000 A 
ATOM     24  C   UNL     1       0.403   3.307  19.711  0.00  0.00    +0.000 A 
ATOM     25  C   UNL     1       0.999   2.412  18.822  0.00  0.00    +0.000 A 
ATOM     26  C   UNL     1       2.381   2.220  18.845  0.00  0.00    +0.000 A 
ENDBRANCH  20  21
ENDBRANCH  19  20
ENDBRANCH   5  19
TORSDOF 8
ENDMDL
MODEL 4
REMARK VINA RESULT:      -6.8      1.932      5.805
REMARK  Name = 
REMARK  9 active torsions:
REMARK  status: ('A' for Active; 'I' for Inactive)
REMARK    1  A    between atoms: C_1  and  O_2
REMARK    2  A    between atoms: O_2  and  C_3
REMARK    3  A    between atoms: C_6  and  C_7
REMARK    4  A    between atoms: C_7  and  C_9
REMARK    5  A    between atoms: C_9  and  C_10
REMARK    6  A    between atoms: C_10  and  C_11
REMARK    7  A    between atoms: C_15  and  O_16
REMARK    8  A    between atoms: O_16  and  C_17
REMARK    9  A    between atoms: C_17  and  C_18
REMARK                            x       y       z     vdW  Elec       q    Type
REMARK                         _______ _______ _______ _____ _____    ______ ____
ROOT
ATOM      1  C   UNL     1       1.898   3.807  20.038  0.00  0.00    +0.000 C 
ATOM      2  O   UNL     1       0.672   3.710  20.064  0.00  0.00    +0.000 OA
ATOM      3  N   UNL     1       2.704   2.876  19.419  0.00  0.00    +0.000 N 
ATOM      4  C   UNL     1       4.149   2.865  19.259  0.00  0.00    +0.000 C 
ATOM      5  C   UNL     1       3.925   2.704  17.748  0.00  0.00    +0.000 C 
ATOM      6  C   UNL     1       2.458   2.345  18.075  0.00  0.00    +0.000 C 
ENDROOT
BRANCH   1   7
ATOM      7  C   UNL     1       2.640   4.981  20.643  0.00  0.00    +0.000 C 
BRANCH   7   8
ATOM      8  C   UNL     1       1.870   6.288  20.513  0.00  0.00    +0.000 C 
BRANCH   8   9
ATOM      9  C   UNL     1       2.361   7.107  19.331  0.00  0.00    +0.000 C 
ATOM     10  O   UNL     1       3.160   6.656  18.512  0.00  0.00    +0.000 OA
BRANCH   9  14
ATOM     11  C   UNL     1       0.866  11.127  18.925  0.00  0.00    +0.000 A 
ATOM     12  C   UNL     1       0.624  10.388  20.085  0.00  0.00    +0.000 A 
ATOM     13  C   UNL     1       1.127   9.088  20.215  0.00  0.00    +0.000 A 
ATOM     14  C   UNL     1       1.856   8.505  19.173  0.00  0.00    +0.000 A 
ATOM     15  C   UNL     1       2.087   9.244  18.009  0.00  0.00    +0.000 A 
ATOM     16  C   UNL     1       1.593  10.546  17.886  0.00  0.00    +0.000 A 
BRANCH  11  18
ATOM     17  C   UNL     1       1.034  13.383  19.603  0.00  0.00    +0.000 C 
ATOM     18  O   UNL     1       0.313  12.378  18.894  0.00  0.00    +0.000 OA
ENDBRANCH  11  18
ENDBRANCH   9  14
ENDBRANCH   8   9
ENDBRANCH   7   8
ENDBRANCH   1   7
BRANCH   5  19
ATOM     19  O   UNL     1       4.131   3.886  16.933  0.00  0.00    +0.000 OA
BRANCH  19  20
ATOM     20  C   UNL     1       5.389   3.974  16.267  0.00  0.00    +0.000 C 
BRANCH  20  21
ATOM     21  C   UNL     1       6.223   5.025  16.943  0.00  0.00    +0.000 A 
ATOM     22  C   UNL     1       7.182   4.663  17.902  0.00  0.00    +0.000 A 
ATOM     23  C   UNL     1       7.942   5.640  18.546  0.00  0.00    +0.000 A 
ATOM     24  C   UNL     1       7.743   6.985  18.241  0.00  0.00    +0.000 A 
ATOM     25  C   UNL     1       6.790   7.355  17.292  0.00  0.00    +0.000 A 
ATOM     26  C   UNL     1       6.029   6.378  16.648  0.00  0.00    +0.000 A 
ENDBRANCH  20  21
ENDBRANCH  19  20
ENDBRANCH   5  19
TORSDOF 8
ENDMDL
MODEL 5
REMARK VINA RESULT:      -6.8      3.429      6.624
REMARK  Name = 
REMARK  9 active torsions:
REMARK  status: ('A' for Active; 'I' for Inactive)
REMARK    1  A    between atoms: C_1  and  O_2
REMARK    2  A    between atoms: O_2  and  C_3
REMARK    3  A    between atoms: C_6  and  C_7
REMARK    4  A    between atoms: C_7  and  C_9
REMARK    5  A    between atoms: C_9  and  C_10
REMARK    6  A    between atoms: C_10  and  C_11
REMARK    7  A    between atoms: C_15  and  O_16
REMARK    8  A    between atoms: O_16  and  C_17
REMARK    9  A    between atoms: C_17  and  C_18
REMARK                            x       y       z     vdW  Elec       q    Type
REMARK                         _______ _______ _______ _____ _____    ______ ____
ROOT
ATOM      1  C   UNL     1       7.607   7.177  18.077  0.00  0.00    +0.000 C 
ATOM      2  O   UNL     1       8.489   6.790  18.841  0.00  0.00    +0.000 OA
ATOM      3  N   UNL     1       6.752   6.310  17.431  0.00  0.00    +0.000 N 
ATOM      4  C   UNL     1       5.638   6.602  16.541  0.00  0.00    +0.000 C 
ATOM      5  C   UNL     1       4.752   5.749  17.460  0.00  0.00    +0.000 C 
ATOM      6  C   UNL     1       6.054   5.205  18.093  0.00  0.00    +0.000 C 
ENDROOT
BRANCH   1   7
ATOM      7  C   UNL     1       7.343   8.644  17.804  0.00  0.00    +0.000 C 
BRANCH   7   8
ATOM      8  C   UNL     1       8.603   9.399  17.403  0.00  0.00    +0.000 C 
BRANCH   8   9
ATOM      9  C   UNL     1       9.120  10.259  18.543  0.00  0.00    +0.000 C 
ATOM     10  O   UNL     1       8.943   9.957  19.722  0.00  0.00    +0.000 OA
BRANCH   9  14
ATOM     11  C   UNL     1      11.197  13.904  17.562  0.00  0.00    +0.000 A 
ATOM     12  C   UNL     1       9.802  13.864  17.599  0.00  0.00    +0.000 A 
ATOM     13  C   UNL     1       9.136  12.680  17.934  0.00  0.00    +0.000 A 
ATOM     14  C   UNL     1       9.860  11.515  18.211  0.00  0.00    +0.000 A 
ATOM     15  C   UNL     1      11.257  11.557  18.161  0.00  0.00    +0.000 A 
ATOM     16  C   UNL     1      11.920  12.743  17.837  0.00  0.00    +0.000 A 
BRANCH  11  18
ATOM     17  C   UNL     1      10.821  16.089  16.750  0.00  0.00    +0.000 C 
ATOM     18  O   UNL     1      11.746  15.105  17.204  0.00  0.00    +0.000 OA
ENDBRANCH  11  18
ENDBRANCH   9  14
ENDBRANCH   8   9
ENDBRANCH   7   8
ENDBRANCH   1   7
BRANCH   5  19
ATOM     19  O   UNL     1       3.858   6.467  18.348  0.00  0.00    +0.000 OA
BRANCH  19  20
ATOM     20  C   UNL     1       2.464   6.321  18.082  0.00  0.00    +0.000 C 
BRANCH  20  21
ATOM     21  C   UNL     1       1.958   5.104  18.802  0.00  0.00    +0.000 A 
ATOM     22  C   UNL     1       1.969   5.051  20.204  0.00  0.00    +0.000 A 
ATOM     23  C   UNL     1       1.519   3.912  20.873  0.00  0.00    +0.000 A 
ATOM     24  C   UNL     1       1.062   2.816  20.144  0.00  0.00    +0.000 A 
ATOM     25  C   UNL     1       1.050   2.857  18.749  0.00  0.00    +0.000 A 
ATOM     26  C   UNL     1       1.501   3.996  18.080  0.00  0.00    +0.000 A 
ENDBRANCH  20  21
ENDBRANCH  19  20
ENDBRANCH   5  19
TORSDOF 8
ENDMDL
MODEL 6
REMARK VINA RESULT:      -6.8      0.918      1.647
REMARK  Name = 
REMARK  9 active torsions:
REMARK  status: ('A' for Active; 'I' for Inactive)
REMARK    1  A    between atoms: C_1  and  O_2
REMARK    2  A    between atoms: O_2  and  C_3
REMARK    3  A    between atoms: C_6  and  C_7
REMARK    4  A    between atoms: C_7  and  C_9
REMARK    5  A    between atoms: C_9  and  C_10
REMARK    6  A    between atoms: C_10  and  C_11
REMARK    7  A    between atoms: C_15  and  O_16
REMARK    8  A    between atoms: O_16  and  C_17
REMARK    9  A    between atoms: C_17  and  C_18
REMARK                            x       y       z     vdW  Elec       q    Type
REMARK                         _______ _______ _______ _____ _____    ______ ____
ROOT
ATOM      1  C   UNL     1       3.930   3.044  19.082  0.00  0.00    +0.000 C 
ATOM      2  O   UNL     1       5.061   2.958  19.559  0.00  0.00    +0.000 OA
ATOM      3  N   UNL     1       2.801   2.670  19.777  0.00  0.00    +0.000 N 
ATOM      4  C   UNL     1       1.403   2.749  19.382  0.00  0.00    +0.000 C 
ATOM      5  C   UNL     1       1.139   3.536  20.674  0.00  0.00    +0.000 C 
ATOM      6  C   UNL     1       2.527   3.061  21.163  0.00  0.00    +0.000 C 
ENDROOT
BRANCH   1   7
ATOM      7  C   UNL     1       3.663   3.609  17.701  0.00  0.00    +0.000 C 
BRANCH   7   8
ATOM      8  C   UNL     1       4.578   3.014  16.640  0.00  0.00    +0.000 C 
BRANCH   8   9
ATOM      9  C   UNL     1       5.271   4.100  15.834  0.00  0.00    +0.000 C 
ATOM     10  O   UNL     1       5.198   4.150  14.607  0.00  0.00    +0.000 OA
BRANCH   9  14
ATOM     11  C   UNL     1       7.598   7.025  17.978  0.00  0.00    +0.000 A 
ATOM     12  C   UNL     1       7.881   5.663  18.092  0.00  0.00    +0.000 A 
ATOM     13  C   UNL     1       7.131   4.721  17.379  0.00  0.00    +0.000 A 
ATOM     14  C   UNL     1       6.069   5.131  16.565  0.00  0.00    +0.000 A 
ATOM     15  C   UNL     1       5.782   6.496  16.462  0.00  0.00    +0.000 A 
ATOM     16  C   UNL     1       6.539   7.435  17.166  0.00  0.00    +0.000 A 
BRANCH  11  18
ATOM     17  C   UNL     1       8.475   9.199  18.259  0.00  0.00    +0.000 C 
ATOM     18  O   UNL     1       8.379   7.858  18.731  0.00  0.00    +0.000 OA
ENDBRANCH  11  18
ENDBRANCH   9  14
ENDBRANCH   8   9
ENDBRANCH   7   8
ENDBRANCH   1   7
BRANCH   5  19
ATOM     19  O   UNL     1       0.962   4.969  20.537  0.00  0.00    +0.000 OA
BRANCH  19  20
ATOM     20  C   UNL     1       2.119   5.767  20.778  0.00  0.00    +0.000 C 
BRANCH  20  21
ATOM     21  C   UNL     1       2.082   6.962  19.868  0.00  0.00    +0.000 A 
ATOM     22  C   UNL     1       1.414   8.132  20.259  0.00  0.00    +0.000 A 
ATOM     23  C   UNL     1       1.360   9.235  19.406  0.00  0.00    +0.000 A 
ATOM     24  C   UNL     1       1.968   9.172  18.154  0.00  0.00    +0.000 A 
ATOM     25  C   UNL     1       2.632   8.012  17.754  0.00  0.00    +0.000 A 
ATOM     26  C   UNL     1       2.685   6.908  18.607  0.00  0.00    +0.000 A 
ENDBRANCH  20  21
ENDBRANCH  19  20
ENDBRANCH   5  19
TORSDOF 8
ENDMDL
MODEL 7
REMARK VINA RESULT:      -6.8      1.847      5.577
REMARK  Name = 
REMARK  9 active torsions:
REMARK  status: ('A' for Active; 'I' for Inactive)
REMARK    1  A    between atoms: C_1  and  O_2
REMARK    2  A    between atoms: O_2  and  C_3
REMARK    3  A    between atoms: C_6  and  C_7
REMARK    4  A    between atoms: C_7  and  C_9
REMARK    5  A    between atoms: C_9  and  C_10
REMARK    6  A    between atoms: C_10  and  C_11
REMARK    7  A    between atoms: C_15  and  O_16
REMARK    8  A    between atoms: O_16  and  C_17
REMARK    9  A    between atoms: C_17  and  C_18
REMARK                            x       y       z     vdW  Elec       q    Type
REMARK                         _______ _______ _______ _____ _____    ______ ____
ROOT
ATOM      1  C   UNL     1       1.904   2.877  20.327  0.00  0.00    +0.000 C 
ATOM      2  O   UNL     1       0.853   2.248  20.439  0.00  0.00    +0.000 OA
ATOM      3  N   UNL     1       3.042   2.330  19.775  0.00  0.00    +0.000 N 
ATOM      4  C   UNL     1       4.338   2.943  19.530  0.00  0.00    +0.000 C 
ATOM      5  C   UNL     1       4.208   2.501  18.065  0.00  0.00    +0.000 C 
ATOM      6  C   UNL     1       3.058   1.572  18.520  0.00  0.00    +0.000 C 
ENDROOT
BRANCH   1   7
ATOM      7  C   UNL     1       2.040   4.328  20.743  0.00  0.00    +0.000 C 
BRANCH   7   8
ATOM      8  C   UNL     1       1.607   5.292  19.648  0.00  0.00    +0.000 C 
BRANCH   8   9
ATOM      9  C   UNL     1       2.569   6.463  19.528  0.00  0.00    +0.000 C 
ATOM     10  O   UNL     1       3.788   6.308  19.523  0.00  0.00    +0.000 OA
BRANCH   9  14
ATOM     11  C   UNL     1       0.973  10.448  19.163  0.00  0.00    +0.000 A 
ATOM     12  C   UNL     1       1.614   9.834  18.086  0.00  0.00    +0.000 A 
ATOM     13  C   UNL     1       2.115   8.533  18.209  0.00  0.00    +0.000 A 
ATOM     14  C   UNL     1       2.003   7.842  19.421  0.00  0.00    +0.000 A 
ATOM     15  C   UNL     1       1.370   8.466  20.500  0.00  0.00    +0.000 A 
ATOM     16  C   UNL     1       0.861   9.761  20.372  0.00  0.00    +0.000 A 
BRANCH  11  18
ATOM     17  C   UNL     1      -0.824  11.848  18.541  0.00  0.00    +0.000 C 
ATOM     18  O   UNL     1       0.538  11.726  18.943  0.00  0.00    +0.000 OA
ENDBRANCH  11  18
ENDBRANCH   9  14
ENDBRANCH   8   9
ENDBRANCH   7   8
ENDBRANCH   1   7
BRANCH   5  19
ATOM     19  O   UNL     1       3.859   3.531  17.105  0.00  0.00    +0.000 OA
BRANCH  19  20
ATOM     20  C   UNL     1       4.870   3.871  16.158  0.00  0.00    +0.000 C 
BRANCH  20  21
ATOM     21  C   UNL     1       5.769   4.912  16.762  0.00  0.00    +0.000 A 
ATOM     22  C   UNL     1       6.899   4.532  17.503  0.00  0.00    +0.000 A 
ATOM     23  C   UNL     1       7.722   5.498  18.083  0.00  0.00    +0.000 A 
ATOM     24  C   UNL     1       7.418   6.849  17.930  0.00  0.00    +0.000 A 
ATOM     25  C   UNL     1       6.296   7.237  17.198  0.00  0.00    +0.000 A 
ATOM     26  C   UNL     1       5.471   6.271  16.619  0.00  0.00    +0.000 A 
ENDBRANCH  20  21
ENDBRANCH  19  20
ENDBRANCH   5  19
TORSDOF 8
ENDMDL
MODEL 8
REMARK VINA RESULT:      -6.7      2.829      6.061
REMARK  Name = 
REMARK  9 active torsions:
REMARK  status: ('A' for Active; 'I' for Inactive)
REMARK    1  A    between atoms: C_1  and  O_2
REMARK    2  A    between atoms: O_2  and  C_3
REMARK    3  A    between atoms: C_6  and  C_7
REMARK    4  A    between atoms: C_7  and  C_9
REMARK    5  A    between atoms: C_9  and  C_10
REMARK    6  A    between atoms: C_10  and  C_11
REMARK    7  A    between atoms: C_15  and  O_16
REMARK    8  A    between atoms: O_16  and  C_17
REMARK    9  A    between atoms: C_17  and  C_18
REMARK                            x       y       z     vdW  Elec       q    Type
REMARK                         _______ _______ _______ _____ _____    ______ ____
ROOT
ATOM      1  C   UNL     1       6.972   6.350  16.783  0.00  0.00    +0.000 C 
ATOM      2  O   UNL     1       7.850   6.301  15.923  0.00  0.00    +0.000 OA
ATOM      3  N   UNL     1       5.649   6.079  16.509  0.00  0.00    +0.000 N 
ATOM      4  C   UNL     1       4.506   6.048  17.408  0.00  0.00    +0.000 C 
ATOM      5  C   UNL     1       4.219   4.625  16.905  0.00  0.00    +0.000 C 
ATOM      6  C   UNL     1       5.195   4.916  15.741  0.00  0.00    +0.000 C 
ENDROOT
BRANCH   1   7
ATOM      7  C   UNL     1       7.263   6.669  18.235  0.00  0.00    +0.000 C 
BRANCH   7   8
ATOM      8  C   UNL     1       8.418   7.648  18.398  0.00  0.00    +0.000 C 
BRANCH   8   9
ATOM      9  C   UNL     1       8.015   9.054  17.986  0.00  0.00    +0.000 C 
ATOM     10  O   UNL     1       7.068   9.267  17.230  0.00  0.00    +0.000 OA
BRANCH   9  14
ATOM     11  C   UNL     1      10.292  12.403  19.456  0.00  0.00    +0.000 A 
ATOM     12  C   UNL     1       9.663  12.458  18.210  0.00  0.00    +0.000 A 
ATOM     13  C   UNL     1       8.912  11.371  17.748  0.00  0.00    +0.000 A 
ATOM     14  C   UNL     1       8.805  10.207  18.517  0.00  0.00    +0.000 A 
ATOM     15  C   UNL     1       9.445  10.152  19.758  0.00  0.00    +0.000 A 
ATOM     16  C   UNL     1      10.185  11.243  20.223  0.00  0.00    +0.000 A 
BRANCH  11  18
ATOM     17  C   UNL     1      12.015  13.906  18.868  0.00  0.00    +0.000 C 
ATOM     18  O   UNL     1      11.015  13.511  19.803  0.00  0.00    +0.000 OA
ENDBRANCH  11  18
ENDBRANCH   9  14
ENDBRANCH   8   9
ENDBRANCH   7   8
ENDBRANCH   1   7
BRANCH   5  19
ATOM     19  O   UNL     1       4.584   3.537  17.792  0.00  0.00    +0.000 OA
BRANCH  19  20
ATOM     20  C   UNL     1       3.656   2.457  17.869  0.00  0.00    +0.000 C 
BRANCH  20  21
ATOM     21  C   UNL     1       2.827   2.617  19.111  0.00  0.00    +0.000 A 
ATOM     22  C   UNL     1       1.463   2.935  19.019  0.00  0.00    +0.000 A 
ATOM     23  C   UNL     1       0.697   3.106  20.174  0.00  0.00    +0.000 A 
ATOM     24  C   UNL     1       1.292   2.966  21.426  0.00  0.00    +0.000 A 
ATOM     25  C   UNL     1       2.648   2.654  21.528  0.00  0.00    +0.000 A 
ATOM     26  C   UNL     1       3.415   2.485  20.374  0.00  0.00    +0.000 A 
ENDBRANCH  20  21
ENDBRANCH  19  20
ENDBRANCH   5  19
TORSDOF 8
ENDMDL
MODEL 9
REMARK VINA RESULT:      -6.7      2.228      6.198
REMARK  Name = 
REMARK  9 active torsions:
REMARK  status: ('A' for Active; 'I' for Inactive)
REMARK    1  A    between atoms: C_1  and  O_2
REMARK    2  A    between atoms: O_2  and  C_3
REMARK    3  A    between atoms: C_6  and  C_7
REMARK    4  A    between atoms: C_7  and  C_9
REMARK    5  A    between atoms: C_9  and  C_10
REMARK    6  A    between atoms: C_10  and  C_11
REMARK    7  A    between atoms: C_15  and  O_16
REMARK    8  A    between atoms: O_16  and  C_17
REMARK    9  A    between atoms: C_17  and  C_18
REMARK                            x       y       z     vdW  Elec       q    Type
REMARK                         _______ _______ _______ _____ _____    ______ ____
ROOT
ATOM      1  C   UNL     1       5.675   6.559  16.555  0.00  0.00    +0.000 C 
ATOM      2  O   UNL     1       6.655   7.287  16.412  0.00  0.00    +0.000 OA
ATOM      3  N   UNL     1       5.752   5.185  16.473  0.00  0.00    +0.000 N 
ATOM      4  C   UNL     1       4.710   4.187  16.660  0.00  0.00    +0.000 C 
ATOM      5  C   UNL     1       5.615   3.519  17.706  0.00  0.00    +0.000 C 
ATOM      6  C   UNL     1       6.773   4.382  17.153  0.00  0.00    +0.000 C 
ENDROOT
BRANCH   1   7
ATOM      7  C   UNL     1       4.295   7.094  16.878  0.00  0.00    +0.000 C 
BRANCH   7   8
ATOM      8  C   UNL     1       3.975   7.026  18.365  0.00  0.00    +0.000 C 
BRANCH   8   9
ATOM      9  C   UNL     1       2.478   6.939  18.606  0.00  0.00    +0.000 C 
ATOM     10  O   UNL     1       1.776   6.091  18.058  0.00  0.00    +0.000 OA
BRANCH   9  14
ATOM     11  C   UNL     1       0.669   9.826  21.244  0.00  0.00    +0.000 A 
ATOM     12  C   UNL     1       0.867  10.117  19.893  0.00  0.00    +0.000 A 
ATOM     13  C   UNL     1       1.440   9.167  19.040  0.00  0.00    +0.000 A 
ATOM     14  C   UNL     1       1.847   7.924  19.537  0.00  0.00    +0.000 A 
ATOM     15  C   UNL     1       1.658   7.641  20.893  0.00  0.00    +0.000 A 
ATOM     16  C   UNL     1       1.075   8.587  21.741  0.00  0.00    +0.000 A 
BRANCH  11  18
ATOM     17  C   UNL     1      -0.786  10.410  23.009  0.00  0.00    +0.000 C 
ATOM     18  O   UNL     1       0.120  10.830  21.993  0.00  0.00    +0.000 OA
ENDBRANCH  11  18
ENDBRANCH   9  14
ENDBRANCH   8   9
ENDBRANCH   7   8
ENDBRANCH   1   7
BRANCH   5  19
ATOM     19  O   UNL     1       5.264   3.730  19.097  0.00  0.00    +0.000 OA
BRANCH  19  20
ATOM     20  C   UNL     1       4.616   2.640  19.750  0.00  0.00    +0.000 C 
BRANCH  20  21
ATOM     21  C   UNL     1       3.135   2.892  19.761  0.00  0.00    +0.000 A 
ATOM     22  C   UNL     1       2.568   3.752  20.714  0.00  0.00    +0.000 A 
ATOM     23  C   UNL     1       1.190   3.970  20.738  0.00  0.00    +0.000 A 
ATOM     24  C   UNL     1       0.370   3.324  19.815  0.00  0.00    +0.000 A 
ATOM     25  C   UNL     1       0.924   2.464  18.866  0.00  0.00    +0.000 A 
ATOM     26  C   UNL     1       2.302   2.245  18.842  0.00  0.00    +0.000 A 
ENDBRANCH  20  21
ENDBRANCH  19  20
ENDBRANCH   5  19
TORSDOF 8
ENDMDL
