MODEL 1
REMARK VINA RESULT:      -6.7      0.000      0.000
REMARK  Name = 
REMARK  7 active torsions:
REMARK  status: ('A' for Active; 'I' for Inactive)
REMARK    1  A    between atoms: C_1  and  C_2
REMARK    2  A    between atoms: C_2  and  C_3
REMARK    3  A    between atoms: C_3  and  C_4
REMARK    4  A    between atoms: C_3  and  C_6
REMARK    5  A    between atoms: C_4  and  C_5
REMARK    6  A    between atoms: C_16  and  C_17
REMARK    7  A    between atoms: C_20  and  C_21
REMARK                            x       y       z     vdW  Elec       q    Type
REMARK                         _______ _______ _______ _____ _____    ______ ____
ROOT
ATOM      1  C   UNL     1      -1.286  11.501  22.503  0.00  0.00    +0.000 C 
ATOM      2  O   UNL     1      -0.983  10.862  23.515  0.00  0.00    +0.000 OA
ATOM      3  N   UNL     1      -0.565  11.361  21.320  0.00  0.00    +0.000 N 
ATOM      4  C   UNL     1       0.472  10.328  21.290  0.00  0.00    +0.000 C 
ATOM      5  C   UNL     1       0.798   9.493  20.049  0.00  0.00    +0.000 C 
ATOM      6  O   UNL     1       1.661   8.605  20.131  0.00  0.00    +0.000 OA
ATOM      7  N   UNL     1       0.187   9.611  18.845  0.00  0.00    +0.000 N 
ATOM      8  C   UNL     1      -0.925  10.343  18.425  0.00  0.00    +0.000 A 
ATOM      9  C   UNL     1      -1.560   9.840  17.277  0.00  0.00    +0.000 A 
ATOM     10  C   UNL     1      -2.793  10.336  16.866  0.00  0.00    +0.000 A 
ATOM     11  C   UNL     1      -3.402  11.361  17.583  0.00  0.00    +0.000 A 
ATOM     12  C   UNL     1      -4.793  11.801  17.241  0.00  0.00    +0.000 C 
ATOM     13  C   UNL     1      -2.698  11.958  18.639  0.00  0.00    +0.000 A 
ATOM     14  C   UNL     1      -1.435  11.479  19.057  0.00  0.00    +0.000 A 
ATOM     15  C   UNL     1      -0.676  12.228  20.143  0.00  0.00    +0.000 C 
ATOM     16  H   UNL     1       0.521   8.886  18.219  0.00  0.00    +0.000 HD
ENDROOT
BRANCH  15  17
ATOM     17  C   UNL     1       0.660  12.886  19.747  0.00  0.00    +0.000 A 
ATOM     18  C   UNL     1       1.092  13.007  18.411  0.00  0.00    +0.000 A 
ATOM     19  C   UNL     1       2.326  13.596  18.101  0.00  0.00    +0.000 A 
ATOM     20  C   UNL     1       3.141  14.098  19.115  0.00  0.00    +0.000 A 
ATOM     21  C   UNL     1       2.712  14.031  20.435  0.00  0.00    +0.000 A 
ATOM     22  C   UNL     1       1.485  13.442  20.749  0.00  0.00    +0.000 A 
ENDBRANCH  15  17
BRANCH   1  23
ATOM     23  C   UNL     1      -2.486  12.460  22.564  0.00  0.00    +0.000 C 
BRANCH  23  25
ATOM     24  C   UNL     1      -4.576  13.017  23.933  0.00  0.00    +0.000 C 
ATOM     25  C   UNL     1      -3.364  12.107  23.784  0.00  0.00    +0.000 C 
ENDBRANCH  23  25
BRANCH  23  26
ATOM     26  C   UNL     1      -2.058  13.939  22.498  0.00  0.00    +0.000 C 
ATOM     27  C   UNL     1      -1.042  14.398  23.542  0.00  0.00    +0.000 C 
ENDBRANCH  23  26
ENDBRANCH   1  23
TORSDOF 4
ENDMDL
MODEL 2
REMARK VINA RESULT:      -6.5      1.975      2.887
REMARK  Name = 
REMARK  7 active torsions:
REMARK  status: ('A' for Active; 'I' for Inactive)
REMARK    1  A    between atoms: C_1  and  C_2
REMARK    2  A    between atoms: C_2  and  C_3
REMARK    3  A    between atoms: C_3  and  C_4
REMARK    4  A    between atoms: C_3  and  C_6
REMARK    5  A    between atoms: C_4  and  C_5
REMARK    6  A    between atoms: C_16  and  C_17
REMARK    7  A    between atoms: C_20  and  C_21
REMARK                            x       y       z     vdW  Elec       q    Type
REMARK                         _______ _______ _______ _____ _____    ______ ____
ROOT
ATOM      1  C   UNL     1      -3.865  12.600  22.365  0.00  0.00    +0.000 C 
ATOM      2  O   UNL     1      -4.331  12.261  23.457  0.00  0.00    +0.000 OA
ATOM      3  N   UNL     1      -2.517  12.410  22.068  0.00  0.00    +0.000 N 
ATOM      4  C   UNL     1      -1.718  11.671  23.046  0.00  0.00    +0.000 C 
ATOM      5  C   UNL     1      -0.585  10.714  22.662  0.00  0.00    +0.000 C 
ATOM      6  O   UNL     1       0.006  10.093  23.558  0.00  0.00    +0.000 OA
ATOM      7  N   UNL     1      -0.184  10.446  21.395  0.00  0.00    +0.000 N 
ATOM      8  C   UNL     1      -0.712  10.794  20.151  0.00  0.00    +0.000 A 
ATOM      9  C   UNL     1      -0.344   9.941  19.098  0.00  0.00    +0.000 A 
ATOM     10  C   UNL     1      -0.955  10.037  17.852  0.00  0.00    +0.000 A 
ATOM     11  C   UNL     1      -1.930  11.005  17.630  0.00  0.00    +0.000 A 
ATOM     12  C   UNL     1      -2.700  11.024  16.345  0.00  0.00    +0.000 C 
ATOM     13  C   UNL     1      -2.189  11.946  18.638  0.00  0.00    +0.000 A 
ATOM     14  C   UNL     1      -1.560  11.875  19.903  0.00  0.00    +0.000 A 
ATOM     15  C   UNL     1      -1.806  12.980  20.920  0.00  0.00    +0.000 C 
ATOM     16  H   UNL     1       0.519   9.715  21.407  0.00  0.00    +0.000 HD
ENDROOT
BRANCH  15  17
ATOM     17  C   UNL     1      -0.600  13.850  21.324  0.00  0.00    +0.000 A 
ATOM     18  C   UNL     1       0.686  13.687  20.772  0.00  0.00    +0.000 A 
ATOM     19  C   UNL     1       1.757  14.491  21.186  0.00  0.00    +0.000 A 
ATOM     20  C   UNL     1       1.563  15.487  22.142  0.00  0.00    +0.000 A 
ATOM     21  C   UNL     1       0.292  15.695  22.666  0.00  0.00    +0.000 A 
ATOM     22  C   UNL     1      -0.778  14.895  22.257  0.00  0.00    +0.000 A 
ENDBRANCH  15  17
BRANCH   1  23
ATOM     23  C   UNL     1      -4.800  13.236  21.324  0.00  0.00    +0.000 C 
BRANCH  23  25
ATOM     24  C   UNL     1      -7.259  12.528  21.293  0.00  0.00    +0.000 C 
ATOM     25  C   UNL     1      -5.838  12.192  20.861  0.00  0.00    +0.000 C 
ENDBRANCH  23  25
BRANCH  23  26
ATOM     26  C   UNL     1      -5.411  14.562  21.818  0.00  0.00    +0.000 C 
ATOM     27  C   UNL     1      -4.424  15.670  22.181  0.00  0.00    +0.000 C 
ENDBRANCH  23  26
ENDBRANCH   1  23
TORSDOF 4
ENDMDL
MODEL 3
REMARK VINA RESULT:      -6.4      0.448      1.130
REMARK  Name = 
REMARK  7 active torsions:
REMARK  status: ('A' for Active; 'I' for Inactive)
REMARK    1  A    between atoms: C_1  and  C_2
REMARK    2  A    between atoms: C_2  and  C_3
REMARK    3  A    between atoms: C_3  and  C_4
REMARK    4  A    between atoms: C_3  and  C_6
REMARK    5  A    between atoms: C_4  and  C_5
REMARK    6  A    between atoms: C_16  and  C_17
REMARK    7  A    between atoms: C_20  and  C_21
REMARK                            x       y       z     vdW  Elec       q    Type
REMARK                         _______ _______ _______ _____ _____    ______ ____
ROOT
ATOM      1  C   UNL     1      -1.377  11.721  22.503  0.00  0.00    +0.000 C 
ATOM      2  O   UNL     1      -1.133  11.137  23.563  0.00  0.00    +0.000 OA
ATOM      3  N   UNL     1      -0.604  11.500  21.365  0.00  0.00    +0.000 N 
ATOM      4  C   UNL     1       0.413  10.450  21.445  0.00  0.00    +0.000 C 
ATOM      5  C   UNL     1       0.780   9.538  20.270  0.00  0.00    +0.000 C 
ATOM      6  O   UNL     1       1.621   8.643  20.445  0.00  0.00    +0.000 OA
ATOM      7  N   UNL     1       0.228   9.596  19.034  0.00  0.00    +0.000 N 
ATOM      8  C   UNL     1      -0.849  10.321  18.520  0.00  0.00    +0.000 A 
ATOM      9  C   UNL     1      -1.439   9.762  17.374  0.00  0.00    +0.000 A 
ATOM     10  C   UNL     1      -2.641  10.253  16.876  0.00  0.00    +0.000 A 
ATOM     11  C   UNL     1      -3.263  11.329  17.504  0.00  0.00    +0.000 A 
ATOM     12  C   UNL     1      -4.628  11.772  17.071  0.00  0.00    +0.000 C 
ATOM     13  C   UNL     1      -2.598  11.975  18.556  0.00  0.00    +0.000 A 
ATOM     14  C   UNL     1      -1.365  11.500  19.061  0.00  0.00    +0.000 A 
ATOM     15  C   UNL     1      -0.643  12.298  20.137  0.00  0.00    +0.000 C 
ATOM     16  H   UNL     1       0.577   8.830  18.468  0.00  0.00    +0.000 HD
ENDROOT
BRANCH  15  17
ATOM     17  C   UNL     1       0.722  12.910  19.767  0.00  0.00    +0.000 A 
ATOM     18  C   UNL     1       1.635  13.392  20.726  0.00  0.00    +0.000 A 
ATOM     19  C   UNL     1       2.858  13.958  20.339  0.00  0.00    +0.000 A 
ATOM     20  C   UNL     1       3.205  14.034  18.991  0.00  0.00    +0.000 A 
ATOM     21  C   UNL     1       2.338  13.522  18.032  0.00  0.00    +0.000 A 
ATOM     22  C   UNL     1       1.118  12.959  18.413  0.00  0.00    +0.000 A 
ENDBRANCH  15  17
BRANCH   1  23
ATOM     23  C   UNL     1      -2.560  12.702  22.451  0.00  0.00    +0.000 C 
BRANCH  23  25
ATOM     24  C   UNL     1      -3.734  13.403  24.614  0.00  0.00    +0.000 C 
ATOM     25  C   UNL     1      -3.583  12.329  23.545  0.00  0.00    +0.000 C 
ENDBRANCH  23  25
BRANCH  23  26
ATOM     26  C   UNL     1      -2.102  14.173  22.485  0.00  0.00    +0.000 C 
ATOM     27  C   UNL     1      -2.672  15.085  21.401  0.00  0.00    +0.000 C 
ENDBRANCH  23  26
ENDBRANCH   1  23
TORSDOF 4
ENDMDL
MODEL 4
REMARK VINA RESULT:      -6.4      2.311      3.534
REMARK  Name = 
REMARK  7 active torsions:
REMARK  status: ('A' for Active; 'I' for Inactive)
REMARK    1  A    between atoms: C_1  and  C_2
REMARK    2  A    between atoms: C_2  and  C_3
REMARK    3  A    between atoms: C_3  and  C_4
REMARK    4  A    between atoms: C_3  and  C_6
REMARK    5  A    between atoms: C_4  and  C_5
REMARK    6  A    between atoms: C_16  and  C_17
REMARK    7  A    between atoms: C_20  and  C_21
REMARK                            x       y       z     vdW  Elec       q    Type
REMARK                         _______ _______ _______ _____ _____    ______ ____
ROOT
ATOM      1  C   UNL     1      -4.583  12.626  21.477  0.00  0.00    +0.000 C 
ATOM      2  O   UNL     1      -5.074  12.414  22.590  0.00  0.00    +0.000 OA
ATOM      3  N   UNL     1      -3.203  12.631  21.289  0.00  0.00    +0.000 N 
ATOM      4  C   UNL     1      -2.374  12.240  22.430  0.00  0.00    +0.000 C 
ATOM      5  C   UNL     1      -1.069  11.448  22.295  0.00  0.00    +0.000 C 
ATOM      6  O   UNL     1      -0.458  11.119  23.323  0.00  0.00    +0.000 OA
ATOM      7  N   UNL     1      -0.527  11.030  21.126  0.00  0.00    +0.000 N 
ATOM      8  C   UNL     1      -1.001  11.042  19.813  0.00  0.00    +0.000 A 
ATOM      9  C   UNL     1      -0.410  10.091  18.966  0.00  0.00    +0.000 A 
ATOM     10  C   UNL     1      -0.924   9.845  17.697  0.00  0.00    +0.000 A 
ATOM     11  C   UNL     1      -2.026  10.564  17.244  0.00  0.00    +0.000 A 
ATOM     12  C   UNL     1      -2.680  10.208  15.944  0.00  0.00    +0.000 C 
ATOM     13  C   UNL     1      -2.521  11.612  18.035  0.00  0.00    +0.000 A 
ATOM     14  C   UNL     1      -1.996  11.889  19.318  0.00  0.00    +0.000 A 
ATOM     15  C   UNL     1      -2.506  13.099  20.088  0.00  0.00    +0.000 C 
ATOM     16  H   UNL     1       0.286  10.452  21.314  0.00  0.00    +0.000 HD
ENDROOT
BRANCH  15  17
ATOM     17  C   UNL     1      -1.500  14.231  20.372  0.00  0.00    +0.000 A 
ATOM     18  C   UNL     1      -0.245  14.324  19.738  0.00  0.00    +0.000 A 
ATOM     19  C   UNL     1       0.645  15.362  20.045  0.00  0.00    +0.000 A 
ATOM     20  C   UNL     1       0.292  16.342  20.973  0.00  0.00    +0.000 A 
ATOM     21  C   UNL     1      -0.959  16.294  21.576  0.00  0.00    +0.000 A 
ATOM     22  C   UNL     1      -1.848  15.259  21.275  0.00  0.00    +0.000 A 
ENDBRANCH  15  17
BRANCH   1  23
ATOM     23  C   UNL     1      -5.523  12.881  20.288  0.00  0.00    +0.000 C 
BRANCH  23  25
ATOM     24  C   UNL     1      -6.637  11.361  18.556  0.00  0.00    +0.000 C 
ATOM     25  C   UNL     1      -6.382  11.624  20.034  0.00  0.00    +0.000 C 
ENDBRANCH  23  25
BRANCH  23  26
ATOM     26  C   UNL     1      -6.334  14.181  20.451  0.00  0.00    +0.000 C 
ATOM     27  C   UNL     1      -5.550  15.487  20.339  0.00  0.00    +0.000 C 
ENDBRANCH  23  26
ENDBRANCH   1  23
TORSDOF 4
ENDMDL
MODEL 5
REMARK VINA RESULT:      -6.3      2.299      3.624
REMARK  Name = 
REMARK  7 active torsions:
REMARK  status: ('A' for Active; 'I' for Inactive)
REMARK    1  A    between atoms: C_1  and  C_2
REMARK    2  A    between atoms: C_2  and  C_3
REMARK    3  A    between atoms: C_3  and  C_4
REMARK    4  A    between atoms: C_3  and  C_6
REMARK    5  A    between atoms: C_4  and  C_5
REMARK    6  A    between atoms: C_16  and  C_17
REMARK    7  A    between atoms: C_20  and  C_21
REMARK                            x       y       z     vdW  Elec       q    Type
REMARK                         _______ _______ _______ _____ _____    ______ ____
ROOT
ATOM      1  C   UNL     1      -4.548  12.627  21.484  0.00  0.00    +0.000 C 
ATOM      2  O   UNL     1      -4.959  12.449  22.634  0.00  0.00    +0.000 OA
ATOM      3  N   UNL     1      -3.184  12.620  21.199  0.00  0.00    +0.000 N 
ATOM      4  C   UNL     1      -2.278  12.256  22.288  0.00  0.00    +0.000 C 
ATOM      5  C   UNL     1      -0.989  11.454  22.084  0.00  0.00    +0.000 C 
ATOM      6  O   UNL     1      -0.307  11.150  23.075  0.00  0.00    +0.000 OA
ATOM      7  N   UNL     1      -0.532  11.001  20.892  0.00  0.00    +0.000 N 
ATOM      8  C   UNL     1      -1.098  10.979  19.616  0.00  0.00    +0.000 A 
ATOM      9  C   UNL     1      -0.572  10.002  18.756  0.00  0.00    +0.000 A 
ATOM     10  C   UNL     1      -1.175   9.724  17.534  0.00  0.00    +0.000 A 
ATOM     11  C   UNL     1      -2.304  10.436  17.140  0.00  0.00    +0.000 A 
ATOM     12  C   UNL     1      -3.050  10.048  15.900  0.00  0.00    +0.000 C 
ATOM     13  C   UNL     1      -2.738  11.508  17.934  0.00  0.00    +0.000 A 
ATOM     14  C   UNL     1      -2.122  11.817  19.169  0.00  0.00    +0.000 A 
ATOM     15  C   UNL     1      -2.572  13.051  19.939  0.00  0.00    +0.000 C 
ATOM     16  H   UNL     1       0.290  10.424  21.038  0.00  0.00    +0.000 HD
ENDROOT
BRANCH  15  17
ATOM     17  C   UNL     1      -1.545  14.185  20.120  0.00  0.00    +0.000 A 
ATOM     18  C   UNL     1      -1.668  15.185  21.105  0.00  0.00    +0.000 A 
ATOM     19  C   UNL     1      -0.716  16.208  21.218  0.00  0.00    +0.000 A 
ATOM     20  C   UNL     1       0.388  16.242  20.368  0.00  0.00    +0.000 A 
ATOM     21  C   UNL     1       0.553  15.238  19.420  0.00  0.00    +0.000 A 
ATOM     22  C   UNL     1      -0.395  14.218  19.302  0.00  0.00    +0.000 A 
ENDBRANCH  15  17
BRANCH   1  23
ATOM     23  C   UNL     1      -5.569  12.855  20.357  0.00  0.00    +0.000 C 
BRANCH  23  25
ATOM     24  C   UNL     1      -6.372  11.181  18.596  0.00  0.00    +0.000 C 
ATOM     25  C   UNL     1      -6.323  11.538  20.076  0.00  0.00    +0.000 C 
ENDBRANCH  23  25
BRANCH  23  26
ATOM     26  C   UNL     1      -6.484  14.064  20.631  0.00  0.00    +0.000 C 
ATOM     27  C   UNL     1      -7.885  13.750  21.152  0.00  0.00    +0.000 C 
ENDBRANCH  23  26
ENDBRANCH   1  23
TORSDOF 4
ENDMDL
MODEL 6
REMARK VINA RESULT:      -6.0      1.252      1.492
REMARK  Name = 
REMARK  7 active torsions:
REMARK  status: ('A' for Active; 'I' for Inactive)
REMARK    1  A    between atoms: C_1  and  C_2
REMARK    2  A    between atoms: C_2  and  C_3
REMARK    3  A    between atoms: C_3  and  C_4
REMARK    4  A    between atoms: C_3  and  C_6
REMARK    5  A    between atoms: C_4  and  C_5
REMARK    6  A    between atoms: C_16  and  C_17
REMARK    7  A    between atoms: C_20  and  C_21
REMARK                            x       y       z     vdW  Elec       q    Type
REMARK                         _______ _______ _______ _____ _____    ______ ____
ROOT
ATOM      1  C   UNL     1      -2.329  12.453  22.286  0.00  0.00    +0.000 C 
ATOM      2  O   UNL     1      -2.358  12.079  23.462  0.00  0.00    +0.000 OA
ATOM      3  N   UNL     1      -1.301  12.059  21.431  0.00  0.00    +0.000 N 
ATOM      4  C   UNL     1      -0.343  11.080  21.947  0.00  0.00    +0.000 C 
ATOM      5  C   UNL     1       0.295   9.986  21.086  0.00  0.00    +0.000 C 
ATOM      6  O   UNL     1       1.060   9.170  21.622  0.00  0.00    +0.000 OA
ATOM      7  N   UNL     1       0.065   9.800  19.764  0.00  0.00    +0.000 N 
ATOM      8  C   UNL     1      -0.847  10.378  18.879  0.00  0.00    +0.000 A 
ATOM      9  C   UNL     1      -1.141   9.600  17.747  0.00  0.00    +0.000 A 
ATOM     10  C   UNL     1      -2.180   9.947  16.890  0.00  0.00    +0.000 A 
ATOM     11  C   UNL     1      -2.929  11.093  17.138  0.00  0.00    +0.000 A 
ATOM     12  C   UNL     1      -4.142  11.399  16.312  0.00  0.00    +0.000 C 
ATOM     13  C   UNL     1      -2.539  11.944  18.183  0.00  0.00    +0.000 A 
ATOM     14  C   UNL     1      -1.471  11.615  19.051  0.00  0.00    +0.000 A 
ATOM     15  C   UNL     1      -1.030  12.621  20.105  0.00  0.00    +0.000 C 
ATOM     16  H   UNL     1       0.536   8.957  19.451  0.00  0.00    +0.000 HD
ENDROOT
BRANCH  15  17
ATOM     17  C   UNL     1       0.389  13.207  19.972  0.00  0.00    +0.000 A 
ATOM     18  C   UNL     1       1.184  13.045  18.821  0.00  0.00    +0.000 A 
ATOM     19  C   UNL     1       2.478  13.581  18.755  0.00  0.00    +0.000 A 
ATOM     20  C   UNL     1       2.995  14.309  19.826  0.00  0.00    +0.000 A 
ATOM     21  C   UNL     1       2.209  14.520  20.953  0.00  0.00    +0.000 A 
ATOM     22  C   UNL     1       0.920  13.986  21.024  0.00  0.00    +0.000 A 
ENDBRANCH  15  17
BRANCH   1  23
ATOM     23  C   UNL     1      -3.454  13.362  21.768  0.00  0.00    +0.000 C 
BRANCH  23  25
ATOM     24  C   UNL     1      -5.424  12.469  20.401  0.00  0.00    +0.000 C 
ATOM     25  C   UNL     1      -4.788  12.585  21.779  0.00  0.00    +0.000 C 
ENDBRANCH  23  25
BRANCH  23  26
ATOM     26  C   UNL     1      -3.502  14.714  22.507  0.00  0.00    +0.000 C 
ATOM     27  C   UNL     1      -4.615  14.883  23.539  0.00  0.00    +0.000 C 
ENDBRANCH  23  26
ENDBRANCH   1  23
TORSDOF 4
ENDMDL
MODEL 7
REMARK VINA RESULT:      -6.0      1.367      1.796
REMARK  Name = 
REMARK  7 active torsions:
REMARK  status: ('A' for Active; 'I' for Inactive)
REMARK    1  A    between atoms: C_1  and  C_2
REMARK    2  A    between atoms: C_2  and  C_3
REMARK    3  A    between atoms: C_3  and  C_4
REMARK    4  A    between atoms: C_3  and  C_6
REMARK    5  A    between atoms: C_4  and  C_5
REMARK    6  A    between atoms: C_16  and  C_17
REMARK    7  A    between atoms: C_20  and  C_21
REMARK                            x       y       z     vdW  Elec       q    Type
REMARK                         _______ _______ _______ _____ _____    ______ ____
ROOT
ATOM      1  C   UNL     1      -2.476  12.540  22.163  0.00  0.00    +0.000 C 
ATOM      2  O   UNL     1      -2.515  12.201  23.350  0.00  0.00    +0.000 OA
ATOM      3  N   UNL     1      -1.403  12.186  21.349  0.00  0.00    +0.000 N 
ATOM      4  C   UNL     1      -0.401  11.285  21.921  0.00  0.00    +0.000 C 
ATOM      5  C   UNL     1       0.327  10.207  21.112  0.00  0.00    +0.000 C 
ATOM      6  O   UNL     1       1.126   9.457  21.694  0.00  0.00    +0.000 OA
ATOM      7  N   UNL     1       0.146   9.966  19.791  0.00  0.00    +0.000 N 
ATOM      8  C   UNL     1      -0.775  10.458  18.865  0.00  0.00    +0.000 A 
ATOM      9  C   UNL     1      -0.989   9.629  17.751  0.00  0.00    +0.000 A 
ATOM     10  C   UNL     1      -2.023   9.884  16.857  0.00  0.00    +0.000 A 
ATOM     11  C   UNL     1      -2.848  10.988  17.048  0.00  0.00    +0.000 A 
ATOM     12  C   UNL     1      -4.054  11.192  16.182  0.00  0.00    +0.000 C 
ATOM     13  C   UNL     1      -2.540  11.893  18.075  0.00  0.00    +0.000 A 
ATOM     14  C   UNL     1      -1.479  11.659  18.980  0.00  0.00    +0.000 A 
ATOM     15  C   UNL     1      -1.131  12.722  20.012  0.00  0.00    +0.000 C 
ATOM     16  H   UNL     1       0.677   9.146  19.518  0.00  0.00    +0.000 HD
ENDROOT
BRANCH  15  17
ATOM     17  C   UNL     1       0.252  13.392  19.897  0.00  0.00    +0.000 A 
ATOM     18  C   UNL     1       0.863  14.085  20.962  0.00  0.00    +0.000 A 
ATOM     19  C   UNL     1       2.115  14.696  20.802  0.00  0.00    +0.000 A 
ATOM     20  C   UNL     1       2.793  14.607  19.587  0.00  0.00    +0.000 A 
ATOM     21  C   UNL     1       2.229  13.888  18.539  0.00  0.00    +0.000 A 
ATOM     22  C   UNL     1       0.980  13.281  18.693  0.00  0.00    +0.000 A 
ENDBRANCH  15  17
BRANCH   1  23
ATOM     23  C   UNL     1      -3.641  13.360  21.587  0.00  0.00    +0.000 C 
BRANCH  23  25
ATOM     24  C   UNL     1      -5.780  12.300  20.665  0.00  0.00    +0.000 C 
ATOM     25  C   UNL     1      -4.975  12.653  21.909  0.00  0.00    +0.000 C 
ENDBRANCH  23  25
BRANCH  23  26
ATOM     26  C   UNL     1      -3.587  14.838  22.021  0.00  0.00    +0.000 C 
ATOM     27  C   UNL     1      -2.792  15.780  21.119  0.00  0.00    +0.000 C 
ENDBRANCH  23  26
ENDBRANCH   1  23
TORSDOF 4
ENDMDL
MODEL 8
REMARK VINA RESULT:      -5.9      1.692      2.451
REMARK  Name = 
REMARK  7 active torsions:
REMARK  status: ('A' for Active; 'I' for Inactive)
REMARK    1  A    between atoms: C_1  and  C_2
REMARK    2  A    between atoms: C_2  and  C_3
REMARK    3  A    between atoms: C_3  and  C_4
REMARK    4  A    between atoms: C_3  and  C_6
REMARK    5  A    between atoms: C_4  and  C_5
REMARK    6  A    between atoms: C_16  and  C_17
REMARK    7  A    between atoms: C_20  and  C_21
REMARK                            x       y       z     vdW  Elec       q    Type
REMARK                         _______ _______ _______ _____ _____    ______ ____
ROOT
ATOM      1  C   UNL     1      -3.401  12.444  22.791  0.00  0.00    +0.000 C 
ATOM      2  O   UNL     1      -3.553  12.040  23.947  0.00  0.00    +0.000 OA
ATOM      3  N   UNL     1      -2.185  12.292  22.129  0.00  0.00    +0.000 N 
ATOM      4  C   UNL     1      -1.149  11.515  22.810  0.00  0.00    +0.000 C 
ATOM      5  C   UNL     1      -0.162  10.597  22.081  0.00  0.00    +0.000 C 
ATOM      6  O   UNL     1       0.651   9.939  22.747  0.00  0.00    +0.000 OA
ATOM      7  N   UNL     1      -0.121  10.404  20.740  0.00  0.00    +0.000 N 
ATOM      8  C   UNL     1      -0.968  10.809  19.707  0.00  0.00    +0.000 A 
ATOM      9  C   UNL     1      -0.899  10.019  18.547  0.00  0.00    +0.000 A 
ATOM     10  C   UNL     1      -1.826  10.171  17.522  0.00  0.00    +0.000 A 
ATOM     11  C   UNL     1      -2.826  11.134  17.627  0.00  0.00    +0.000 A 
ATOM     12  C   UNL     1      -3.916  11.209  16.603  0.00  0.00    +0.000 C 
ATOM     13  C   UNL     1      -2.801  12.016  18.718  0.00  0.00    +0.000 A 
ATOM     14  C   UNL     1      -1.853  11.888  19.759  0.00  0.00    +0.000 A 
ATOM     15  C   UNL     1      -1.814  12.933  20.865  0.00  0.00    +0.000 C 
ATOM     16  H   UNL     1       0.559   9.685  20.519  0.00  0.00    +0.000 HD
ENDROOT
BRANCH  15  17
ATOM     17  C   UNL     1      -0.544  13.800  20.974  0.00  0.00    +0.000 A 
ATOM     18  C   UNL     1      -0.185  14.496  22.145  0.00  0.00    +0.000 A 
ATOM     19  C   UNL     1       0.971  15.288  22.189  0.00  0.00    +0.000 A 
ATOM     20  C   UNL     1       1.804  15.383  21.075  0.00  0.00    +0.000 A 
ATOM     21  C   UNL     1       1.492  14.667  19.925  0.00  0.00    +0.000 A 
ATOM     22  C   UNL     1       0.340  13.878  19.875  0.00  0.00    +0.000 A 
ENDBRANCH  15  17
BRANCH   1  23
ATOM     23  C   UNL     1      -4.585  13.119  22.080  0.00  0.00    +0.000 C 
BRANCH  23  25
ATOM     24  C   UNL     1      -6.629  13.634  23.531  0.00  0.00    +0.000 C 
ATOM     25  C   UNL     1      -5.908  12.598  22.679  0.00  0.00    +0.000 C 
ENDBRANCH  23  25
BRANCH  23  26
ATOM     26  C   UNL     1      -4.459  14.655  22.062  0.00  0.00    +0.000 C 
ATOM     27  C   UNL     1      -4.746  15.343  20.729  0.00  0.00    +0.000 C 
ENDBRANCH  23  26
ENDBRANCH   1  23
TORSDOF 4
ENDMDL
MODEL 9
REMARK VINA RESULT:      -5.9      2.608      5.520
REMARK  Name = 
REMARK  7 active torsions:
REMARK  status: ('A' for Active; 'I' for Inactive)
REMARK    1  A    between atoms: C_1  and  C_2
REMARK    2  A    between atoms: C_2  and  C_3
REMARK    3  A    between atoms: C_3  and  C_4
REMARK    4  A    between atoms: C_3  and  C_6
REMARK    5  A    between atoms: C_4  and  C_5
REMARK    6  A    between atoms: C_16  and  C_17
REMARK    7  A    between atoms: C_20  and  C_21
REMARK                            x       y       z     vdW  Elec       q    Type
REMARK                         _______ _______ _______ _____ _____    ______ ____
ROOT
ATOM      1  C   UNL     1      -3.100  11.921  18.702  0.00  0.00    +0.000 C 
ATOM      2  O   UNL     1      -4.302  12.043  18.446  0.00  0.00    +0.000 OA
ATOM      3  N   UNL     1      -2.582  12.329  19.928  0.00  0.00    +0.000 N 
ATOM      4  C   UNL     1      -3.539  12.774  20.942  0.00  0.00    +0.000 C 
ATOM      5  C   UNL     1      -3.367  12.512  22.441  0.00  0.00    +0.000 C 
ATOM      6  O   UNL     1      -4.256  12.885  23.222  0.00  0.00    +0.000 OA
ATOM      7  N   UNL     1      -2.322  11.858  23.005  0.00  0.00    +0.000 N 
ATOM      8  C   UNL     1      -1.253  11.148  22.456  0.00  0.00    +0.000 A 
ATOM      9  C   UNL     1      -0.673  10.201  23.316  0.00  0.00    +0.000 A 
ATOM     10  C   UNL     1       0.256   9.280  22.845  0.00  0.00    +0.000 A 
ATOM     11  C   UNL     1       0.639   9.304  21.507  0.00  0.00    +0.000 A 
ATOM     12  C   UNL     1       1.523   8.228  20.953  0.00  0.00    +0.000 C 
ATOM     13  C   UNL     1       0.169  10.341  20.688  0.00  0.00    +0.000 A 
ATOM     14  C   UNL     1      -0.760  11.298  21.158  0.00  0.00    +0.000 A 
ATOM     15  C   UNL     1      -1.159  12.457  20.254  0.00  0.00    +0.000 C 
ATOM     16  H   UNL     1      -2.490  11.738  23.998  0.00  0.00    +0.000 HD
ENDROOT
BRANCH  15  17
ATOM     17  C   UNL     1      -0.766  13.876  20.710  0.00  0.00    +0.000 A 
ATOM     18  C   UNL     1       0.001  14.129  21.865  0.00  0.00    +0.000 A 
ATOM     19  C   UNL     1       0.316  15.440  22.249  0.00  0.00    +0.000 A 
ATOM     20  C   UNL     1      -0.106  16.522  21.477  0.00  0.00    +0.000 A 
ATOM     21  C   UNL     1      -0.823  16.291  20.309  0.00  0.00    +0.000 A 
ATOM     22  C   UNL     1      -1.142  14.987  19.924  0.00  0.00    +0.000 A 
ENDBRANCH  15  17
BRANCH   1  23
ATOM     23  C   UNL     1      -2.175  11.303  17.641  0.00  0.00    +0.000 C 
BRANCH  23  25
ATOM     24  C   UNL     1      -0.405   9.457  17.716  0.00  0.00    +0.000 C 
ATOM     25  C   UNL     1      -1.840   9.849  18.037  0.00  0.00    +0.000 C 
ENDBRANCH  23  25
BRANCH  23  26
ATOM     26  C   UNL     1      -2.733  11.460  16.214  0.00  0.00    +0.000 C 
ATOM     27  C   UNL     1      -3.212  10.181  15.529  0.00  0.00    +0.000 C 
ENDBRANCH  23  26
ENDBRANCH   1  23
TORSDOF 4
ENDMDL
