MODEL 1
REMARK VINA RESULT:      -7.4      0.000      0.000
REMARK  Name = 
REMARK  8 active torsions:
REMARK  status: ('A' for Active; 'I' for Inactive)
REMARK    1  A    between atoms: C_1  and  O_2
REMARK    2  A    between atoms: O_2  and  C_3
REMARK    3  A    between atoms: C_10  and  O_11
REMARK    4  A    between atoms: C_12  and  C_13
REMARK    5  A    between atoms: C_17  and  C_18
REMARK    6  A    between atoms: C_18  and  C_19
REMARK    7  A    between atoms: C_20  and  C_21
REMARK    8  A    between atoms: C_20  and  C_22
REMARK                            x       y       z     vdW  Elec       q    Type
REMARK                         _______ _______ _______ _____ _____    ______ ____
ROOT
ATOM      1  C   UNL     1       1.858   3.282  19.693  0.00  0.00    +0.000 A 
ATOM      2  C   UNL     1       1.806   2.062  19.007  0.00  0.00    +0.000 A 
ATOM      3  C   UNL     1       2.704   1.756  17.999  0.00  0.00    +0.000 A 
ATOM      4  C   UNL     1       3.632   2.732  17.659  0.00  0.00    +0.000 A 
ATOM      5  N   UNL     1       4.585   2.669  16.679  0.00  0.00    +0.000 N 
ATOM      6  C   UNL     1       5.309   3.826  16.624  0.00  0.00    +0.000 A 
ATOM      7  C   UNL     1       6.346   4.170  15.752  0.00  0.00    +0.000 A 
ATOM      8  C   UNL     1       6.932   5.423  15.916  0.00  0.00    +0.000 A 
ATOM      9  C   UNL     1       6.509   6.307  16.911  0.00  0.00    +0.000 A 
ATOM     10  C   UNL     1       7.140   7.658  17.092  0.00  0.00    +0.000 C 
ATOM     11  C   UNL     1       5.453   5.926  17.769  0.00  0.00    +0.000 A 
ATOM     12  C   UNL     1       4.826   4.664  17.631  0.00  0.00    +0.000 A 
ATOM     13  C   UNL     1       3.737   3.974  18.293  0.00  0.00    +0.000 A 
ATOM     14  C   UNL     1       2.840   4.273  19.373  0.00  0.00    +0.000 A 
ATOM     15  H   UNL     1       4.719   1.878  16.068  0.00  0.00    +0.000 HD
ENDROOT
BRANCH   1  17
ATOM     16  C   UNL     1       1.116   2.831  21.910  0.00  0.00    +0.000 C 
ATOM     17  O   UNL     1       0.959   3.577  20.700  0.00  0.00    +0.000 OA
ENDBRANCH   1  17
BRANCH   8  18
ATOM     18  O   UNL     1       7.942   5.800  15.076  0.00  0.00    +0.000 OA
ATOM     19  H   UNL     1       8.722   6.041  15.613  0.00  0.00    +0.000 HD
ENDBRANCH   8  18
BRANCH  14  20
ATOM     20  C   UNL     1       2.955   5.552  20.202  0.00  0.00    +0.000 C 
BRANCH  20  21
ATOM     21  C   UNL     1       2.568   6.822  19.481  0.00  0.00    +0.000 C 
ATOM     22  C   UNL     1       1.812   7.843  19.945  0.00  0.00    +0.000 C 
ATOM     23  C   UNL     1       1.170   7.916  21.305  0.00  0.00    +0.000 C 
ATOM     24  C   UNL     1       1.515   9.043  19.080  0.00  0.00    +0.000 C 
ENDBRANCH  20  21
ENDBRANCH  14  20
TORSDOF 4
ENDMDL
MODEL 2
REMARK VINA RESULT:      -7.2      2.595      5.645
REMARK  Name = 
REMARK  8 active torsions:
REMARK  status: ('A' for Active; 'I' for Inactive)
REMARK    1  A    between atoms: C_1  and  O_2
REMARK    2  A    between atoms: O_2  and  C_3
REMARK    3  A    between atoms: C_10  and  O_11
REMARK    4  A    between atoms: C_12  and  C_13
REMARK    5  A    between atoms: C_17  and  C_18
REMARK    6  A    between atoms: C_18  and  C_19
REMARK    7  A    between atoms: C_20  and  C_21
REMARK    8  A    between atoms: C_20  and  C_22
REMARK                            x       y       z     vdW  Elec       q    Type
REMARK                         _______ _______ _______ _____ _____    ______ ____
ROOT
ATOM      1  C   UNL     1       3.500   3.762  19.179  0.00  0.00    +0.000 A 
ATOM      2  C   UNL     1       2.908   3.342  20.377  0.00  0.00    +0.000 A 
ATOM      3  C   UNL     1       2.117   4.189  21.134  0.00  0.00    +0.000 A 
ATOM      4  C   UNL     1       1.973   5.494  20.682  0.00  0.00    +0.000 A 
ATOM      5  N   UNL     1       1.275   6.510  21.277  0.00  0.00    +0.000 N 
ATOM      6  C   UNL     1       1.369   7.662  20.550  0.00  0.00    +0.000 A 
ATOM      7  C   UNL     1       0.830   8.921  20.829  0.00  0.00    +0.000 A 
ATOM      8  C   UNL     1       1.067   9.939  19.909  0.00  0.00    +0.000 A 
ATOM      9  C   UNL     1       1.812   9.720  18.748  0.00  0.00    +0.000 A 
ATOM     10  C   UNL     1       2.068  10.815  17.752  0.00  0.00    +0.000 C 
ATOM     11  C   UNL     1       2.348   8.436  18.505  0.00  0.00    +0.000 A 
ATOM     12  C   UNL     1       2.135   7.376  19.419  0.00  0.00    +0.000 A 
ATOM     13  C   UNL     1       2.540   5.986  19.501  0.00  0.00    +0.000 A 
ATOM     14  C   UNL     1       3.318   5.095  18.689  0.00  0.00    +0.000 A 
ATOM     15  H   UNL     1       0.775   6.419  22.148  0.00  0.00    +0.000 HD
ENDROOT
BRANCH   1  17
ATOM     16  C   UNL     1       3.694   1.647  18.102  0.00  0.00    +0.000 C 
ATOM     17  O   UNL     1       4.285   2.908  18.429  0.00  0.00    +0.000 OA
ENDBRANCH   1  17
BRANCH   8  18
ATOM     18  O   UNL     1       0.563  11.186  20.152  0.00  0.00    +0.000 OA
ATOM     19  H   UNL     1      -0.104  11.392  19.468  0.00  0.00    +0.000 HD
ENDBRANCH   8  18
BRANCH  14  20
ATOM     20  C   UNL     1       3.877   5.507  17.328  0.00  0.00    +0.000 C 
BRANCH  20  21
ATOM     21  C   UNL     1       5.063   6.443  17.376  0.00  0.00    +0.000 C 
ATOM     22  C   UNL     1       6.377   6.120  17.351  0.00  0.00    +0.000 C 
ATOM     23  C   UNL     1       6.941   4.725  17.284  0.00  0.00    +0.000 C 
ATOM     24  C   UNL     1       7.438   7.190  17.417  0.00  0.00    +0.000 C 
ENDBRANCH  20  21
ENDBRANCH  14  20
TORSDOF 4
ENDMDL
MODEL 3
REMARK VINA RESULT:      -7.1      1.235      5.206
REMARK  Name = 
REMARK  8 active torsions:
REMARK  status: ('A' for Active; 'I' for Inactive)
REMARK    1  A    between atoms: C_1  and  O_2
REMARK    2  A    between atoms: O_2  and  C_3
REMARK    3  A    between atoms: C_10  and  O_11
REMARK    4  A    between atoms: C_12  and  C_13
REMARK    5  A    between atoms: C_17  and  C_18
REMARK    6  A    between atoms: C_18  and  C_19
REMARK    7  A    between atoms: C_20  and  C_21
REMARK    8  A    between atoms: C_20  and  C_22
REMARK                            x       y       z     vdW  Elec       q    Type
REMARK                         _______ _______ _______ _____ _____    ______ ____
ROOT
ATOM      1  C   UNL     1       6.467   6.569  16.731  0.00  0.00    +0.000 A 
ATOM      2  C   UNL     1       7.055   5.612  15.895  0.00  0.00    +0.000 A 
ATOM      3  C   UNL     1       6.530   4.338  15.766  0.00  0.00    +0.000 A 
ATOM      4  C   UNL     1       5.420   4.028  16.540  0.00  0.00    +0.000 A 
ATOM      5  N   UNL     1       4.758   2.832  16.607  0.00  0.00    +0.000 N 
ATOM      6  C   UNL     1       3.718   2.895  17.491  0.00  0.00    +0.000 A 
ATOM      7  C   UNL     1       2.823   1.889  17.863  0.00  0.00    +0.000 A 
ATOM      8  C   UNL     1       1.836   2.219  18.788  0.00  0.00    +0.000 A 
ATOM      9  C   UNL     1       1.734   3.504  19.326  0.00  0.00    +0.000 A 
ATOM     10  C   UNL     1       0.669   3.864  20.322  0.00  0.00    +0.000 C 
ATOM     11  C   UNL     1       2.662   4.492  18.930  0.00  0.00    +0.000 A 
ATOM     12  C   UNL     1       3.685   4.195  17.997  0.00  0.00    +0.000 A 
ATOM     13  C   UNL     1       4.785   4.928  17.403  0.00  0.00    +0.000 A 
ATOM     14  C   UNL     1       5.298   6.265  17.499  0.00  0.00    +0.000 A 
ATOM     15  H   UNL     1       5.018   2.010  16.084  0.00  0.00    +0.000 HD
ENDROOT
BRANCH   1  17
ATOM     16  C   UNL     1       8.017   7.996  17.841  0.00  0.00    +0.000 C 
ATOM     17  O   UNL     1       6.996   7.839  16.851  0.00  0.00    +0.000 OA
ENDBRANCH   1  17
BRANCH   8  18
ATOM     18  O   UNL     1       0.948   1.259  19.185  0.00  0.00    +0.000 OA
ATOM     19  H   UNL     1       0.045   1.628  19.135  0.00  0.00    +0.000 HD
ENDBRANCH   8  18
BRANCH  14  20
ATOM     20  C   UNL     1       4.603   7.350  18.321  0.00  0.00    +0.000 C 
BRANCH  20  21
ATOM     21  C   UNL     1       3.359   7.936  17.693  0.00  0.00    +0.000 C 
ATOM     22  C   UNL     1       2.190   8.248  18.300  0.00  0.00    +0.000 C 
ATOM     23  C   UNL     1       1.877   8.055  19.760  0.00  0.00    +0.000 C 
ATOM     24  C   UNL     1       1.039   8.822  17.512  0.00  0.00    +0.000 C 
ENDBRANCH  20  21
ENDBRANCH  14  20
TORSDOF 4
ENDMDL
MODEL 4
REMARK VINA RESULT:      -6.7      2.495      6.364
REMARK  Name = 
REMARK  8 active torsions:
REMARK  status: ('A' for Active; 'I' for Inactive)
REMARK    1  A    between atoms: C_1  and  O_2
REMARK    2  A    between atoms: O_2  and  C_3
REMARK    3  A    between atoms: C_10  and  O_11
REMARK    4  A    between atoms: C_12  and  C_13
REMARK    5  A    between atoms: C_17  and  C_18
REMARK    6  A    between atoms: C_18  and  C_19
REMARK    7  A    between atoms: C_20  and  C_21
REMARK    8  A    between atoms: C_20  and  C_22
REMARK                            x       y       z     vdW  Elec       q    Type
REMARK                         _______ _______ _______ _____ _____    ______ ____
ROOT
ATOM      1  C   UNL     1       7.369   7.053  17.794  0.00  0.00    +0.000 A 
ATOM      2  C   UNL     1       8.104   6.526  18.864  0.00  0.00    +0.000 A 
ATOM      3  C   UNL     1       7.608   5.502  19.652  0.00  0.00    +0.000 A 
ATOM      4  C   UNL     1       6.326   5.049  19.370  0.00  0.00    +0.000 A 
ATOM      5  N   UNL     1       5.621   4.080  20.031  0.00  0.00    +0.000 N 
ATOM      6  C   UNL     1       4.383   3.911  19.479  0.00  0.00    +0.000 A 
ATOM      7  C   UNL     1       3.358   3.048  19.875  0.00  0.00    +0.000 A 
ATOM      8  C   UNL     1       2.183   3.063  19.128  0.00  0.00    +0.000 A 
ATOM      9  C   UNL     1       2.027   3.901  18.022  0.00  0.00    +0.000 A 
ATOM     10  C   UNL     1       0.762   3.918  17.212  0.00  0.00    +0.000 C 
ATOM     11  C   UNL     1       3.083   4.765  17.657  0.00  0.00    +0.000 A 
ATOM     12  C   UNL     1       4.292   4.785  18.395  0.00  0.00    +0.000 A 
ATOM     13  C   UNL     1       5.532   5.532  18.325  0.00  0.00    +0.000 A 
ATOM     14  C   UNL     1       6.065   6.559  17.475  0.00  0.00    +0.000 A 
ATOM     15  H   UNL     1       5.967   3.573  20.831  0.00  0.00    +0.000 HD
ENDROOT
BRANCH   1  17
ATOM     16  C   UNL     1       8.167   9.294  17.695  0.00  0.00    +0.000 C 
ATOM     17  O   UNL     1       7.874   8.073  17.011  0.00  0.00    +0.000 OA
ENDBRANCH   1  17
BRANCH   8  18
ATOM     18  O   UNL     1       1.153   2.240  19.490  0.00  0.00    +0.000 OA
ATOM     19  H   UNL     1       0.793   1.817  18.686  0.00  0.00    +0.000 HD
ENDBRANCH   8  18
BRANCH  14  20
ATOM     20  C   UNL     1       5.321   7.065  16.240  0.00  0.00    +0.000 C 
BRANCH  20  21
ATOM     21  C   UNL     1       5.056   6.024  15.177  0.00  0.00    +0.000 C 
ATOM     22  C   UNL     1       5.893   5.057  14.736  0.00  0.00    +0.000 C 
ATOM     23  C   UNL     1       7.302   4.825  15.215  0.00  0.00    +0.000 C 
ATOM     24  C   UNL     1       5.466   4.098  13.652  0.00  0.00    +0.000 C 
ENDBRANCH  20  21
ENDBRANCH  14  20
TORSDOF 4
ENDMDL
MODEL 5
REMARK VINA RESULT:      -6.6      9.650     12.281
REMARK  Name = 
REMARK  8 active torsions:
REMARK  status: ('A' for Active; 'I' for Inactive)
REMARK    1  A    between atoms: C_1  and  O_2
REMARK    2  A    between atoms: O_2  and  C_3
REMARK    3  A    between atoms: C_10  and  O_11
REMARK    4  A    between atoms: C_12  and  C_13
REMARK    5  A    between atoms: C_17  and  C_18
REMARK    6  A    between atoms: C_18  and  C_19
REMARK    7  A    between atoms: C_20  and  C_21
REMARK    8  A    between atoms: C_20  and  C_22
REMARK                            x       y       z     vdW  Elec       q    Type
REMARK                         _______ _______ _______ _____ _____    ______ ____
ROOT
ATOM      1  C   UNL     1      -3.572  11.444  17.373  0.00  0.00    +0.000 A 
ATOM      2  C   UNL     1      -2.173  11.522  17.389  0.00  0.00    +0.000 A 
ATOM      3  C   UNL     1      -1.479  11.904  18.524  0.00  0.00    +0.000 A 
ATOM      4  C   UNL     1      -2.229  12.259  19.637  0.00  0.00    +0.000 A 
ATOM      5  N   UNL     1      -1.767  12.701  20.847  0.00  0.00    +0.000 N 
ATOM      6  C   UNL     1      -2.801  12.968  21.699  0.00  0.00    +0.000 A 
ATOM      7  C   UNL     1      -2.753  13.461  23.006  0.00  0.00    +0.000 A 
ATOM      8  C   UNL     1      -3.965  13.638  23.669  0.00  0.00    +0.000 A 
ATOM      9  C   UNL     1      -5.185  13.335  23.061  0.00  0.00    +0.000 A 
ATOM     10  C   UNL     1      -6.494  13.522  23.774  0.00  0.00    +0.000 C 
ATOM     11  C   UNL     1      -5.193  12.846  21.736  0.00  0.00    +0.000 A 
ATOM     12  C   UNL     1      -3.983  12.659  21.025  0.00  0.00    +0.000 A 
ATOM     13  C   UNL     1      -3.627  12.215  19.692  0.00  0.00    +0.000 A 
ATOM     14  C   UNL     1      -4.346  11.769  18.533  0.00  0.00    +0.000 A 
ATOM     15  H   UNL     1      -0.792  12.828  21.069  0.00  0.00    +0.000 HD
ENDROOT
BRANCH   1  17
ATOM     16  C   UNL     1      -3.449  10.564  15.165  0.00  0.00    +0.000 C 
ATOM     17  O   UNL     1      -4.256  11.058  16.238  0.00  0.00    +0.000 OA
ENDBRANCH   1  17
BRANCH   8  18
ATOM     18  O   UNL     1      -3.960  14.126  24.946  0.00  0.00    +0.000 OA
ATOM     19  H   UNL     1      -4.761  13.807  25.406  0.00  0.00    +0.000 HD
ENDBRANCH   8  18
BRANCH  14  20
ATOM     20  C   UNL     1      -5.862  11.574  18.536  0.00  0.00    +0.000 C 
BRANCH  20  21
ATOM     21  C   UNL     1      -6.335  10.219  19.007  0.00  0.00    +0.000 C 
ATOM     22  C   UNL     1      -7.193   9.944  20.018  0.00  0.00    +0.000 C 
ATOM     23  C   UNL     1      -7.854  10.958  20.913  0.00  0.00    +0.000 C 
ATOM     24  C   UNL     1      -7.552   8.519  20.361  0.00  0.00    +0.000 C 
ENDBRANCH  20  21
ENDBRANCH  14  20
TORSDOF 4
ENDMDL
MODEL 6
REMARK VINA RESULT:      -6.5      2.477      5.370
REMARK  Name = 
REMARK  8 active torsions:
REMARK  status: ('A' for Active; 'I' for Inactive)
REMARK    1  A    between atoms: C_1  and  O_2
REMARK    2  A    between atoms: O_2  and  C_3
REMARK    3  A    between atoms: C_10  and  O_11
REMARK    4  A    between atoms: C_12  and  C_13
REMARK    5  A    between atoms: C_17  and  C_18
REMARK    6  A    between atoms: C_18  and  C_19
REMARK    7  A    between atoms: C_20  and  C_21
REMARK    8  A    between atoms: C_20  and  C_22
REMARK                            x       y       z     vdW  Elec       q    Type
REMARK                         _______ _______ _______ _____ _____    ______ ____
ROOT
ATOM      1  C   UNL     1       3.083   2.746  19.099  0.00  0.00    +0.000 A 
ATOM      2  C   UNL     1       2.752   2.447  20.427  0.00  0.00    +0.000 A 
ATOM      3  C   UNL     1       2.234   3.405  21.282  0.00  0.00    +0.000 A 
ATOM      4  C   UNL     1       2.103   4.694  20.783  0.00  0.00    +0.000 A 
ATOM      5  N   UNL     1       1.653   5.803  21.448  0.00  0.00    +0.000 N 
ATOM      6  C   UNL     1       1.676   6.903  20.640  0.00  0.00    +0.000 A 
ATOM      7  C   UNL     1       1.326   8.221  20.944  0.00  0.00    +0.000 A 
ATOM      8  C   UNL     1       1.431   9.164  19.925  0.00  0.00    +0.000 A 
ATOM      9  C   UNL     1       1.864   8.816  18.644  0.00  0.00    +0.000 A 
ATOM     10  C   UNL     1       1.976   9.830  17.541  0.00  0.00    +0.000 C 
ATOM     11  C   UNL     1       2.215   7.474  18.376  0.00  0.00    +0.000 A 
ATOM     12  C   UNL     1       2.130   6.486  19.387  0.00  0.00    +0.000 A 
ATOM     13  C   UNL     1       2.421   5.069  19.474  0.00  0.00    +0.000 A 
ATOM     14  C   UNL     1       2.909   4.065  18.571  0.00  0.00    +0.000 A 
ATOM     15  H   UNL     1       1.363   5.805  22.414  0.00  0.00    +0.000 HD
ENDROOT
BRANCH   1  17
ATOM     16  C   UNL     1       4.372   0.757  18.878  0.00  0.00    +0.000 C 
ATOM     17  O   UNL     1       3.596   1.783  18.253  0.00  0.00    +0.000 OA
ENDBRANCH   1  17
BRANCH   8  18
ATOM     18  O   UNL     1       1.107  10.466  20.187  0.00  0.00    +0.000 OA
ATOM     19  H   UNL     1       0.161  10.511  20.428  0.00  0.00    +0.000 HD
ENDBRANCH   8  18
BRANCH  14  20
ATOM     20  C   UNL     1       3.170   4.352  17.093  0.00  0.00    +0.000 C 
BRANCH  20  21
ATOM     21  C   UNL     1       4.617   4.260  16.666  0.00  0.00    +0.000 C 
ATOM     22  C   UNL     1       5.431   5.266  16.268  0.00  0.00    +0.000 C 
ATOM     23  C   UNL     1       5.045   6.717  16.149  0.00  0.00    +0.000 C 
ATOM     24  C   UNL     1       6.859   4.992  15.865  0.00  0.00    +0.000 C 
ENDBRANCH  20  21
ENDBRANCH  14  20
TORSDOF 4
ENDMDL
MODEL 7
REMARK VINA RESULT:      -6.5      3.193      5.603
REMARK  Name = 
REMARK  8 active torsions:
REMARK  status: ('A' for Active; 'I' for Inactive)
REMARK    1  A    between atoms: C_1  and  O_2
REMARK    2  A    between atoms: O_2  and  C_3
REMARK    3  A    between atoms: C_10  and  O_11
REMARK    4  A    between atoms: C_12  and  C_13
REMARK    5  A    between atoms: C_17  and  C_18
REMARK    6  A    between atoms: C_18  and  C_19
REMARK    7  A    between atoms: C_20  and  C_21
REMARK    8  A    between atoms: C_20  and  C_22
REMARK                            x       y       z     vdW  Elec       q    Type
REMARK                         _______ _______ _______ _____ _____    ______ ____
ROOT
ATOM      1  C   UNL     1      -0.048   9.905  20.234  0.00  0.00    +0.000 A 
ATOM      2  C   UNL     1      -0.265   9.196  21.423  0.00  0.00    +0.000 A 
ATOM      3  C   UNL     1       0.448   8.050  21.728  0.00  0.00    +0.000 A 
ATOM      4  C   UNL     1       1.358   7.599  20.781  0.00  0.00    +0.000 A 
ATOM      5  N   UNL     1       2.142   6.480  20.846  0.00  0.00    +0.000 N 
ATOM      6  C   UNL     1       2.905   6.348  19.720  0.00  0.00    +0.000 A 
ATOM      7  C   UNL     1       3.808   5.335  19.387  0.00  0.00    +0.000 A 
ATOM      8  C   UNL     1       4.472   5.444  18.168  0.00  0.00    +0.000 A 
ATOM      9  C   UNL     1       4.254   6.521  17.307  0.00  0.00    +0.000 A 
ATOM     10  C   UNL     1       4.971   6.643  15.992  0.00  0.00    +0.000 C 
ATOM     11  C   UNL     1       3.328   7.522  17.675  0.00  0.00    +0.000 A 
ATOM     12  C   UNL     1       2.626   7.444  18.903  0.00  0.00    +0.000 A 
ATOM     13  C   UNL     1       1.621   8.248  19.570  0.00  0.00    +0.000 A 
ATOM     14  C   UNL     1       0.920   9.465  19.276  0.00  0.00    +0.000 A 
ATOM     15  H   UNL     1       2.140   5.830  21.617  0.00  0.00    +0.000 HD
ENDROOT
BRANCH   1  17
ATOM     16  C   UNL     1      -1.243  11.787  21.068  0.00  0.00    +0.000 C 
ATOM     17  O   UNL     1      -0.762  11.049  19.941  0.00  0.00    +0.000 OA
ENDBRANCH   1  17
BRANCH   8  18
ATOM     18  O   UNL     1       5.357   4.468  17.803  0.00  0.00    +0.000 OA
ATOM     19  H   UNL     1       5.594   3.948  18.595  0.00  0.00    +0.000 HD
ENDBRANCH   8  18
BRANCH  14  20
ATOM     20  C   UNL     1       1.225  10.306  18.036  0.00  0.00    +0.000 C 
BRANCH  20  21
ATOM     21  C   UNL     1       2.266  11.384  18.231  0.00  0.00    +0.000 C 
ATOM     22  C   UNL     1       2.067  12.715  18.369  0.00  0.00    +0.000 C 
ATOM     23  C   UNL     1       0.734  13.415  18.337  0.00  0.00    +0.000 C 
ATOM     24  C   UNL     1       3.231  13.658  18.548  0.00  0.00    +0.000 C 
ENDBRANCH  20  21
ENDBRANCH  14  20
TORSDOF 4
ENDMDL
MODEL 8
REMARK VINA RESULT:      -6.5      5.229      8.798
REMARK  Name = 
REMARK  8 active torsions:
REMARK  status: ('A' for Active; 'I' for Inactive)
REMARK    1  A    between atoms: C_1  and  O_2
REMARK    2  A    between atoms: O_2  and  C_3
REMARK    3  A    between atoms: C_10  and  O_11
REMARK    4  A    between atoms: C_12  and  C_13
REMARK    5  A    between atoms: C_17  and  C_18
REMARK    6  A    between atoms: C_18  and  C_19
REMARK    7  A    between atoms: C_20  and  C_21
REMARK    8  A    between atoms: C_20  and  C_22
REMARK                            x       y       z     vdW  Elec       q    Type
REMARK                         _______ _______ _______ _____ _____    ______ ____
ROOT
ATOM      1  C   UNL     1      -2.327  12.945  21.185  0.00  0.00    +0.000 A 
ATOM      2  C   UNL     1      -2.463  12.628  22.543  0.00  0.00    +0.000 A 
ATOM      3  C   UNL     1      -1.758  11.586  23.120  0.00  0.00    +0.000 A 
ATOM      4  C   UNL     1      -0.944  10.832  22.285  0.00  0.00    +0.000 A 
ATOM      5  N   UNL     1      -0.188   9.742  22.622  0.00  0.00    +0.000 N 
ATOM      6  C   UNL     1       0.473   9.248  21.533  0.00  0.00    +0.000 A 
ATOM      7  C   UNL     1       1.316   8.137  21.450  0.00  0.00    +0.000 A 
ATOM      8  C   UNL     1       1.878   7.850  20.209  0.00  0.00    +0.000 A 
ATOM      9  C   UNL     1       1.618   8.638  19.085  0.00  0.00    +0.000 A 
ATOM     10  C   UNL     1       2.224   8.333  17.745  0.00  0.00    +0.000 C 
ATOM     11  C   UNL     1       0.754   9.749  19.207  0.00  0.00    +0.000 A 
ATOM     12  C   UNL     1       0.156  10.070  20.450  0.00  0.00    +0.000 A 
ATOM     13  C   UNL     1      -0.766  11.084  20.921  0.00  0.00    +0.000 A 
ATOM     14  C   UNL     1      -1.457  12.196  20.331  0.00  0.00    +0.000 A 
ATOM     15  H   UNL     1      -0.142   9.348  23.549  0.00  0.00    +0.000 HD
ENDROOT
BRANCH   1  17
ATOM     16  C   UNL     1      -4.341  14.215  21.150  0.00  0.00    +0.000 C 
ATOM     17  O   UNL     1      -3.033  13.989  20.618  0.00  0.00    +0.000 OA
ENDBRANCH   1  17
BRANCH   8  18
ATOM     18  O   UNL     1       2.702   6.766  20.085  0.00  0.00    +0.000 OA
ATOM     19  H   UNL     1       3.369   6.957  19.398  0.00  0.00    +0.000 HD
ENDBRANCH   8  18
BRANCH  14  20
ATOM     20  C   UNL     1      -1.234  12.620  18.880  0.00  0.00    +0.000 C 
BRANCH  20  21
ATOM     21  C   UNL     1      -1.660  11.608  17.842  0.00  0.00    +0.000 C 
ATOM     22  C   UNL     1      -2.916  11.195  17.552  0.00  0.00    +0.000 C 
ATOM     23  C   UNL     1      -4.176  11.659  18.233  0.00  0.00    +0.000 C 
ATOM     24  C   UNL     1      -3.162  10.161  16.481  0.00  0.00    +0.000 C 
ENDBRANCH  20  21
ENDBRANCH  14  20
TORSDOF 4
ENDMDL
MODEL 9
REMARK VINA RESULT:      -6.4      2.363      4.652
REMARK  Name = 
REMARK  8 active torsions:
REMARK  status: ('A' for Active; 'I' for Inactive)
REMARK    1  A    between atoms: C_1  and  O_2
REMARK    2  A    between atoms: O_2  and  C_3
REMARK    3  A    between atoms: C_10  and  O_11
REMARK    4  A    between atoms: C_12  and  C_13
REMARK    5  A    between atoms: C_17  and  C_18
REMARK    6  A    between atoms: C_18  and  C_19
REMARK    7  A    between atoms: C_20  and  C_21
REMARK    8  A    between atoms: C_20  and  C_22
REMARK                            x       y       z     vdW  Elec       q    Type
REMARK                         _______ _______ _______ _____ _____    ______ ____
ROOT
ATOM      1  C   UNL     1       4.961   5.376  18.707  0.00  0.00    +0.000 A 
ATOM      2  C   UNL     1       6.211   5.938  18.999  0.00  0.00    +0.000 A 
ATOM      3  C   UNL     1       7.193   6.068  18.032  0.00  0.00    +0.000 A 
ATOM      4  C   UNL     1       6.909   5.571  16.768  0.00  0.00    +0.000 A 
ATOM      5  N   UNL     1       7.731   5.555  15.674  0.00  0.00    +0.000 N 
ATOM      6  C   UNL     1       7.115   4.972  14.604  0.00  0.00    +0.000 A 
ATOM      7  C   UNL     1       7.620   4.738  13.322  0.00  0.00    +0.000 A 
ATOM      8  C   UNL     1       6.772   4.128  12.401  0.00  0.00    +0.000 A 
ATOM      9  C   UNL     1       5.466   3.763  12.734  0.00  0.00    +0.000 A 
ATOM     10  C   UNL     1       4.548   3.107  11.742  0.00  0.00    +0.000 C 
ATOM     11  C   UNL     1       4.994   4.009  14.042  0.00  0.00    +0.000 A 
ATOM     12  C   UNL     1       5.826   4.621  15.011  0.00  0.00    +0.000 A 
ATOM     13  C   UNL     1       5.689   4.989  16.406  0.00  0.00    +0.000 A 
ATOM     14  C   UNL     1       4.650   4.901  17.393  0.00  0.00    +0.000 A 
ATOM     15  H   UNL     1       8.674   5.912  15.669  0.00  0.00    +0.000 HD
ENDROOT
BRANCH   1  17
ATOM     16  C   UNL     1       3.047   6.329  19.753  0.00  0.00    +0.000 C 
ATOM     17  O   UNL     1       3.986   5.253  19.677  0.00  0.00    +0.000 OA
ENDBRANCH   1  17
BRANCH   8  18
ATOM     18  O   UNL     1       7.233   3.874  11.139  0.00  0.00    +0.000 OA
ATOM     19  H   UNL     1       7.693   3.012  11.141  0.00  0.00    +0.000 HD
ENDBRANCH   8  18
BRANCH  14  20
ATOM     20  C   UNL     1       3.248   4.391  17.061  0.00  0.00    +0.000 C 
BRANCH  20  21
ATOM     21  C   UNL     1       2.918   3.019  17.602  0.00  0.00    +0.000 C 
ATOM     22  C   UNL     1       1.920   2.680  18.452  0.00  0.00    +0.000 C 
ATOM     23  C   UNL     1       0.920   3.627  19.059  0.00  0.00    +0.000 C 
ATOM     24  C   UNL     1       1.739   1.251  18.900  0.00  0.00    +0.000 C 
ENDBRANCH  20  21
ENDBRANCH  14  20
TORSDOF 4
ENDMDL
