MODEL 1
REMARK VINA RESULT:      -6.9      0.000      0.000
REMARK  Name = 
REMARK  7 active torsions:
REMARK  status: ('A' for Active; 'I' for Inactive)
REMARK    1  A    between atoms: C_1  and  C_2
REMARK    2  A    between atoms: N_4  and  C_5
REMARK    3  A    between atoms: N_4  and  C_12
REMARK    4  A    between atoms: C_5  and  C_6
REMARK    5  A    between atoms: C_12  and  C_13
REMARK    6  A    between atoms: N_16  and  C_17
REMARK    7  A    between atoms: C_17  and  C_18
REMARK                            x       y       z     vdW  Elec       q    Type
REMARK                         _______ _______ _______ _____ _____    ______ ____
ROOT
ATOM      1  C   UNL     1       2.209   6.224  18.971  0.00  0.00    +0.000 C 
ATOM      2  C   UNL     1       1.685   7.335  18.026  0.00  0.00    +0.000 C 
ATOM      3  C   UNL     1       1.912   8.736  18.590  0.00  0.00    +0.000 C 
ATOM      4  N   UNL     1       1.204   8.881  19.871  0.00  0.00    +0.000 NA
ATOM      5  C   UNL     1       1.623   7.862  20.847  0.00  0.00    +0.000 C 
ATOM      6  C   UNL     1       1.516   6.420  20.318  0.00  0.00    +0.000 C 
ENDROOT
BRANCH   1   7
ATOM      7  C   UNL     1       3.745   6.207  19.134  0.00  0.00    +0.000 C 
BRANCH   7  11
ATOM      8  C   UNL     1       5.853   4.426  16.296  0.00  0.00    +0.000 C 
ATOM      9  C   UNL     1       4.966   5.401  17.062  0.00  0.00    +0.000 C 
ATOM     10  O   UNL     1       4.710   6.472  16.534  0.00  0.00    +0.000 OA
ATOM     11  N   UNL     1       4.495   5.141  18.360  0.00  0.00    +0.000 N 
BRANCH  11  12
ATOM     12  C   UNL     1       5.020   4.024  19.166  0.00  0.00    +0.000 C 
BRANCH  12  13
ATOM     13  C   UNL     1       4.079   2.808  19.174  0.00  0.00    +0.000 C 
ATOM     14  C   UNL     1       3.334   2.629  20.498  0.00  0.00    +0.000 C 
ATOM     15  C   UNL     1       1.844   2.886  20.557  0.00  0.00    +0.000 C 
ATOM     16  C   UNL     1       1.057   2.802  19.266  0.00  0.00    +0.000 C 
ATOM     17  C   UNL     1       1.782   3.029  17.952  0.00  0.00    +0.000 C 
ATOM     18  C   UNL     1       3.269   2.746  17.882  0.00  0.00    +0.000 C 
ENDBRANCH  12  13
ENDBRANCH  11  12
ENDBRANCH   7  11
ENDBRANCH   1   7
BRANCH   4  19
ATOM     19  C   UNL     1       1.361  10.246  20.423  0.00  0.00    +0.000 C 
BRANCH  19  20
ATOM     20  C   UNL     1       0.091  10.750  21.087  0.00  0.00    +0.000 A 
ATOM     21  C   UNL     1      -0.769  11.623  20.401  0.00  0.00    +0.000 A 
ATOM     22  C   UNL     1      -1.835  12.234  21.064  0.00  0.00    +0.000 A 
ATOM     23  C   UNL     1      -2.073  11.943  22.405  0.00  0.00    +0.000 A 
ATOM     24 CL   UNL     1      -3.352  12.737  23.239  0.00  0.00    +0.000 Cl
ATOM     25  C   UNL     1      -1.270  11.027  23.081  0.00  0.00    +0.000 A 
ATOM     26  C   UNL     1      -0.189  10.434  22.426  0.00  0.00    +0.000 A 
ENDBRANCH  19  20
ENDBRANCH   4  19
TORSDOF 6
ENDMDL
MODEL 2
REMARK VINA RESULT:      -6.9      2.595      3.958
REMARK  Name = 
REMARK  7 active torsions:
REMARK  status: ('A' for Active; 'I' for Inactive)
REMARK    1  A    between atoms: C_1  and  C_2
REMARK    2  A    between atoms: N_4  and  C_5
REMARK    3  A    between atoms: N_4  and  C_12
REMARK    4  A    between atoms: C_5  and  C_6
REMARK    5  A    between atoms: C_12  and  C_13
REMARK    6  A    between atoms: N_16  and  C_17
REMARK    7  A    between atoms: C_17  and  C_18
REMARK                            x       y       z     vdW  Elec       q    Type
REMARK                         _______ _______ _______ _____ _____    ______ ____
ROOT
ATOM      1  C   UNL     1       2.753   6.904  18.762  0.00  0.00    +0.000 C 
ATOM      2  C   UNL     1       2.311   7.445  20.146  0.00  0.00    +0.000 C 
ATOM      3  C   UNL     1       1.012   8.245  20.072  0.00  0.00    +0.000 C 
ATOM      4  N   UNL     1       1.188   9.405  19.184  0.00  0.00    +0.000 NA
ATOM      5  C   UNL     1       1.619   9.002  17.835  0.00  0.00    +0.000 C 
ATOM      6  C   UNL     1       2.873   8.108  17.830  0.00  0.00    +0.000 C 
ENDROOT
BRANCH   1   7
ATOM      7  C   UNL     1       1.807   5.835  18.171  0.00  0.00    +0.000 C 
BRANCH   7  11
ATOM      8  C   UNL     1       1.761   2.287  19.924  0.00  0.00    +0.000 C 
ATOM      9  C   UNL     1       1.591   3.773  19.631  0.00  0.00    +0.000 C 
ATOM     10  O   UNL     1       0.903   4.428  20.399  0.00  0.00    +0.000 OA
ATOM     11  N   UNL     1       2.134   4.390  18.492  0.00  0.00    +0.000 N 
BRANCH  11  12
ATOM     12  C   UNL     1       2.697   3.606  17.379  0.00  0.00    +0.000 C 
BRANCH  12  13
ATOM     13  C   UNL     1       4.235   3.597  17.380  0.00  0.00    +0.000 C 
ATOM     14  C   UNL     1       4.846   4.467  16.281  0.00  0.00    +0.000 C 
ATOM     15  C   UNL     1       5.562   5.748  16.654  0.00  0.00    +0.000 C 
ATOM     16  C   UNL     1       6.102   5.875  18.063  0.00  0.00    +0.000 C 
ATOM     17  C   UNL     1       5.466   5.050  19.167  0.00  0.00    +0.000 C 
ATOM     18  C   UNL     1       4.772   3.753  18.801  0.00  0.00    +0.000 C 
ENDBRANCH  12  13
ENDBRANCH  11  12
ENDBRANCH   7  11
ENDBRANCH   1   7
BRANCH   4  19
ATOM     19  C   UNL     1      -0.038  10.232  19.129  0.00  0.00    +0.000 C 
BRANCH  19  20
ATOM     20  C   UNL     1       0.265  11.719  19.209  0.00  0.00    +0.000 A 
ATOM     21  C   UNL     1      -0.581  12.650  18.585  0.00  0.00    +0.000 A 
ATOM     22  C   UNL     1      -0.214  13.994  18.496  0.00  0.00    +0.000 A 
ATOM     23  C   UNL     1       0.982  14.423  19.067  0.00  0.00    +0.000 A 
ATOM     24 CL   UNL     1       1.464  16.068  18.909  0.00  0.00    +0.000 Cl
ATOM     25  C   UNL     1       1.801  13.525  19.748  0.00  0.00    +0.000 A 
ATOM     26  C   UNL     1       1.446  12.176  19.817  0.00  0.00    +0.000 A 
ENDBRANCH  19  20
ENDBRANCH   4  19
TORSDOF 6
ENDMDL
MODEL 3
REMARK VINA RESULT:      -6.9      3.632      9.196
REMARK  Name = 
REMARK  7 active torsions:
REMARK  status: ('A' for Active; 'I' for Inactive)
REMARK    1  A    between atoms: C_1  and  C_2
REMARK    2  A    between atoms: N_4  and  C_5
REMARK    3  A    between atoms: N_4  and  C_12
REMARK    4  A    between atoms: C_5  and  C_6
REMARK    5  A    between atoms: C_12  and  C_13
REMARK    6  A    between atoms: N_16  and  C_17
REMARK    7  A    between atoms: C_17  and  C_18
REMARK                            x       y       z     vdW  Elec       q    Type
REMARK                         _______ _______ _______ _____ _____    ______ ____
ROOT
ATOM      1  C   UNL     1      -0.006  10.066  20.529  0.00  0.00    +0.000 C 
ATOM      2  C   UNL     1       0.328   8.635  21.022  0.00  0.00    +0.000 C 
ATOM      3  C   UNL     1       1.668   8.132  20.489  0.00  0.00    +0.000 C 
ATOM      4  N   UNL     1       1.639   8.093  19.019  0.00  0.00    +0.000 NA
ATOM      5  C   UNL     1       1.319   9.409  18.442  0.00  0.00    +0.000 C 
ATOM      6  C   UNL     1       0.027  10.031  19.003  0.00  0.00    +0.000 C 
ENDROOT
BRANCH   1   7
ATOM      7  C   UNL     1       0.936  11.160  21.081  0.00  0.00    +0.000 C 
BRANCH   7  11
ATOM      8  C   UNL     1       0.769  14.838  19.628  0.00  0.00    +0.000 C 
ATOM      9  C   UNL     1       1.235  13.436  20.004  0.00  0.00    +0.000 C 
ATOM     10  O   UNL     1       2.260  13.020  19.485  0.00  0.00    +0.000 OA
ATOM     11  N   UNL     1       0.505  12.596  20.861  0.00  0.00    +0.000 N 
BRANCH  11  12
ATOM     12  C   UNL     1      -0.877  12.913  21.265  0.00  0.00    +0.000 C 
BRANCH  12  13
ATOM     13  C   UNL     1      -1.078  12.846  22.787  0.00  0.00    +0.000 C 
ATOM     14  C   UNL     1      -1.102  14.223  23.455  0.00  0.00    +0.000 C 
ATOM     15  C   UNL     1      -2.400  14.755  24.022  0.00  0.00    +0.000 C 
ATOM     16  C   UNL     1      -3.481  13.757  24.382  0.00  0.00    +0.000 C 
ATOM     17  C   UNL     1      -3.491  12.408  23.685  0.00  0.00    +0.000 C 
ATOM     18  C   UNL     1      -2.188  11.860  23.140  0.00  0.00    +0.000 C 
ENDBRANCH  12  13
ENDBRANCH  11  12
ENDBRANCH   7  11
ENDBRANCH   1   7
BRANCH   4  19
ATOM     19  C   UNL     1       2.906   7.561  18.468  0.00  0.00    +0.000 C 
BRANCH  19  20
ATOM     20  C   UNL     1       2.979   6.046  18.548  0.00  0.00    +0.000 A 
ATOM     21  C   UNL     1       4.079   5.420  19.158  0.00  0.00    +0.000 A 
ATOM     22  C   UNL     1       4.243   4.036  19.073  0.00  0.00    +0.000 A 
ATOM     23  C   UNL     1       3.289   3.265  18.414  0.00  0.00    +0.000 A 
ATOM     24 CL   UNL     1       3.519   1.567  18.259  0.00  0.00    +0.000 Cl
ATOM     25  C   UNL     1       2.158   3.864  17.862  0.00  0.00    +0.000 A 
ATOM     26  C   UNL     1       2.004   5.250  17.926  0.00  0.00    +0.000 A 
ENDBRANCH  19  20
ENDBRANCH   4  19
TORSDOF 6
ENDMDL
MODEL 4
REMARK VINA RESULT:      -6.8      1.501      1.895
REMARK  Name = 
REMARK  7 active torsions:
REMARK  status: ('A' for Active; 'I' for Inactive)
REMARK    1  A    between atoms: C_1  and  C_2
REMARK    2  A    between atoms: N_4  and  C_5
REMARK    3  A    between atoms: N_4  and  C_12
REMARK    4  A    between atoms: C_5  and  C_6
REMARK    5  A    between atoms: C_12  and  C_13
REMARK    6  A    between atoms: N_16  and  C_17
REMARK    7  A    between atoms: C_17  and  C_18
REMARK                            x       y       z     vdW  Elec       q    Type
REMARK                         _______ _______ _______ _____ _____    ______ ____
ROOT
ATOM      1  C   UNL     1       2.567   6.116  18.961  0.00  0.00    +0.000 C 
ATOM      2  C   UNL     1       2.005   6.929  17.767  0.00  0.00    +0.000 C 
ATOM      3  C   UNL     1       2.046   8.436  18.017  0.00  0.00    +0.000 C 
ATOM      4  N   UNL     1       1.232   8.770  19.195  0.00  0.00    +0.000 NA
ATOM      5  C   UNL     1       1.677   8.041  20.394  0.00  0.00    +0.000 C 
ATOM      6  C   UNL     1       1.758   6.516  20.193  0.00  0.00    +0.000 C 
ENDROOT
BRANCH   1   7
ATOM      7  C   UNL     1       4.080   6.313  19.203  0.00  0.00    +0.000 C 
BRANCH   7  11
ATOM      8  C   UNL     1       6.828   4.756  16.818  0.00  0.00    +0.000 C 
ATOM      9  C   UNL     1       5.772   5.671  17.427  0.00  0.00    +0.000 C 
ATOM     10  O   UNL     1       5.639   6.786  16.943  0.00  0.00    +0.000 OA
ATOM     11  N   UNL     1       5.006   5.309  18.547  0.00  0.00    +0.000 N 
BRANCH  11  12
ATOM     12  C   UNL     1       5.333   4.123  19.359  0.00  0.00    +0.000 C 
BRANCH  12  13
ATOM     13  C   UNL     1       4.472   2.902  18.997  0.00  0.00    +0.000 C 
ATOM     14  C   UNL     1       3.466   2.527  20.087  0.00  0.00    +0.000 C 
ATOM     15  C   UNL     1       1.988   2.748  19.847  0.00  0.00    +0.000 C 
ATOM     16  C   UNL     1       1.506   2.832  18.414  0.00  0.00    +0.000 C 
ATOM     17  C   UNL     1       2.488   3.252  17.336  0.00  0.00    +0.000 C 
ATOM     18  C   UNL     1       3.967   3.007  17.561  0.00  0.00    +0.000 C 
ENDBRANCH  12  13
ENDBRANCH  11  12
ENDBRANCH   7  11
ENDBRANCH   1   7
BRANCH   4  19
ATOM     19  C   UNL     1       1.206  10.230  19.437  0.00  0.00    +0.000 C 
BRANCH  19  20
ATOM     20  C   UNL     1      -0.167  10.832  19.195  0.00  0.00    +0.000 A 
ATOM     21  C   UNL     1      -0.665  11.831  20.048  0.00  0.00    +0.000 A 
ATOM     22  C   UNL     1      -1.991  12.255  19.944  0.00  0.00    +0.000 A 
ATOM     23  C   UNL     1      -2.815  11.716  18.960  0.00  0.00    +0.000 A 
ATOM     24 CL   UNL     1      -4.465  12.196  18.866  0.00  0.00    +0.000 Cl
ATOM     25  C   UNL     1      -2.317  10.773  18.062  0.00  0.00    +0.000 A 
ATOM     26  C   UNL     1      -0.998  10.330  18.180  0.00  0.00    +0.000 A 
ENDBRANCH  19  20
ENDBRANCH   4  19
TORSDOF 6
ENDMDL
MODEL 5
REMARK VINA RESULT:      -6.7      5.614      6.772
REMARK  Name = 
REMARK  7 active torsions:
REMARK  status: ('A' for Active; 'I' for Inactive)
REMARK    1  A    between atoms: C_1  and  C_2
REMARK    2  A    between atoms: N_4  and  C_5
REMARK    3  A    between atoms: N_4  and  C_12
REMARK    4  A    between atoms: C_5  and  C_6
REMARK    5  A    between atoms: C_12  and  C_13
REMARK    6  A    between atoms: N_16  and  C_17
REMARK    7  A    between atoms: C_17  and  C_18
REMARK                            x       y       z     vdW  Elec       q    Type
REMARK                         _______ _______ _______ _____ _____    ______ ____
ROOT
ATOM      1  C   UNL     1       6.338   5.526  18.540  0.00  0.00    +0.000 C 
ATOM      2  C   UNL     1       5.635   6.782  17.968  0.00  0.00    +0.000 C 
ATOM      3  C   UNL     1       6.600   7.703  17.223  0.00  0.00    +0.000 C 
ATOM      4  N   UNL     1       7.654   8.169  18.138  0.00  0.00    +0.000 NA
ATOM      5  C   UNL     1       8.385   7.047  18.749  0.00  0.00    +0.000 C 
ATOM      6  C   UNL     1       7.470   6.018  19.439  0.00  0.00    +0.000 C 
ENDROOT
BRANCH   1   7
ATOM      7  C   UNL     1       6.867   4.553  17.463  0.00  0.00    +0.000 C 
BRANCH   7  11
ATOM      8  C   UNL     1       5.576   4.229  13.735  0.00  0.00    +0.000 C 
ATOM      9  C   UNL     1       6.382   4.602  14.975  0.00  0.00    +0.000 C 
ATOM     10  O   UNL     1       7.467   5.137  14.806  0.00  0.00    +0.000 OA
ATOM     11  N   UNL     1       5.957   4.296  16.278  0.00  0.00    +0.000 N 
BRANCH  11  12
ATOM     12  C   UNL     1       4.827   3.385  16.532  0.00  0.00    +0.000 C 
BRANCH  12  13
ATOM     13  C   UNL     1       4.069   3.729  17.824  0.00  0.00    +0.000 C 
ATOM     14  C   UNL     1       2.851   4.625  17.591  0.00  0.00    +0.000 C 
ATOM     15  C   UNL     1       1.460   4.056  17.769  0.00  0.00    +0.000 C 
ATOM     16  C   UNL     1       1.300   2.831  18.644  0.00  0.00    +0.000 C 
ATOM     17  C   UNL     1       2.492   1.911  18.839  0.00  0.00    +0.000 C 
ATOM     18  C   UNL     1       3.887   2.484  18.688  0.00  0.00    +0.000 C 
ENDBRANCH  12  13
ENDBRANCH  11  12
ENDBRANCH   7  11
ENDBRANCH   1   7
BRANCH   4  19
ATOM     19  C   UNL     1       8.579   9.105  17.461  0.00  0.00    +0.000 C 
BRANCH  19  20
ATOM     20  C   UNL     1       8.943  10.292  18.338  0.00  0.00    +0.000 A 
ATOM     21  C   UNL     1       9.309  10.097  19.680  0.00  0.00    +0.000 A 
ATOM     22  C   UNL     1       9.464  11.187  20.537  0.00  0.00    +0.000 A 
ATOM     23  C   UNL     1       9.298  12.481  20.049  0.00  0.00    +0.000 A 
ATOM     24 CL   UNL     1       9.434  13.823  21.117  0.00  0.00    +0.000 Cl
ATOM     25  C   UNL     1       9.002  12.694  18.704  0.00  0.00    +0.000 A 
ATOM     26  C   UNL     1       8.822  11.603  17.851  0.00  0.00    +0.000 A 
ENDBRANCH  19  20
ENDBRANCH   4  19
TORSDOF 6
ENDMDL
MODEL 6
REMARK VINA RESULT:      -6.7      4.602      9.151
REMARK  Name = 
REMARK  7 active torsions:
REMARK  status: ('A' for Active; 'I' for Inactive)
REMARK    1  A    between atoms: C_1  and  C_2
REMARK    2  A    between atoms: N_4  and  C_5
REMARK    3  A    between atoms: N_4  and  C_12
REMARK    4  A    between atoms: C_5  and  C_6
REMARK    5  A    between atoms: C_12  and  C_13
REMARK    6  A    between atoms: N_16  and  C_17
REMARK    7  A    between atoms: C_17  and  C_18
REMARK                            x       y       z     vdW  Elec       q    Type
REMARK                         _______ _______ _______ _____ _____    ______ ____
ROOT
ATOM      1  C   UNL     1       5.294   4.273  19.180  0.00  0.00    +0.000 C 
ATOM      2  C   UNL     1       6.587   4.908  18.607  0.00  0.00    +0.000 C 
ATOM      3  C   UNL     1       6.328   5.716  17.337  0.00  0.00    +0.000 C 
ATOM      4  N   UNL     1       5.769   4.843  16.293  0.00  0.00    +0.000 NA
ATOM      5  C   UNL     1       4.533   4.178  16.738  0.00  0.00    +0.000 C 
ATOM      6  C   UNL     1       4.686   3.419  18.069  0.00  0.00    +0.000 C 
ENDROOT
BRANCH   1   7
ATOM      7  C   UNL     1       4.270   5.300  19.713  0.00  0.00    +0.000 C 
BRANCH   7  11
ATOM      8  C   UNL     1       0.714   3.662  20.290  0.00  0.00    +0.000 C 
ATOM      9  C   UNL     1       2.210   3.952  20.320  0.00  0.00    +0.000 C 
ATOM     10  O   UNL     1       2.896   3.318  21.107  0.00  0.00    +0.000 OA
ATOM     11  N   UNL     1       2.806   4.952  19.533  0.00  0.00    +0.000 N 
BRANCH  11  12
ATOM     12  C   UNL     1       2.001   5.950  18.807  0.00  0.00    +0.000 C 
BRANCH  12  13
ATOM     13  C   UNL     1       2.426   7.393  19.120  0.00  0.00    +0.000 C 
ATOM     14  C   UNL     1       2.328   8.329  17.914  0.00  0.00    +0.000 C 
ATOM     15  C   UNL     1       1.262   9.403  17.886  0.00  0.00    +0.000 C 
ATOM     16  C   UNL     1       0.683   9.863  19.207  0.00  0.00    +0.000 C 
ATOM     17  C   UNL     1       0.733   8.919  20.396  0.00  0.00    +0.000 C 
ATOM     18  C   UNL     1       1.816   7.860  20.439  0.00  0.00    +0.000 C 
ENDBRANCH  12  13
ENDBRANCH  11  12
ENDBRANCH   7  11
ENDBRANCH   1   7
BRANCH   4  19
ATOM     19  C   UNL     1       5.552   5.584  15.030  0.00  0.00    +0.000 C 
BRANCH  19  20
ATOM     20  C   UNL     1       5.961   4.776  13.810  0.00  0.00    +0.000 A 
ATOM     21  C   UNL     1       5.089   3.818  13.268  0.00  0.00    +0.000 A 
ATOM     22  C   UNL     1       5.525   2.948  12.267  0.00  0.00    +0.000 A 
ATOM     23  C   UNL     1       6.822   3.058  11.772  0.00  0.00    +0.000 A 
ATOM     24 CL   UNL     1       7.380   1.950  10.580  0.00  0.00    +0.000 Cl
ATOM     25  C   UNL     1       7.678   4.047  12.252  0.00  0.00    +0.000 A 
ATOM     26  C   UNL     1       7.251   4.903  13.269  0.00  0.00    +0.000 A 
ENDBRANCH  19  20
ENDBRANCH   4  19
TORSDOF 6
ENDMDL
MODEL 7
REMARK VINA RESULT:      -6.7      0.959      1.132
REMARK  Name = 
REMARK  7 active torsions:
REMARK  status: ('A' for Active; 'I' for Inactive)
REMARK    1  A    between atoms: C_1  and  C_2
REMARK    2  A    between atoms: N_4  and  C_5
REMARK    3  A    between atoms: N_4  and  C_12
REMARK    4  A    between atoms: C_5  and  C_6
REMARK    5  A    between atoms: C_12  and  C_13
REMARK    6  A    between atoms: N_16  and  C_17
REMARK    7  A    between atoms: C_17  and  C_18
REMARK                            x       y       z     vdW  Elec       q    Type
REMARK                         _______ _______ _______ _____ _____    ______ ____
ROOT
ATOM      1  C   UNL     1       2.368   6.073  19.002  0.00  0.00    +0.000 C 
ATOM      2  C   UNL     1       1.840   6.937  17.829  0.00  0.00    +0.000 C 
ATOM      3  C   UNL     1       2.028   8.433  18.076  0.00  0.00    +0.000 C 
ATOM      4  N   UNL     1       1.292   8.838  19.284  0.00  0.00    +0.000 NA
ATOM      5  C   UNL     1       1.713   8.067  20.466  0.00  0.00    +0.000 C 
ATOM      6  C   UNL     1       1.645   6.542  20.263  0.00  0.00    +0.000 C 
ENDROOT
BRANCH   1   7
ATOM      7  C   UNL     1       3.901   6.129  19.187  0.00  0.00    +0.000 C 
BRANCH   7  11
ATOM      8  C   UNL     1       6.207   4.417  16.463  0.00  0.00    +0.000 C 
ATOM      9  C   UNL     1       5.262   5.371  17.187  0.00  0.00    +0.000 C 
ATOM     10  O   UNL     1       5.032   6.449  16.661  0.00  0.00    +0.000 OA
ATOM     11  N   UNL     1       4.710   5.083  18.446  0.00  0.00    +0.000 N 
BRANCH  11  12
ATOM     12  C   UNL     1       5.191   3.956  19.265  0.00  0.00    +0.000 C 
BRANCH  12  13
ATOM     13  C   UNL     1       4.252   2.740  19.206  0.00  0.00    +0.000 C 
ATOM     14  C   UNL     1       3.348   2.614  20.433  0.00  0.00    +0.000 C 
ATOM     15  C   UNL     1       1.863   2.870  20.296  0.00  0.00    +0.000 C 
ATOM     16  C   UNL     1       1.242   2.732  18.921  0.00  0.00    +0.000 C 
ATOM     17  C   UNL     1       2.126   2.906  17.699  0.00  0.00    +0.000 C 
ATOM     18  C   UNL     1       3.609   2.623  17.827  0.00  0.00    +0.000 C 
ENDBRANCH  12  13
ENDBRANCH  11  12
ENDBRANCH   7  11
ENDBRANCH   1   7
BRANCH   4  19
ATOM     19  C   UNL     1       1.411  10.293  19.526  0.00  0.00    +0.000 C 
BRANCH  19  20
ATOM     20  C   UNL     1       0.070  10.938  19.837  0.00  0.00    +0.000 A 
ATOM     21  C   UNL     1      -0.963  10.920  18.887  0.00  0.00    +0.000 A 
ATOM     22  C   UNL     1      -2.126  11.664  19.091  0.00  0.00    +0.000 A 
ATOM     23  C   UNL     1      -2.281  12.398  20.265  0.00  0.00    +0.000 A 
ATOM     24 CL   UNL     1      -3.689  13.361  20.493  0.00  0.00    +0.000 Cl
ATOM     25  C   UNL     1      -1.294  12.372  21.247  0.00  0.00    +0.000 A 
ATOM     26  C   UNL     1      -0.120  11.647  21.034  0.00  0.00    +0.000 A 
ENDBRANCH  19  20
ENDBRANCH   4  19
TORSDOF 6
ENDMDL
MODEL 8
REMARK VINA RESULT:      -6.7      1.989      3.538
REMARK  Name = 
REMARK  7 active torsions:
REMARK  status: ('A' for Active; 'I' for Inactive)
REMARK    1  A    between atoms: C_1  and  C_2
REMARK    2  A    between atoms: N_4  and  C_5
REMARK    3  A    between atoms: N_4  and  C_12
REMARK    4  A    between atoms: C_5  and  C_6
REMARK    5  A    between atoms: C_12  and  C_13
REMARK    6  A    between atoms: N_16  and  C_17
REMARK    7  A    between atoms: C_17  and  C_18
REMARK                            x       y       z     vdW  Elec       q    Type
REMARK                         _______ _______ _______ _____ _____    ______ ____
ROOT
ATOM      1  C   UNL     1       2.789   6.878  18.679  0.00  0.00    +0.000 C 
ATOM      2  C   UNL     1       2.470   7.308  20.134  0.00  0.00    +0.000 C 
ATOM      3  C   UNL     1       1.146   8.061  20.243  0.00  0.00    +0.000 C 
ATOM      4  N   UNL     1       1.196   9.284  19.426  0.00  0.00    +0.000 NA
ATOM      5  C   UNL     1       1.503   8.989  18.017  0.00  0.00    +0.000 C 
ATOM      6  C   UNL     1       2.777   8.146  17.826  0.00  0.00    +0.000 C 
ENDROOT
BRANCH   1   7
ATOM      7  C   UNL     1       1.822   5.817  18.109  0.00  0.00    +0.000 C 
BRANCH   7  11
ATOM      8  C   UNL     1       1.744   2.266  19.856  0.00  0.00    +0.000 C 
ATOM      9  C   UNL     1       1.582   3.753  19.563  0.00  0.00    +0.000 C 
ATOM     10  O   UNL     1       0.888   4.410  20.324  0.00  0.00    +0.000 OA
ATOM     11  N   UNL     1       2.140   4.370  18.431  0.00  0.00    +0.000 N 
BRANCH  11  12
ATOM     12  C   UNL     1       2.714   3.585  17.324  0.00  0.00    +0.000 C 
BRANCH  12  13
ATOM     13  C   UNL     1       4.251   3.586  17.332  0.00  0.00    +0.000 C 
ATOM     14  C   UNL     1       4.861   4.478  16.249  0.00  0.00    +0.000 C 
ATOM     15  C   UNL     1       5.567   5.757  16.646  0.00  0.00    +0.000 C 
ATOM     16  C   UNL     1       6.101   5.865  18.059  0.00  0.00    +0.000 C 
ATOM     17  C   UNL     1       5.465   5.018  19.147  0.00  0.00    +0.000 C 
ATOM     18  C   UNL     1       4.781   3.723  18.756  0.00  0.00    +0.000 C 
ENDBRANCH  12  13
ENDBRANCH  11  12
ENDBRANCH   7  11
ENDBRANCH   1   7
BRANCH   4  19
ATOM     19  C   UNL     1      -0.054  10.066  19.549  0.00  0.00    +0.000 C 
BRANCH  19  20
ATOM     20  C   UNL     1       0.120  11.302  20.416  0.00  0.00    +0.000 A 
ATOM     21  C   UNL     1      -0.834  11.622  21.396  0.00  0.00    +0.000 A 
ATOM     22  C   UNL     1      -0.778  12.846  22.065  0.00  0.00    +0.000 A 
ATOM     23  C   UNL     1       0.255  13.738  21.791  0.00  0.00    +0.000 A 
ATOM     24 CL   UNL     1       0.293  15.270  22.574  0.00  0.00    +0.000 Cl
ATOM     25  C   UNL     1       1.247  13.407  20.870  0.00  0.00    +0.000 A 
ATOM     26  C   UNL     1       1.179  12.194  20.182  0.00  0.00    +0.000 A 
ENDBRANCH  19  20
ENDBRANCH   4  19
TORSDOF 6
ENDMDL
MODEL 9
REMARK VINA RESULT:      -6.7      3.652      9.176
REMARK  Name = 
REMARK  7 active torsions:
REMARK  status: ('A' for Active; 'I' for Inactive)
REMARK    1  A    between atoms: C_1  and  C_2
REMARK    2  A    between atoms: N_4  and  C_5
REMARK    3  A    between atoms: N_4  and  C_12
REMARK    4  A    between atoms: C_5  and  C_6
REMARK    5  A    between atoms: C_12  and  C_13
REMARK    6  A    between atoms: N_16  and  C_17
REMARK    7  A    between atoms: C_17  and  C_18
REMARK                            x       y       z     vdW  Elec       q    Type
REMARK                         _______ _______ _______ _____ _____    ______ ____
ROOT
ATOM      1  C   UNL     1      -0.106  10.944  19.975  0.00  0.00    +0.000 C 
ATOM      2  C   UNL     1      -0.220   9.706  20.899  0.00  0.00    +0.000 C 
ATOM      3  C   UNL     1       1.057   8.867  20.913  0.00  0.00    +0.000 C 
ATOM      4  N   UNL     1       1.347   8.376  19.557  0.00  0.00    +0.000 NA
ATOM      5  C   UNL     1       1.468   9.479  18.589  0.00  0.00    +0.000 C 
ATOM      6  C   UNL     1       0.258  10.430  18.583  0.00  0.00    +0.000 C 
ENDROOT
BRANCH   1   7
ATOM      7  C   UNL     1       0.910  12.002  20.459  0.00  0.00    +0.000 C 
BRANCH   7  11
ATOM      8  C   UNL     1       0.383  15.912  20.771  0.00  0.00    +0.000 C 
ATOM      9  C   UNL     1       0.984  14.536  20.508  0.00  0.00    +0.000 C 
ATOM     10  O   UNL     1       2.040  14.485  19.897  0.00  0.00    +0.000 OA
ATOM     11  N   UNL     1       0.342  13.343  20.880  0.00  0.00    +0.000 N 
BRANCH  11  12
ATOM     12  C   UNL     1      -1.061  13.324  21.329  0.00  0.00    +0.000 C 
BRANCH  12  13
ATOM     13  C   UNL     1      -1.198  13.010  22.828  0.00  0.00    +0.000 C 
ATOM     14  C   UNL     1      -1.201  14.259  23.711  0.00  0.00    +0.000 C 
ATOM     15  C   UNL     1      -2.477  14.677  24.409  0.00  0.00    +0.000 C 
ATOM     16  C   UNL     1      -3.536  13.622  24.645  0.00  0.00    +0.000 C 
ATOM     17  C   UNL     1      -3.569  12.403  23.740  0.00  0.00    +0.000 C 
ATOM     18  C   UNL     1      -2.287  11.966  23.060  0.00  0.00    +0.000 C 
ENDBRANCH  12  13
ENDBRANCH  11  12
ENDBRANCH   7  11
ENDBRANCH   1   7
BRANCH   4  19
ATOM     19  C   UNL     1       2.552   7.517  19.542  0.00  0.00    +0.000 C 
BRANCH  19  20
ATOM     20  C   UNL     1       2.210   6.045  19.376  0.00  0.00    +0.000 A 
ATOM     21  C   UNL     1       2.207   5.457  18.101  0.00  0.00    +0.000 A 
ATOM     22  C   UNL     1       1.718   4.162  17.919  0.00  0.00    +0.000 A 
ATOM     23  C   UNL     1       1.269   3.432  19.017  0.00  0.00    +0.000 A 
ATOM     24 CL   UNL     1       0.613   1.858  18.788  0.00  0.00    +0.000 Cl
ATOM     25  C   UNL     1       1.328   3.977  20.298  0.00  0.00    +0.000 A 
ATOM     26  C   UNL     1       1.795   5.281  20.478  0.00  0.00    +0.000 A 
ENDBRANCH  19  20
ENDBRANCH   4  19
TORSDOF 6
ENDMDL
