MODEL 1
REMARK VINA RESULT:      -6.9      0.000      0.000
REMARK  Name = 
REMARK  3 active torsions:
REMARK  status: ('A' for Active; 'I' for Inactive)
REMARK    1  A    between atoms: C_1  and  O_2
REMARK    2  A    between atoms: O_2  and  C_3
REMARK    3  A    between atoms: C_6  and  C_7
REMARK                            x       y       z     vdW  Elec       q    Type
REMARK                         _______ _______ _______ _____ _____    ______ ____
ROOT
ATOM      1  C   UNL     1       5.367   4.548  16.959  0.00  0.00    +0.000 A 
ATOM      2  C   UNL     1       5.793   3.913  15.808  0.00  0.00    +0.000 A 
ATOM      3  C   UNL     1       6.835   4.504  15.137  0.00  0.00    +0.000 A 
ATOM      4  N   UNL     1       7.428   5.639  15.543  0.00  0.00    +0.000 NA
ATOM      5  C   UNL     1       6.944   6.192  16.655  0.00  0.00    +0.000 A 
ATOM      6  N   UNL     1       7.547   7.349  17.103  0.00  0.00    +0.000 N 
ATOM      7  N   UNL     1       5.955   5.686  17.394  0.00  0.00    +0.000 NA
ATOM      8  H   UNL     1       8.494   7.393  16.752  0.00  0.00    +0.000 HD
ATOM      9  H   UNL     1       7.415   7.434  18.101  0.00  0.00    +0.000 HD
ENDROOT
BRANCH   1  13
ATOM     10  C   UNL     1       2.138   3.067  19.414  0.00  0.00    +0.000 A 
ATOM     11  C   UNL     1       3.439   3.115  19.906  0.00  0.00    +0.000 A 
ATOM     12  C   UNL     1       4.482   3.606  19.111  0.00  0.00    +0.000 A 
ATOM     13  C   UNL     1       4.256   4.040  17.792  0.00  0.00    +0.000 A 
ATOM     14  C   UNL     1       2.936   3.971  17.314  0.00  0.00    +0.000 A 
ATOM     15  C   UNL     1       1.890   3.488  18.111  0.00  0.00    +0.000 A 
BRANCH  10  17
ATOM     16  C   UNL     1       1.522   2.643  21.656  0.00  0.00    +0.000 C 
ATOM     17  O   UNL     1       1.200   2.560  20.271  0.00  0.00    +0.000 OA
ENDBRANCH  10  17
ENDBRANCH   1  13
TORSDOF 2
ENDMDL
MODEL 2
REMARK VINA RESULT:      -6.8      0.299      1.258
REMARK  Name = 
REMARK  3 active torsions:
REMARK  status: ('A' for Active; 'I' for Inactive)
REMARK    1  A    between atoms: C_1  and  O_2
REMARK    2  A    between atoms: O_2  and  C_3
REMARK    3  A    between atoms: C_6  and  C_7
REMARK                            x       y       z     vdW  Elec       q    Type
REMARK                         _______ _______ _______ _____ _____    ______ ____
ROOT
ATOM      1  C   UNL     1       5.392   4.386  16.799  0.00  0.00    +0.000 A 
ATOM      2  C   UNL     1       5.685   3.775  15.594  0.00  0.00    +0.000 A 
ATOM      3  C   UNL     1       6.686   4.349  14.849  0.00  0.00    +0.000 A 
ATOM      4  N   UNL     1       7.359   5.446  15.234  0.00  0.00    +0.000 NA
ATOM      5  C   UNL     1       7.001   5.978  16.403  0.00  0.00    +0.000 A 
ATOM      6  N   UNL     1       7.689   7.095  16.829  0.00  0.00    +0.000 N 
ATOM      7  N   UNL     1       6.063   5.484  17.212  0.00  0.00    +0.000 NA
ATOM      8  H   UNL     1       8.601   7.115  16.394  0.00  0.00    +0.000 HD
ATOM      9  H   UNL     1       7.652   7.150  17.837  0.00  0.00    +0.000 HD
ENDROOT
BRANCH   1  13
ATOM     10  C   UNL     1       2.311   2.932  19.452  0.00  0.00    +0.000 A 
ATOM     11  C   UNL     1       2.062   3.084  18.091  0.00  0.00    +0.000 A 
ATOM     12  C   UNL     1       3.066   3.546  17.232  0.00  0.00    +0.000 A 
ATOM     13  C   UNL     1       4.342   3.891  17.715  0.00  0.00    +0.000 A 
ATOM     14  C   UNL     1       4.565   3.740  19.094  0.00  0.00    +0.000 A 
ATOM     15  C   UNL     1       3.564   3.270  19.954  0.00  0.00    +0.000 A 
BRANCH  10  17
ATOM     16  C   UNL     1       1.399   2.619  21.609  0.00  0.00    +0.000 C 
ATOM     17  O   UNL     1       1.256   2.485  20.199  0.00  0.00    +0.000 OA
ENDBRANCH  10  17
ENDBRANCH   1  13
TORSDOF 2
ENDMDL
MODEL 3
REMARK VINA RESULT:      -6.7      0.882      1.074
REMARK  Name = 
REMARK  3 active torsions:
REMARK  status: ('A' for Active; 'I' for Inactive)
REMARK    1  A    between atoms: C_1  and  O_2
REMARK    2  A    between atoms: O_2  and  C_3
REMARK    3  A    between atoms: C_6  and  C_7
REMARK                            x       y       z     vdW  Elec       q    Type
REMARK                         _______ _______ _______ _____ _____    ______ ____
ROOT
ATOM      1  C   UNL     1       5.242   4.529  16.563  0.00  0.00    +0.000 A 
ATOM      2  C   UNL     1       5.598   3.920  15.374  0.00  0.00    +0.000 A 
ATOM      3  C   UNL     1       6.687   4.446  14.724  0.00  0.00    +0.000 A 
ATOM      4  N   UNL     1       7.388   5.496  15.183  0.00  0.00    +0.000 NA
ATOM      5  C   UNL     1       6.966   6.030  16.329  0.00  0.00    +0.000 A 
ATOM      6  N   UNL     1       7.679   7.098  16.832  0.00  0.00    +0.000 N 
ATOM      7  N   UNL     1       5.938   5.580  17.051  0.00  0.00    +0.000 NA
ATOM      8  H   UNL     1       8.624   7.072  16.473  0.00  0.00    +0.000 HD
ATOM      9  H   UNL     1       7.563   7.141  17.834  0.00  0.00    +0.000 HD
ENDROOT
BRANCH   1  13
ATOM     10  C   UNL     1       1.877   3.251  18.948  0.00  0.00    +0.000 A 
ATOM     11  C   UNL     1       2.150   4.605  18.773  0.00  0.00    +0.000 A 
ATOM     12  C   UNL     1       3.235   5.016  17.990  0.00  0.00    +0.000 A 
ATOM     13  C   UNL     1       4.093   4.083  17.380  0.00  0.00    +0.000 A 
ATOM     14  C   UNL     1       3.804   2.722  17.582  0.00  0.00    +0.000 A 
ATOM     15  C   UNL     1       2.714   2.309  18.357  0.00  0.00    +0.000 A 
BRANCH  10  17
ATOM     16  C   UNL     1       1.071   2.853  21.133  0.00  0.00    +0.000 C 
ATOM     17  O   UNL     1       0.799   2.963  19.740  0.00  0.00    +0.000 OA
ENDBRANCH  10  17
ENDBRANCH   1  13
TORSDOF 2
ENDMDL
MODEL 4
REMARK VINA RESULT:      -6.7      3.736      6.073
REMARK  Name = 
REMARK  3 active torsions:
REMARK  status: ('A' for Active; 'I' for Inactive)
REMARK    1  A    between atoms: C_1  and  O_2
REMARK    2  A    between atoms: O_2  and  C_3
REMARK    3  A    between atoms: C_6  and  C_7
REMARK                            x       y       z     vdW  Elec       q    Type
REMARK                         _______ _______ _______ _____ _____    ______ ____
ROOT
ATOM      1  C   UNL     1       3.107   4.187  18.877  0.00  0.00    +0.000 A 
ATOM      2  C   UNL     1       2.117   3.712  18.038  0.00  0.00    +0.000 A 
ATOM      3  C   UNL     1       1.116   2.982  18.631  0.00  0.00    +0.000 A 
ATOM      4  N   UNL     1       1.073   2.718  19.947  0.00  0.00    +0.000 NA
ATOM      5  C   UNL     1       2.076   3.202  20.679  0.00  0.00    +0.000 A 
ATOM      6  N   UNL     1       2.045   2.960  22.037  0.00  0.00    +0.000 N 
ATOM      7  N   UNL     1       3.080   3.943  20.207  0.00  0.00    +0.000 NA
ATOM      8  H   UNL     1       1.092   2.793  22.328  0.00  0.00    +0.000 HD
ATOM      9  H   UNL     1       2.562   3.681  22.521  0.00  0.00    +0.000 HD
ENDROOT
BRANCH   1  13
ATOM     10  C   UNL     1       6.437   6.538  17.451  0.00  0.00    +0.000 A 
ATOM     11  C   UNL     1       5.207   6.582  16.802  0.00  0.00    +0.000 A 
ATOM     12  C   UNL     1       4.126   5.827  17.273  0.00  0.00    +0.000 A 
ATOM     13  C   UNL     1       4.253   4.986  18.394  0.00  0.00    +0.000 A 
ATOM     14  C   UNL     1       5.509   4.949  19.025  0.00  0.00    +0.000 A 
ATOM     15  C   UNL     1       6.588   5.710  18.561  0.00  0.00    +0.000 A 
BRANCH  10  17
ATOM     16  C   UNL     1       7.885   8.387  17.703  0.00  0.00    +0.000 C 
ATOM     17  O   UNL     1       7.425   7.306  16.900  0.00  0.00    +0.000 OA
ENDBRANCH  10  17
ENDBRANCH   1  13
TORSDOF 2
ENDMDL
MODEL 5
REMARK VINA RESULT:      -6.7      3.715      5.945
REMARK  Name = 
REMARK  3 active torsions:
REMARK  status: ('A' for Active; 'I' for Inactive)
REMARK    1  A    between atoms: C_1  and  O_2
REMARK    2  A    between atoms: O_2  and  C_3
REMARK    3  A    between atoms: C_6  and  C_7
REMARK                            x       y       z     vdW  Elec       q    Type
REMARK                         _______ _______ _______ _____ _____    ______ ____
ROOT
ATOM      1  C   UNL     1       3.122   4.271  18.865  0.00  0.00    +0.000 A 
ATOM      2  C   UNL     1       2.083   3.831  18.067  0.00  0.00    +0.000 A 
ATOM      3  C   UNL     1       1.095   3.114  18.695  0.00  0.00    +0.000 A 
ATOM      4  N   UNL     1       1.108   2.829  20.008  0.00  0.00    +0.000 NA
ATOM      5  C   UNL     1       2.155   3.279  20.698  0.00  0.00    +0.000 A 
ATOM      6  N   UNL     1       2.184   3.015  22.052  0.00  0.00    +0.000 N 
ATOM      7  N   UNL     1       3.152   4.006  20.190  0.00  0.00    +0.000 NA
ATOM      8  H   UNL     1       1.242   2.864  22.386  0.00  0.00    +0.000 HD
ATOM      9  H   UNL     1       2.738   3.718  22.521  0.00  0.00    +0.000 HD
ENDROOT
BRANCH   1  13
ATOM     10  C   UNL     1       6.466   6.543  17.345  0.00  0.00    +0.000 A 
ATOM     11  C   UNL     1       6.602   5.754  18.484  0.00  0.00    +0.000 A 
ATOM     12  C   UNL     1       5.519   5.010  18.968  0.00  0.00    +0.000 A 
ATOM     13  C   UNL     1       4.261   5.054  18.339  0.00  0.00    +0.000 A 
ATOM     14  C   UNL     1       4.145   5.867  17.199  0.00  0.00    +0.000 A 
ATOM     15  C   UNL     1       5.230   6.605  16.708  0.00  0.00    +0.000 A 
BRANCH  10  17
ATOM     16  C   UNL     1       7.856   8.418  17.710  0.00  0.00    +0.000 C 
ATOM     17  O   UNL     1       7.584   7.234  16.968  0.00  0.00    +0.000 OA
ENDBRANCH  10  17
ENDBRANCH   1  13
TORSDOF 2
ENDMDL
MODEL 6
REMARK VINA RESULT:      -6.6      1.090      1.814
REMARK  Name = 
REMARK  3 active torsions:
REMARK  status: ('A' for Active; 'I' for Inactive)
REMARK    1  A    between atoms: C_1  and  O_2
REMARK    2  A    between atoms: O_2  and  C_3
REMARK    3  A    between atoms: C_6  and  C_7
REMARK                            x       y       z     vdW  Elec       q    Type
REMARK                         _______ _______ _______ _____ _____    ______ ____
ROOT
ATOM      1  C   UNL     1       5.225   4.591  17.031  0.00  0.00    +0.000 A 
ATOM      2  C   UNL     1       6.107   5.591  17.396  0.00  0.00    +0.000 A 
ATOM      3  C   UNL     1       7.107   5.877  16.499  0.00  0.00    +0.000 A 
ATOM      4  N   UNL     1       7.256   5.237  15.328  0.00  0.00    +0.000 NA
ATOM      5  C   UNL     1       6.370   4.276  15.064  0.00  0.00    +0.000 A 
ATOM      6  N   UNL     1       6.491   3.615  13.859  0.00  0.00    +0.000 N 
ATOM      7  N   UNL     1       5.349   3.940  15.853  0.00  0.00    +0.000 NA
ATOM      8  H   UNL     1       6.979   4.205  13.199  0.00  0.00    +0.000 HD
ATOM      9  H   UNL     1       5.590   3.251  13.582  0.00  0.00    +0.000 HD
ENDROOT
BRANCH   1  13
ATOM     10  C   UNL     1       1.947   3.339  19.548  0.00  0.00    +0.000 A 
ATOM     11  C   UNL     1       3.236   2.861  19.770  0.00  0.00    +0.000 A 
ATOM     12  C   UNL     1       4.298   3.277  18.959  0.00  0.00    +0.000 A 
ATOM     13  C   UNL     1       4.097   4.165  17.887  0.00  0.00    +0.000 A 
ATOM     14  C   UNL     1       2.785   4.624  17.675  0.00  0.00    +0.000 A 
ATOM     15  C   UNL     1       1.722   4.216  18.491  0.00  0.00    +0.000 A 
BRANCH  10  17
ATOM     16  C   UNL     1       1.402   2.624  21.733  0.00  0.00    +0.000 C 
ATOM     17  O   UNL     1       0.985   2.858  20.392  0.00  0.00    +0.000 OA
ENDBRANCH  10  17
ENDBRANCH   1  13
TORSDOF 2
ENDMDL
MODEL 7
REMARK VINA RESULT:      -6.6      3.526      6.053
REMARK  Name = 
REMARK  3 active torsions:
REMARK  status: ('A' for Active; 'I' for Inactive)
REMARK    1  A    between atoms: C_1  and  O_2
REMARK    2  A    between atoms: O_2  and  C_3
REMARK    3  A    between atoms: C_6  and  C_7
REMARK                            x       y       z     vdW  Elec       q    Type
REMARK                         _______ _______ _______ _____ _____    ______ ____
ROOT
ATOM      1  C   UNL     1       3.075   3.469  18.680  0.00  0.00    +0.000 A 
ATOM      2  C   UNL     1       1.932   2.969  18.085  0.00  0.00    +0.000 A 
ATOM      3  C   UNL     1       0.931   2.566  18.934  0.00  0.00    +0.000 A 
ATOM      4  N   UNL     1       1.024   2.632  20.272  0.00  0.00    +0.000 NA
ATOM      5  C   UNL     1       2.167   3.113  20.761  0.00  0.00    +0.000 A 
ATOM      6  N   UNL     1       2.281   3.208  22.132  0.00  0.00    +0.000 N 
ATOM      7  N   UNL     1       3.188   3.555  20.024  0.00  0.00    +0.000 NA
ATOM      8  H   UNL     1       1.360   3.266  22.544  0.00  0.00    +0.000 HD
ATOM      9  H   UNL     1       2.943   3.934  22.367  0.00  0.00    +0.000 HD
ENDROOT
BRANCH   1  13
ATOM     10  C   UNL     1       6.466   4.856  16.395  0.00  0.00    +0.000 A 
ATOM     11  C   UNL     1       5.293   4.462  15.757  0.00  0.00    +0.000 A 
ATOM     12  C   UNL     1       4.192   4.024  16.501  0.00  0.00    +0.000 A 
ATOM     13  C   UNL     1       4.242   3.943  17.905  0.00  0.00    +0.000 A 
ATOM     14  C   UNL     1       5.441   4.334  18.526  0.00  0.00    +0.000 A 
ATOM     15  C   UNL     1       6.541   4.782  17.783  0.00  0.00    +0.000 A 
BRANCH  10  17
ATOM     16  C   UNL     1       7.274   5.029  14.182  0.00  0.00    +0.000 C 
ATOM     17  O   UNL     1       7.482   5.257  15.571  0.00  0.00    +0.000 OA
ENDBRANCH  10  17
ENDBRANCH   1  13
TORSDOF 2
ENDMDL
MODEL 8
REMARK VINA RESULT:      -6.5      3.770      6.261
REMARK  Name = 
REMARK  3 active torsions:
REMARK  status: ('A' for Active; 'I' for Inactive)
REMARK    1  A    between atoms: C_1  and  O_2
REMARK    2  A    between atoms: O_2  and  C_3
REMARK    3  A    between atoms: C_6  and  C_7
REMARK                            x       y       z     vdW  Elec       q    Type
REMARK                         _______ _______ _______ _____ _____    ______ ____
ROOT
ATOM      1  C   UNL     1       3.110   4.619  19.239  0.00  0.00    +0.000 A 
ATOM      2  C   UNL     1       2.321   5.174  20.229  0.00  0.00    +0.000 A 
ATOM      3  C   UNL     1       1.249   4.423  20.644  0.00  0.00    +0.000 A 
ATOM      4  N   UNL     1       0.949   3.217  20.135  0.00  0.00    +0.000 NA
ATOM      5  C   UNL     1       1.755   2.765  19.175  0.00  0.00    +0.000 A 
ATOM      6  N   UNL     1       1.478   1.521  18.648  0.00  0.00    +0.000 N 
ATOM      7  N   UNL     1       2.834   3.403  18.719  0.00  0.00    +0.000 NA
ATOM      8  H   UNL     1       0.954   0.978  19.321  0.00  0.00    +0.000 HD
ATOM      9  H   UNL     1       2.326   1.113  18.280  0.00  0.00    +0.000 HD
ENDROOT
BRANCH   1  13
ATOM     10  C   UNL     1       6.565   6.630  17.605  0.00  0.00    +0.000 A 
ATOM     11  C   UNL     1       5.292   6.884  17.102  0.00  0.00    +0.000 A 
ATOM     12  C   UNL     1       4.172   6.238  17.641  0.00  0.00    +0.000 A 
ATOM     13  C   UNL     1       4.299   5.302  18.683  0.00  0.00    +0.000 A 
ATOM     14  C   UNL     1       5.595   5.054  19.166  0.00  0.00    +0.000 A 
ATOM     15  C   UNL     1       6.715   5.705  18.634  0.00  0.00    +0.000 A 
BRANCH  10  17
ATOM     16  C   UNL     1       8.028   8.485  17.665  0.00  0.00    +0.000 C 
ATOM     17  O   UNL     1       7.586   7.308  16.997  0.00  0.00    +0.000 OA
ENDBRANCH  10  17
ENDBRANCH   1  13
TORSDOF 2
ENDMDL
MODEL 9
REMARK VINA RESULT:      -6.5      3.746      6.141
REMARK  Name = 
REMARK  3 active torsions:
REMARK  status: ('A' for Active; 'I' for Inactive)
REMARK    1  A    between atoms: C_1  and  O_2
REMARK    2  A    between atoms: O_2  and  C_3
REMARK    3  A    between atoms: C_6  and  C_7
REMARK                            x       y       z     vdW  Elec       q    Type
REMARK                         _______ _______ _______ _____ _____    ______ ____
ROOT
ATOM      1  C   UNL     1       3.202   4.503  19.346  0.00  0.00    +0.000 A 
ATOM      2  C   UNL     1       2.615   4.913  20.529  0.00  0.00    +0.000 A 
ATOM      3  C   UNL     1       1.609   4.116  21.016  0.00  0.00    +0.000 A 
ATOM      4  N   UNL     1       1.187   2.998  20.402  0.00  0.00    +0.000 NA
ATOM      5  C   UNL     1       1.798   2.686  19.260  0.00  0.00    +0.000 A 
ATOM      6  N   UNL     1       1.395   1.533  18.619  0.00  0.00    +0.000 N 
ATOM      7  N   UNL     1       2.801   3.377  18.715  0.00  0.00    +0.000 NA
ATOM      8  H   UNL     1       0.980   0.902  19.290  0.00  0.00    +0.000 HD
ATOM      9  H   UNL     1       2.153   1.179  18.052  0.00  0.00    +0.000 HD
ENDROOT
BRANCH   1  13
ATOM     10  C   UNL     1       6.415   6.675  17.447  0.00  0.00    +0.000 A 
ATOM     11  C   UNL     1       6.663   5.854  18.543  0.00  0.00    +0.000 A 
ATOM     12  C   UNL     1       5.621   5.143  19.149  0.00  0.00    +0.000 A 
ATOM     13  C   UNL     1       4.296   5.253  18.692  0.00  0.00    +0.000 A 
ATOM     14  C   UNL     1       4.068   6.097  17.591  0.00  0.00    +0.000 A 
ATOM     15  C   UNL     1       5.110   6.803  16.977  0.00  0.00    +0.000 A 
BRANCH  10  17
ATOM     16  C   UNL     1       7.967   8.438  17.704  0.00  0.00    +0.000 C 
ATOM     17  O   UNL     1       7.503   7.330  16.940  0.00  0.00    +0.000 OA
ENDBRANCH  10  17
ENDBRANCH   1  13
TORSDOF 2
ENDMDL
