MODEL 1
REMARK VINA RESULT:      -7.8      0.000      0.000
REMARK  Name = 
REMARK  12 active torsions:
REMARK  status: ('A' for Active; 'I' for Inactive)
REMARK    1  A    between atoms: C_1  and  O_2
REMARK    2  A    between atoms: O_2  and  C_3
REMARK    3  A    between atoms: C_6  and  C_7
REMARK    4  A    between atoms: C_14  and  C_15
REMARK    5  A    between atoms: C_15  and  O_17
REMARK    6  A    between atoms: O_17  and  C_18
REMARK    7  A    between atoms: C_18  and  C_19
REMARK    8  A    between atoms: C_19  and  O_20
REMARK    9  A    between atoms: O_20  and  C_21
REMARK   10  A    between atoms: C_27  and  C_28
REMARK   11  A    between atoms: C_31  and  O_32
REMARK   12  A    between atoms: O_32  and  C_33
REMARK                            x       y       z     vdW  Elec       q    Type
REMARK                         _______ _______ _______ _____ _____    ______ ____
ROOT
ATOM      1  C   UNL     1       0.824  10.874  20.248  0.00  0.00    +0.000 C 
ATOM      2  C   UNL     1       1.394  10.739  18.821  0.00  0.00    +0.000 C 
ATOM      3  C   UNL     1       1.794   9.370  18.354  0.00  0.00    +0.000 C 
ATOM      4  O   UNL     1       2.132   9.200  17.181  0.00  0.00    +0.000 OA
ATOM      5  C   UNL     1       1.775   8.291  19.314  0.00  0.00    +0.000 A 
ATOM      6  C   UNL     1       1.344   8.431  20.608  0.00  0.00    +0.000 A 
ATOM      7  N   UNL     1       1.387   7.199  21.214  0.00  0.00    +0.000 N 
ATOM      8  C   UNL     1       1.882   6.262  20.326  0.00  0.00    +0.000 A 
ATOM      9  C   UNL     1       2.173   6.941  19.145  0.00  0.00    +0.000 A 
ATOM     10  C   UNL     1       2.724   6.442  17.862  0.00  0.00    +0.000 C 
ATOM     11  C   UNL     1       0.911   9.689  21.253  0.00  0.00    +0.000 C 
ATOM     12  H   UNL     1       1.102   6.990  22.164  0.00  0.00    +0.000 HD
ENDROOT
BRANCH   1  16
ATOM     13  C   UNL     1      -3.218  12.372  19.890  0.00  0.00    +0.000 A 
ATOM     14  C   UNL     1      -2.518  12.510  21.100  0.00  0.00    +0.000 A 
ATOM     15  C   UNL     1      -1.213  12.041  21.233  0.00  0.00    +0.000 A 
ATOM     16  C   UNL     1      -0.604  11.376  20.167  0.00  0.00    +0.000 A 
ATOM     17  C   UNL     1      -1.335  11.159  18.996  0.00  0.00    +0.000 A 
ATOM     18  C   UNL     1      -2.636  11.648  18.841  0.00  0.00    +0.000 A 
BRANCH  13  20
ATOM     19  C   UNL     1      -5.386  12.650  20.779  0.00  0.00    +0.000 C 
ATOM     20  O   UNL     1      -4.461  12.924  19.726  0.00  0.00    +0.000 OA
ENDBRANCH  13  20
BRANCH  18  21
ATOM     21  O   UNL     1      -3.134  11.337  17.606  0.00  0.00    +0.000 OA
ATOM     22  C   UNL     1      -3.094   9.994  17.165  0.00  0.00    +0.000 C 
ENDBRANCH  18  21
ENDBRANCH   1  16
BRANCH   8  23
ATOM     23  C   UNL     1       1.979   4.844  20.636  0.00  0.00    +0.000 C 
ATOM     24  O   UNL     1       1.035   4.081  20.786  0.00  0.00    +0.000 OA
BRANCH  23  25
ATOM     25  O   UNL     1       3.283   4.487  20.658  0.00  0.00    +0.000 OA
BRANCH  25  26
ATOM     26  C   UNL     1       3.633   3.142  20.285  0.00  0.00    +0.000 C 
BRANCH  26  27
ATOM     27  C   UNL     1       4.137   3.162  18.826  0.00  0.00    +0.000 C 
BRANCH  27  28
ATOM     28  O   UNL     1       5.386   3.873  18.754  0.00  0.00    +0.000 OA
BRANCH  28  29
ATOM     29  C   UNL     1       5.855   4.193  17.503  0.00  0.00    +0.000 A 
ATOM     30  C   UNL     1       4.946   4.026  16.449  0.00  0.00    +0.000 A 
ATOM     31  C   UNL     1       5.304   4.358  15.138  0.00  0.00    +0.000 A 
ATOM     32  C   UNL     1       6.572   4.868  14.879  0.00  0.00    +0.000 A 
ATOM     33  C   UNL     1       7.483   5.028  15.919  0.00  0.00    +0.000 A 
ATOM     34  C   UNL     1       7.130   4.692  17.229  0.00  0.00    +0.000 A 
ENDBRANCH  28  29
ENDBRANCH  27  28
ENDBRANCH  26  27
ENDBRANCH  25  26
ENDBRANCH  23  25
ENDBRANCH   8  23
TORSDOF 9
ENDMDL
MODEL 2
REMARK VINA RESULT:      -7.8      1.107      1.945
REMARK  Name = 
REMARK  12 active torsions:
REMARK  status: ('A' for Active; 'I' for Inactive)
REMARK    1  A    between atoms: C_1  and  O_2
REMARK    2  A    between atoms: O_2  and  C_3
REMARK    3  A    between atoms: C_6  and  C_7
REMARK    4  A    between atoms: C_14  and  C_15
REMARK    5  A    between atoms: C_15  and  O_17
REMARK    6  A    between atoms: O_17  and  C_18
REMARK    7  A    between atoms: C_18  and  C_19
REMARK    8  A    between atoms: C_19  and  O_20
REMARK    9  A    between atoms: O_20  and  C_21
REMARK   10  A    between atoms: C_27  and  C_28
REMARK   11  A    between atoms: C_31  and  O_32
REMARK   12  A    between atoms: O_32  and  C_33
REMARK                            x       y       z     vdW  Elec       q    Type
REMARK                         _______ _______ _______ _____ _____    ______ ____
ROOT
ATOM      1  C   UNL     1       0.822  10.886  19.955  0.00  0.00    +0.000 C 
ATOM      2  C   UNL     1       1.515  10.742  18.584  0.00  0.00    +0.000 C 
ATOM      3  C   UNL     1       2.010   9.382  18.189  0.00  0.00    +0.000 C 
ATOM      4  O   UNL     1       2.451   9.199  17.054  0.00  0.00    +0.000 OA
ATOM      5  C   UNL     1       1.956   8.326  19.175  0.00  0.00    +0.000 A 
ATOM      6  C   UNL     1       1.413   8.479  20.424  0.00  0.00    +0.000 A 
ATOM      7  N   UNL     1       1.457   7.265  21.066  0.00  0.00    +0.000 N 
ATOM      8  C   UNL     1       2.064   6.329  20.248  0.00  0.00    +0.000 A 
ATOM      9  C   UNL     1       2.423   6.992  19.076  0.00  0.00    +0.000 A 
ATOM     10  C   UNL     1       3.100   6.487  17.857  0.00  0.00    +0.000 C 
ATOM     11  C   UNL     1       0.875   9.731  20.997  0.00  0.00    +0.000 C 
ATOM     12  H   UNL     1       1.103   7.066  21.995  0.00  0.00    +0.000 HD
ENDROOT
BRANCH   1  16
ATOM     13  C   UNL     1      -3.307  12.089  19.487  0.00  0.00    +0.000 A 
ATOM     14  C   UNL     1      -2.670  11.340  18.483  0.00  0.00    +0.000 A 
ATOM     15  C   UNL     1      -1.344  10.937  18.618  0.00  0.00    +0.000 A 
ATOM     16  C   UNL     1      -0.614  11.323  19.744  0.00  0.00    +0.000 A 
ATOM     17  C   UNL     1      -1.221  12.144  20.698  0.00  0.00    +0.000 A 
ATOM     18  C   UNL     1      -2.560  12.534  20.586  0.00  0.00    +0.000 A 
BRANCH  13  20
ATOM     19  C   UNL     1      -5.373  11.635  18.443  0.00  0.00    +0.000 C 
ATOM     20  O   UNL     1      -4.639  12.396  19.403  0.00  0.00    +0.000 OA
ENDBRANCH  13  20
BRANCH  18  21
ATOM     21  O   UNL     1      -2.937  13.308  21.648  0.00  0.00    +0.000 OA
ATOM     22  C   UNL     1      -3.514  12.688  22.781  0.00  0.00    +0.000 C 
ENDBRANCH  18  21
ENDBRANCH   1  16
BRANCH   8  23
ATOM     23  C   UNL     1       2.195   4.925  20.604  0.00  0.00    +0.000 C 
ATOM     24  O   UNL     1       2.286   4.484  21.742  0.00  0.00    +0.000 OA
BRANCH  23  25
ATOM     25  O   UNL     1       2.123   4.178  19.480  0.00  0.00    +0.000 OA
BRANCH  25  26
ATOM     26  C   UNL     1       2.789   2.903  19.459  0.00  0.00    +0.000 C 
BRANCH  26  27
ATOM     27  C   UNL     1       3.991   3.003  18.496  0.00  0.00    +0.000 C 
BRANCH  27  28
ATOM     28  O   UNL     1       5.127   3.545  19.193  0.00  0.00    +0.000 OA
BRANCH  28  29
ATOM     29  C   UNL     1       5.880   4.484  18.531  0.00  0.00    +0.000 A 
ATOM     30  C   UNL     1       5.788   4.466  17.132  0.00  0.00    +0.000 A 
ATOM     31  C   UNL     1       6.481   5.402  16.359  0.00  0.00    +0.000 A 
ATOM     32  C   UNL     1       7.263   6.368  16.984  0.00  0.00    +0.000 A 
ATOM     33  C   UNL     1       7.367   6.387  18.371  0.00  0.00    +0.000 A 
ATOM     34  C   UNL     1       6.679   5.449  19.147  0.00  0.00    +0.000 A 
ENDBRANCH  28  29
ENDBRANCH  27  28
ENDBRANCH  26  27
ENDBRANCH  25  26
ENDBRANCH  23  25
ENDBRANCH   8  23
TORSDOF 9
ENDMDL
MODEL 3
REMARK VINA RESULT:      -7.7      1.256      2.173
REMARK  Name = 
REMARK  12 active torsions:
REMARK  status: ('A' for Active; 'I' for Inactive)
REMARK    1  A    between atoms: C_1  and  O_2
REMARK    2  A    between atoms: O_2  and  C_3
REMARK    3  A    between atoms: C_6  and  C_7
REMARK    4  A    between atoms: C_14  and  C_15
REMARK    5  A    between atoms: C_15  and  O_17
REMARK    6  A    between atoms: O_17  and  C_18
REMARK    7  A    between atoms: C_18  and  C_19
REMARK    8  A    between atoms: C_19  and  O_20
REMARK    9  A    between atoms: O_20  and  C_21
REMARK   10  A    between atoms: C_27  and  C_28
REMARK   11  A    between atoms: C_31  and  O_32
REMARK   12  A    between atoms: O_32  and  C_33
REMARK                            x       y       z     vdW  Elec       q    Type
REMARK                         _______ _______ _______ _____ _____    ______ ____
ROOT
ATOM      1  C   UNL     1       0.117  11.030  19.932  0.00  0.00    +0.000 C 
ATOM      2  C   UNL     1       1.018  10.974  18.680  0.00  0.00    +0.000 C 
ATOM      3  C   UNL     1       1.686   9.670  18.357  0.00  0.00    +0.000 C 
ATOM      4  O   UNL     1       2.307   9.548  17.300  0.00  0.00    +0.000 OA
ATOM      5  C   UNL     1       1.580   8.595  19.317  0.00  0.00    +0.000 A 
ATOM      6  C   UNL     1       0.846   8.676  20.471  0.00  0.00    +0.000 A 
ATOM      7  N   UNL     1       0.902   7.458  21.106  0.00  0.00    +0.000 N 
ATOM      8  C   UNL     1       1.705   6.595  20.383  0.00  0.00    +0.000 A 
ATOM      9  C   UNL     1       2.175   7.310  19.283  0.00  0.00    +0.000 A 
ATOM     10  C   UNL     1       3.069   6.889  18.177  0.00  0.00    +0.000 C 
ATOM     11  C   UNL     1       0.118   9.864  20.963  0.00  0.00    +0.000 C 
ATOM     12  H   UNL     1       0.432   7.212  21.969  0.00  0.00    +0.000 HD
ENDROOT
BRANCH   1  16
ATOM     13  C   UNL     1      -3.983  11.898  18.862  0.00  0.00    +0.000 A 
ATOM     14  C   UNL     1      -3.206  11.048  18.056  0.00  0.00    +0.000 A 
ATOM     15  C   UNL     1      -1.887  10.751  18.387  0.00  0.00    +0.000 A 
ATOM     16  C   UNL     1      -1.304  11.343  19.509  0.00  0.00    +0.000 A 
ATOM     17  C   UNL     1      -2.049  12.258  20.257  0.00  0.00    +0.000 A 
ATOM     18  C   UNL     1      -3.383  12.546  19.950  0.00  0.00    +0.000 A 
BRANCH  13  20
ATOM     19  C   UNL     1      -5.629  12.255  17.210  0.00  0.00    +0.000 C 
ATOM     20  O   UNL     1      -5.310  12.108  18.594  0.00  0.00    +0.000 OA
ENDBRANCH  13  20
BRANCH  18  21
ATOM     21  O   UNL     1      -3.909  13.444  20.836  0.00  0.00    +0.000 OA
ATOM     22  C   UNL     1      -4.120  13.046  22.177  0.00  0.00    +0.000 C 
ENDBRANCH  18  21
ENDBRANCH   1  16
BRANCH   8  23
ATOM     23  C   UNL     1       1.907   5.201  20.747  0.00  0.00    +0.000 C 
ATOM     24  O   UNL     1       2.882   4.752  21.334  0.00  0.00    +0.000 OA
BRANCH  23  25
ATOM     25  O   UNL     1       0.809   4.493  20.400  0.00  0.00    +0.000 OA
BRANCH  25  26
ATOM     26  C   UNL     1       0.989   3.187  19.824  0.00  0.00    +0.000 C 
BRANCH  26  27
ATOM     27  C   UNL     1       1.749   3.347  18.490  0.00  0.00    +0.000 C 
BRANCH  27  28
ATOM     28  O   UNL     1       3.041   2.721  18.590  0.00  0.00    +0.000 OA
BRANCH  28  29
ATOM     29  C   UNL     1       4.117   3.422  18.103  0.00  0.00    +0.000 A 
ATOM     30  C   UNL     1       4.110   3.673  16.724  0.00  0.00    +0.000 A 
ATOM     31  C   UNL     1       5.136   4.412  16.127  0.00  0.00    +0.000 A 
ATOM     32  C   UNL     1       6.171   4.911  16.911  0.00  0.00    +0.000 A 
ATOM     33  C   UNL     1       6.191   4.658  18.279  0.00  0.00    +0.000 A 
ATOM     34  C   UNL     1       5.168   3.916  18.878  0.00  0.00    +0.000 A 
ENDBRANCH  28  29
ENDBRANCH  27  28
ENDBRANCH  26  27
ENDBRANCH  25  26
ENDBRANCH  23  25
ENDBRANCH   8  23
TORSDOF 9
ENDMDL
MODEL 4
REMARK VINA RESULT:      -7.7      4.362      6.169
REMARK  Name = 
REMARK  12 active torsions:
REMARK  status: ('A' for Active; 'I' for Inactive)
REMARK    1  A    between atoms: C_1  and  O_2
REMARK    2  A    between atoms: O_2  and  C_3
REMARK    3  A    between atoms: C_6  and  C_7
REMARK    4  A    between atoms: C_14  and  C_15
REMARK    5  A    between atoms: C_15  and  O_17
REMARK    6  A    between atoms: O_17  and  C_18
REMARK    7  A    between atoms: C_18  and  C_19
REMARK    8  A    between atoms: C_19  and  O_20
REMARK    9  A    between atoms: O_20  and  C_21
REMARK   10  A    between atoms: C_27  and  C_28
REMARK   11  A    between atoms: C_31  and  O_32
REMARK   12  A    between atoms: O_32  and  C_33
REMARK                            x       y       z     vdW  Elec       q    Type
REMARK                         _______ _______ _______ _____ _____    ______ ____
ROOT
ATOM      1  C   UNL     1       1.573   7.649  18.535  0.00  0.00    +0.000 C 
ATOM      2  C   UNL     1       1.643   6.456  19.511  0.00  0.00    +0.000 C 
ATOM      3  C   UNL     1       2.914   5.660  19.555  0.00  0.00    +0.000 C 
ATOM      4  O   UNL     1       3.057   4.784  20.408  0.00  0.00    +0.000 OA
ATOM      5  C   UNL     1       3.934   5.953  18.573  0.00  0.00    +0.000 A 
ATOM      6  C   UNL     1       3.834   6.962  17.651  0.00  0.00    +0.000 A 
ATOM      7  N   UNL     1       5.005   7.007  16.932  0.00  0.00    +0.000 N 
ATOM      8  C   UNL     1       5.851   6.002  17.360  0.00  0.00    +0.000 A 
ATOM      9  C   UNL     1       5.174   5.304  18.358  0.00  0.00    +0.000 A 
ATOM     10  C   UNL     1       5.598   4.135  19.167  0.00  0.00    +0.000 C 
ATOM     11  C   UNL     1       2.672   7.852  17.451  0.00  0.00    +0.000 C 
ATOM     12  H   UNL     1       5.230   7.670  16.198  0.00  0.00    +0.000 HD
ENDROOT
BRANCH   1  16
ATOM     13  C   UNL     1       0.929  11.238  20.862  0.00  0.00    +0.000 A 
ATOM     14  C   UNL     1       1.107  11.320  19.471  0.00  0.00    +0.000 A 
ATOM     15  C   UNL     1       1.308  10.175  18.703  0.00  0.00    +0.000 A 
ATOM     16  C   UNL     1       1.387   8.929  19.326  0.00  0.00    +0.000 A 
ATOM     17  C   UNL     1       1.300   8.859  20.719  0.00  0.00    +0.000 A 
ATOM     18  C   UNL     1       1.072   9.998  21.499  0.00  0.00    +0.000 A 
BRANCH  13  20
ATOM     19  C   UNL     1       0.415  13.540  20.842  0.00  0.00    +0.000 C 
ATOM     20  O   UNL     1       0.627  12.350  21.603  0.00  0.00    +0.000 OA
ENDBRANCH  13  20
BRANCH  18  21
ATOM     21  O   UNL     1       0.997   9.678  22.826  0.00  0.00    +0.000 OA
ATOM     22  C   UNL     1      -0.270   9.633  23.453  0.00  0.00    +0.000 C 
ENDBRANCH  18  21
ENDBRANCH   1  16
BRANCH   8  23
ATOM     23  C   UNL     1       7.204   5.828  16.851  0.00  0.00    +0.000 C 
ATOM     24  O   UNL     1       7.674   4.784  16.422  0.00  0.00    +0.000 OA
BRANCH  23  25
ATOM     25  O   UNL     1       7.833   7.025  16.859  0.00  0.00    +0.000 OA
BRANCH  25  26
ATOM     26  C   UNL     1       7.948   7.731  18.107  0.00  0.00    +0.000 C 
BRANCH  26  27
ATOM     27  C   UNL     1       8.332   9.195  17.799  0.00  0.00    +0.000 C 
BRANCH  27  28
ATOM     28  O   UNL     1       8.592   9.896  19.028  0.00  0.00    +0.000 OA
BRANCH  28  29
ATOM     29  C   UNL     1       9.661  10.760  19.044  0.00  0.00    +0.000 A 
ATOM     30  C   UNL     1       9.959  11.385  17.825  0.00  0.00    +0.000 A 
ATOM     31  C   UNL     1      11.002  12.313  17.735  0.00  0.00    +0.000 A 
ATOM     32  C   UNL     1      11.745  12.625  18.868  0.00  0.00    +0.000 A 
ATOM     33  C   UNL     1      11.461  12.002  20.079  0.00  0.00    +0.000 A 
ATOM     34  C   UNL     1      10.422  11.070  20.172  0.00  0.00    +0.000 A 
ENDBRANCH  28  29
ENDBRANCH  27  28
ENDBRANCH  26  27
ENDBRANCH  25  26
ENDBRANCH  23  25
ENDBRANCH   8  23
TORSDOF 9
ENDMDL
MODEL 5
REMARK VINA RESULT:      -7.7      1.047      1.270
REMARK  Name = 
REMARK  12 active torsions:
REMARK  status: ('A' for Active; 'I' for Inactive)
REMARK    1  A    between atoms: C_1  and  O_2
REMARK    2  A    between atoms: O_2  and  C_3
REMARK    3  A    between atoms: C_6  and  C_7
REMARK    4  A    between atoms: C_14  and  C_15
REMARK    5  A    between atoms: C_15  and  O_17
REMARK    6  A    between atoms: O_17  and  C_18
REMARK    7  A    between atoms: C_18  and  C_19
REMARK    8  A    between atoms: C_19  and  O_20
REMARK    9  A    between atoms: O_20  and  C_21
REMARK   10  A    between atoms: C_27  and  C_28
REMARK   11  A    between atoms: C_31  and  O_32
REMARK   12  A    between atoms: O_32  and  C_33
REMARK                            x       y       z     vdW  Elec       q    Type
REMARK                         _______ _______ _______ _____ _____    ______ ____
ROOT
ATOM      1  C   UNL     1       0.671  11.282  20.529  0.00  0.00    +0.000 C 
ATOM      2  C   UNL     1       1.266  11.284  19.106  0.00  0.00    +0.000 C 
ATOM      3  C   UNL     1       1.720   9.972  18.535  0.00  0.00    +0.000 C 
ATOM      4  O   UNL     1       2.079   9.911  17.359  0.00  0.00    +0.000 OA
ATOM      5  C   UNL     1       1.724   8.818  19.405  0.00  0.00    +0.000 A 
ATOM      6  C   UNL     1       1.271   8.837  20.698  0.00  0.00    +0.000 A 
ATOM      7  N   UNL     1       1.348   7.561  21.202  0.00  0.00    +0.000 N 
ATOM      8  C   UNL     1       1.888   6.718  20.250  0.00  0.00    +0.000 A 
ATOM      9  C   UNL     1       2.171   7.501  19.133  0.00  0.00    +0.000 A 
ATOM     10  C   UNL     1       2.757   7.127  17.823  0.00  0.00    +0.000 C 
ATOM     11  C   UNL     1       0.785  10.022  21.436  0.00  0.00    +0.000 C 
ATOM     12  H   UNL     1       1.057   7.266  22.127  0.00  0.00    +0.000 HD
ENDROOT
BRANCH   1  16
ATOM     13  C   UNL     1      -3.418  12.661  20.223  0.00  0.00    +0.000 A 
ATOM     14  C   UNL     1      -2.719  12.784  21.436  0.00  0.00    +0.000 A 
ATOM     15  C   UNL     1      -1.400  12.353  21.553  0.00  0.00    +0.000 A 
ATOM     16  C   UNL     1      -0.773  11.741  20.466  0.00  0.00    +0.000 A 
ATOM     17  C   UNL     1      -1.499  11.538  19.289  0.00  0.00    +0.000 A 
ATOM     18  C   UNL     1      -2.815  11.990  19.151  0.00  0.00    +0.000 A 
BRANCH  13  20
ATOM     19  C   UNL     1      -4.962  14.311  20.901  0.00  0.00    +0.000 C 
ATOM     20  O   UNL     1      -4.678  13.179  20.077  0.00  0.00    +0.000 OA
ENDBRANCH  13  20
BRANCH  18  21
ATOM     21  O   UNL     1      -3.305  11.702  17.907  0.00  0.00    +0.000 OA
ATOM     22  C   UNL     1      -4.088  10.537  17.728  0.00  0.00    +0.000 C 
ENDBRANCH  18  21
ENDBRANCH   1  16
BRANCH   8  23
ATOM     23  C   UNL     1       2.030   5.283  20.445  0.00  0.00    +0.000 C 
ATOM     24  O   UNL     1       1.113   4.495  20.628  0.00  0.00    +0.000 OA
BRANCH  23  25
ATOM     25  O   UNL     1       3.334   4.949  20.315  0.00  0.00    +0.000 OA
BRANCH  25  26
ATOM     26  C   UNL     1       3.663   3.597  19.948  0.00  0.00    +0.000 C 
BRANCH  26  27
ATOM     27  C   UNL     1       4.313   3.623  18.548  0.00  0.00    +0.000 C 
BRANCH  27  28
ATOM     28  O   UNL     1       5.745   3.664  18.679  0.00  0.00    +0.000 OA
BRANCH  28  29
ATOM     29  C   UNL     1       6.374   4.834  18.331  0.00  0.00    +0.000 A 
ATOM     30  C   UNL     1       5.964   5.412  17.122  0.00  0.00    +0.000 A 
ATOM     31  C   UNL     1       6.509   6.626  16.689  0.00  0.00    +0.000 A 
ATOM     32  C   UNL     1       7.461   7.271  17.472  0.00  0.00    +0.000 A 
ATOM     33  C   UNL     1       7.881   6.698  18.669  0.00  0.00    +0.000 A 
ATOM     34  C   UNL     1       7.341   5.483  19.102  0.00  0.00    +0.000 A 
ENDBRANCH  28  29
ENDBRANCH  27  28
ENDBRANCH  26  27
ENDBRANCH  25  26
ENDBRANCH  23  25
ENDBRANCH   8  23
TORSDOF 9
ENDMDL
MODEL 6
REMARK VINA RESULT:      -7.6      0.979      1.380
REMARK  Name = 
REMARK  12 active torsions:
REMARK  status: ('A' for Active; 'I' for Inactive)
REMARK    1  A    between atoms: C_1  and  O_2
REMARK    2  A    between atoms: O_2  and  C_3
REMARK    3  A    between atoms: C_6  and  C_7
REMARK    4  A    between atoms: C_14  and  C_15
REMARK    5  A    between atoms: C_15  and  O_17
REMARK    6  A    between atoms: O_17  and  C_18
REMARK    7  A    between atoms: C_18  and  C_19
REMARK    8  A    between atoms: C_19  and  O_20
REMARK    9  A    between atoms: O_20  and  C_21
REMARK   10  A    between atoms: C_27  and  C_28
REMARK   11  A    between atoms: C_31  and  O_32
REMARK   12  A    between atoms: O_32  and  C_33
REMARK                            x       y       z     vdW  Elec       q    Type
REMARK                         _______ _______ _______ _____ _____    ______ ____
ROOT
ATOM      1  C   UNL     1       0.623  11.065  20.495  0.00  0.00    +0.000 C 
ATOM      2  C   UNL     1       1.255  11.010  19.089  0.00  0.00    +0.000 C 
ATOM      3  C   UNL     1       1.708   9.674  18.577  0.00  0.00    +0.000 C 
ATOM      4  O   UNL     1       2.098   9.567  17.414  0.00  0.00    +0.000 OA
ATOM      5  C   UNL     1       1.675   8.550  19.485  0.00  0.00    +0.000 A 
ATOM      6  C   UNL     1       1.188   8.620  20.765  0.00  0.00    +0.000 A 
ATOM      7  N   UNL     1       1.235   7.362  21.315  0.00  0.00    +0.000 N 
ATOM      8  C   UNL     1       1.790   6.479  20.407  0.00  0.00    +0.000 A 
ATOM      9  C   UNL     1       2.113   7.220  19.272  0.00  0.00    +0.000 A 
ATOM     10  C   UNL     1       2.729   6.793  17.992  0.00  0.00    +0.000 C 
ATOM     11  C   UNL     1       0.698   9.836  21.448  0.00  0.00    +0.000 C 
ATOM     12  H   UNL     1       0.916   7.103  22.242  0.00  0.00    +0.000 HD
ENDROOT
BRANCH   1  16
ATOM     13  C   UNL     1      -3.436  12.487  20.035  0.00  0.00    +0.000 A 
ATOM     14  C   UNL     1      -2.793  12.575  21.281  0.00  0.00    +0.000 A 
ATOM     15  C   UNL     1      -1.484  12.129  21.448  0.00  0.00    +0.000 A 
ATOM     16  C   UNL     1      -0.813  11.538  20.377  0.00  0.00    +0.000 A 
ATOM     17  C   UNL     1      -1.485  11.369  19.164  0.00  0.00    +0.000 A 
ATOM     18  C   UNL     1      -2.791  11.835  18.976  0.00  0.00    +0.000 A 
BRANCH  13  20
ATOM     19  C   UNL     1      -4.939  14.228  20.561  0.00  0.00    +0.000 C 
ATOM     20  O   UNL     1      -4.684  13.019  19.845  0.00  0.00    +0.000 OA
ENDBRANCH  13  20
BRANCH  18  21
ATOM     21  O   UNL     1      -3.226  11.581  17.705  0.00  0.00    +0.000 OA
ATOM     22  C   UNL     1      -2.380  10.876  16.816  0.00  0.00    +0.000 C 
ENDBRANCH  18  21
ENDBRANCH   1  16
BRANCH   8  23
ATOM     23  C   UNL     1       1.909   5.051  20.655  0.00  0.00    +0.000 C 
ATOM     24  O   UNL     1       2.677   4.528  21.451  0.00  0.00    +0.000 OA
BRANCH  23  25
ATOM     25  O   UNL     1       0.982   4.398  19.920  0.00  0.00    +0.000 OA
BRANCH  25  26
ATOM     26  C   UNL     1       1.409   3.709  18.731  0.00  0.00    +0.000 C 
BRANCH  26  27
ATOM     27  C   UNL     1       2.394   2.596  19.146  0.00  0.00    +0.000 C 
BRANCH  27  28
ATOM     28  O   UNL     1       3.369   2.397  18.106  0.00  0.00    +0.000 OA
BRANCH  28  29
ATOM     29  C   UNL     1       4.308   3.384  17.930  0.00  0.00    +0.000 A 
ATOM     30  C   UNL     1       4.484   3.831  16.614  0.00  0.00    +0.000 A 
ATOM     31  C   UNL     1       5.387   4.860  16.324  0.00  0.00    +0.000 A 
ATOM     32  C   UNL     1       6.110   5.451  17.354  0.00  0.00    +0.000 A 
ATOM     33  C   UNL     1       5.948   5.006  18.663  0.00  0.00    +0.000 A 
ATOM     34  C   UNL     1       5.050   3.975  18.955  0.00  0.00    +0.000 A 
ENDBRANCH  28  29
ENDBRANCH  27  28
ENDBRANCH  26  27
ENDBRANCH  25  26
ENDBRANCH  23  25
ENDBRANCH   8  23
TORSDOF 9
ENDMDL
MODEL 7
REMARK VINA RESULT:      -7.5      0.963      1.321
REMARK  Name = 
REMARK  12 active torsions:
REMARK  status: ('A' for Active; 'I' for Inactive)
REMARK    1  A    between atoms: C_1  and  O_2
REMARK    2  A    between atoms: O_2  and  C_3
REMARK    3  A    between atoms: C_6  and  C_7
REMARK    4  A    between atoms: C_14  and  C_15
REMARK    5  A    between atoms: C_15  and  O_17
REMARK    6  A    between atoms: O_17  and  C_18
REMARK    7  A    between atoms: C_18  and  C_19
REMARK    8  A    between atoms: C_19  and  O_20
REMARK    9  A    between atoms: O_20  and  C_21
REMARK   10  A    between atoms: C_27  and  C_28
REMARK   11  A    between atoms: C_31  and  O_32
REMARK   12  A    between atoms: O_32  and  C_33
REMARK                            x       y       z     vdW  Elec       q    Type
REMARK                         _______ _______ _______ _____ _____    ______ ____
ROOT
ATOM      1  C   UNL     1       0.401  10.843  19.887  0.00  0.00    +0.000 C 
ATOM      2  C   UNL     1       1.244  10.838  18.595  0.00  0.00    +0.000 C 
ATOM      3  C   UNL     1       1.932   9.560  18.214  0.00  0.00    +0.000 C 
ATOM      4  O   UNL     1       2.507   9.478  17.127  0.00  0.00    +0.000 OA
ATOM      5  C   UNL     1       1.899   8.463  19.154  0.00  0.00    +0.000 A 
ATOM      6  C   UNL     1       1.216   8.499  20.341  0.00  0.00    +0.000 A 
ATOM      7  N   UNL     1       1.334   7.270  20.945  0.00  0.00    +0.000 N 
ATOM      8  C   UNL     1       2.127   6.446  20.169  0.00  0.00    +0.000 A 
ATOM      9  C   UNL     1       2.526   7.196  19.064  0.00  0.00    +0.000 A 
ATOM     10  C   UNL     1       3.380   6.823  17.911  0.00  0.00    +0.000 C 
ATOM     11  C   UNL     1       0.480   9.656  20.891  0.00  0.00    +0.000 C 
ATOM     12  H   UNL     1       0.910   6.993  21.824  0.00  0.00    +0.000 HD
ENDROOT
BRANCH   1  16
ATOM     13  C   UNL     1      -3.689  11.664  18.743  0.00  0.00    +0.000 A 
ATOM     14  C   UNL     1      -3.129  12.295  19.866  0.00  0.00    +0.000 A 
ATOM     15  C   UNL     1      -1.812  12.050  20.246  0.00  0.00    +0.000 A 
ATOM     16  C   UNL     1      -1.047  11.125  19.535  0.00  0.00    +0.000 A 
ATOM     17  C   UNL     1      -1.634  10.430  18.474  0.00  0.00    +0.000 A 
ATOM     18  C   UNL     1      -2.948  10.686  18.066  0.00  0.00    +0.000 A 
BRANCH  13  20
ATOM     19  C   UNL     1      -5.636  12.946  19.107  0.00  0.00    +0.000 C 
ATOM     20  O   UNL     1      -4.949  11.983  18.307  0.00  0.00    +0.000 OA
ENDBRANCH  13  20
BRANCH  18  21
ATOM     21  O   UNL     1      -3.291   9.909  16.995  0.00  0.00    +0.000 OA
ATOM     22  C   UNL     1      -2.737  10.201  15.727  0.00  0.00    +0.000 C 
ENDBRANCH  18  21
ENDBRANCH   1  16
BRANCH   8  23
ATOM     23  C   UNL     1       2.382   5.050  20.493  0.00  0.00    +0.000 C 
ATOM     24  O   UNL     1       2.001   4.472  21.501  0.00  0.00    +0.000 OA
BRANCH  23  25
ATOM     25  O   UNL     1       3.045   4.475  19.464  0.00  0.00    +0.000 OA
BRANCH  25  26
ATOM     26  C   UNL     1       2.406   3.401  18.752  0.00  0.00    +0.000 C 
BRANCH  26  27
ATOM     27  C   UNL     1       3.271   3.058  17.520  0.00  0.00    +0.000 C 
BRANCH  27  28
ATOM     28  O   UNL     1       4.637   3.436  17.766  0.00  0.00    +0.000 OA
BRANCH  28  29
ATOM     29  C   UNL     1       5.352   3.932  16.704  0.00  0.00    +0.000 A 
ATOM     30  C   UNL     1       6.589   4.513  17.018  0.00  0.00    +0.000 A 
ATOM     31  C   UNL     1       7.419   5.015  16.010  0.00  0.00    +0.000 A 
ATOM     32  C   UNL     1       7.017   4.929  14.681  0.00  0.00    +0.000 A 
ATOM     33  C   UNL     1       5.786   4.363  14.362  0.00  0.00    +0.000 A 
ATOM     34  C   UNL     1       4.953   3.864  15.368  0.00  0.00    +0.000 A 
ENDBRANCH  28  29
ENDBRANCH  27  28
ENDBRANCH  26  27
ENDBRANCH  25  26
ENDBRANCH  23  25
ENDBRANCH   8  23
TORSDOF 9
ENDMDL
MODEL 8
REMARK VINA RESULT:      -7.5      1.367      2.415
REMARK  Name = 
REMARK  12 active torsions:
REMARK  status: ('A' for Active; 'I' for Inactive)
REMARK    1  A    between atoms: C_1  and  O_2
REMARK    2  A    between atoms: O_2  and  C_3
REMARK    3  A    between atoms: C_6  and  C_7
REMARK    4  A    between atoms: C_14  and  C_15
REMARK    5  A    between atoms: C_15  and  O_17
REMARK    6  A    between atoms: O_17  and  C_18
REMARK    7  A    between atoms: C_18  and  C_19
REMARK    8  A    between atoms: C_19  and  O_20
REMARK    9  A    between atoms: O_20  and  C_21
REMARK   10  A    between atoms: C_27  and  C_28
REMARK   11  A    between atoms: C_31  and  O_32
REMARK   12  A    between atoms: O_32  and  C_33
REMARK                            x       y       z     vdW  Elec       q    Type
REMARK                         _______ _______ _______ _____ _____    ______ ____
ROOT
ATOM      1  C   UNL     1       0.826  11.129  20.461  0.00  0.00    +0.000 C 
ATOM      2  C   UNL     1       1.377  11.055  19.022  0.00  0.00    +0.000 C 
ATOM      3  C   UNL     1       1.743   9.705  18.480  0.00  0.00    +0.000 C 
ATOM      4  O   UNL     1       2.064   9.588  17.297  0.00  0.00    +0.000 OA
ATOM      5  C   UNL     1       1.712   8.578  19.385  0.00  0.00    +0.000 A 
ATOM      6  C   UNL     1       1.300   8.661  20.690  0.00  0.00    +0.000 A 
ATOM      7  N   UNL     1       1.324   7.399  21.232  0.00  0.00    +0.000 N 
ATOM      8  C   UNL     1       1.789   6.499  20.291  0.00  0.00    +0.000 A 
ATOM      9  C   UNL     1       2.080   7.232  19.142  0.00  0.00    +0.000 A 
ATOM     10  C   UNL     1       2.606   6.787  17.829  0.00  0.00    +0.000 C 
ATOM     11  C   UNL     1       0.901   9.892  21.404  0.00  0.00    +0.000 C 
ATOM     12  H   UNL     1       1.045   7.148  22.174  0.00  0.00    +0.000 HD
ENDROOT
BRANCH   1  16
ATOM     13  C   UNL     1      -3.241  12.600  20.490  0.00  0.00    +0.000 A 
ATOM     14  C   UNL     1      -2.746  11.914  19.369  0.00  0.00    +0.000 A 
ATOM     15  C   UNL     1      -1.442  11.425  19.343  0.00  0.00    +0.000 A 
ATOM     16  C   UNL     1      -0.592  11.664  20.424  0.00  0.00    +0.000 A 
ATOM     17  C   UNL     1      -1.058  12.425  21.500  0.00  0.00    +0.000 A 
ATOM     18  C   UNL     1      -2.373  12.899  21.549  0.00  0.00    +0.000 A 
BRANCH  13  20
ATOM     19  C   UNL     1      -5.336  12.670  19.408  0.00  0.00    +0.000 C 
ATOM     20  O   UNL     1      -4.553  12.989  20.559  0.00  0.00    +0.000 OA
ENDBRANCH  13  20
BRANCH  18  21
ATOM     21  O   UNL     1      -2.603  13.591  22.705  0.00  0.00    +0.000 OA
ATOM     22  C   UNL     1      -1.521  13.854  23.577  0.00  0.00    +0.000 C 
ENDBRANCH  18  21
ENDBRANCH   1  16
BRANCH   8  23
ATOM     23  C   UNL     1       1.860   5.065  20.527  0.00  0.00    +0.000 C 
ATOM     24  O   UNL     1       0.907   4.332  20.753  0.00  0.00    +0.000 OA
BRANCH  23  25
ATOM     25  O   UNL     1       3.141   4.659  20.382  0.00  0.00    +0.000 OA
BRANCH  25  26
ATOM     26  C   UNL     1       3.413   3.540  19.519  0.00  0.00    +0.000 C 
BRANCH  26  27
ATOM     27  C   UNL     1       4.915   3.560  19.161  0.00  0.00    +0.000 C 
BRANCH  27  28
ATOM     28  O   UNL     1       5.115   4.312  17.950  0.00  0.00    +0.000 OA
BRANCH  28  29
ATOM     29  C   UNL     1       6.019   5.345  17.995  0.00  0.00    +0.000 A 
ATOM     30  C   UNL     1       7.008   5.249  18.984  0.00  0.00    +0.000 A 
ATOM     31  C   UNL     1       8.003   6.225  19.096  0.00  0.00    +0.000 A 
ATOM     32  C   UNL     1       8.017   7.298  18.211  0.00  0.00    +0.000 A 
ATOM     33  C   UNL     1       7.033   7.406  17.233  0.00  0.00    +0.000 A 
ATOM     34  C   UNL     1       6.034   6.434  17.122  0.00  0.00    +0.000 A 
ENDBRANCH  28  29
ENDBRANCH  27  28
ENDBRANCH  26  27
ENDBRANCH  25  26
ENDBRANCH  23  25
ENDBRANCH   8  23
TORSDOF 9
ENDMDL
MODEL 9
REMARK VINA RESULT:      -7.5      1.095      1.985
REMARK  Name = 
REMARK  12 active torsions:
REMARK  status: ('A' for Active; 'I' for Inactive)
REMARK    1  A    between atoms: C_1  and  O_2
REMARK    2  A    between atoms: O_2  and  C_3
REMARK    3  A    between atoms: C_6  and  C_7
REMARK    4  A    between atoms: C_14  and  C_15
REMARK    5  A    between atoms: C_15  and  O_17
REMARK    6  A    between atoms: O_17  and  C_18
REMARK    7  A    between atoms: C_18  and  C_19
REMARK    8  A    between atoms: C_19  and  O_20
REMARK    9  A    between atoms: O_20  and  C_21
REMARK   10  A    between atoms: C_27  and  C_28
REMARK   11  A    between atoms: C_31  and  O_32
REMARK   12  A    between atoms: O_32  and  C_33
REMARK                            x       y       z     vdW  Elec       q    Type
REMARK                         _______ _______ _______ _____ _____    ______ ____
ROOT
ATOM      1  C   UNL     1       0.809  11.101  20.789  0.00  0.00    +0.000 C 
ATOM      2  C   UNL     1       1.355  11.103  19.346  0.00  0.00    +0.000 C 
ATOM      3  C   UNL     1       1.697   9.781  18.725  0.00  0.00    +0.000 C 
ATOM      4  O   UNL     1       2.012   9.729  17.535  0.00  0.00    +0.000 OA
ATOM      5  C   UNL     1       1.650   8.604  19.562  0.00  0.00    +0.000 A 
ATOM      6  C   UNL     1       1.243   8.617  20.871  0.00  0.00    +0.000 A 
ATOM      7  N   UNL     1       1.247   7.325  21.338  0.00  0.00    +0.000 N 
ATOM      8  C   UNL     1       1.695   6.474  20.345  0.00  0.00    +0.000 A 
ATOM      9  C   UNL     1       1.994   7.268  19.240  0.00  0.00    +0.000 A 
ATOM     10  C   UNL     1       2.509   6.893  17.900  0.00  0.00    +0.000 C 
ATOM     11  C   UNL     1       0.866   9.811  21.657  0.00  0.00    +0.000 C 
ATOM     12  H   UNL     1       0.967   7.024  22.265  0.00  0.00    +0.000 HD
ENDROOT
BRANCH   1  16
ATOM     13  C   UNL     1      -3.249  12.594  20.885  0.00  0.00    +0.000 A 
ATOM     14  C   UNL     1      -2.595  12.403  19.657  0.00  0.00    +0.000 A 
ATOM     15  C   UNL     1      -1.291  11.916  19.604  0.00  0.00    +0.000 A 
ATOM     16  C   UNL     1      -0.600  11.661  20.789  0.00  0.00    +0.000 A 
ATOM     17  C   UNL     1      -1.220  11.937  22.011  0.00  0.00    +0.000 A 
ATOM     18  C   UNL     1      -2.538  12.402  22.077  0.00  0.00    +0.000 A 
BRANCH  13  20
ATOM     19  C   UNL     1      -5.445  12.198  20.119  0.00  0.00    +0.000 C 
ATOM     20  O   UNL     1      -4.565  12.973  20.934  0.00  0.00    +0.000 OA
ENDBRANCH  13  20
BRANCH  18  21
ATOM     21  O   UNL     1      -2.934  12.572  23.374  0.00  0.00    +0.000 OA
ATOM     22  C   UNL     1      -2.879  13.865  23.947  0.00  0.00    +0.000 C 
ENDBRANCH  18  21
ENDBRANCH   1  16
BRANCH   8  23
ATOM     23  C   UNL     1       1.743   5.027  20.496  0.00  0.00    +0.000 C 
ATOM     24  O   UNL     1       0.780   4.275  20.454  0.00  0.00    +0.000 OA
BRANCH  23  25
ATOM     25  O   UNL     1       3.032   4.641  20.616  0.00  0.00    +0.000 OA
BRANCH  25  26
ATOM     26  C   UNL     1       3.346   3.244  20.478  0.00  0.00    +0.000 C 
BRANCH  26  27
ATOM     27  C   UNL     1       4.424   3.097  19.382  0.00  0.00    +0.000 C 
BRANCH  27  28
ATOM     28  O   UNL     1       4.780   4.396  18.876  0.00  0.00    +0.000 OA
BRANCH  28  29
ATOM     29  C   UNL     1       5.480   4.439  17.695  0.00  0.00    +0.000 A 
ATOM     30  C   UNL     1       4.726   4.245  16.530  0.00  0.00    +0.000 A 
ATOM     31  C   UNL     1       5.329   4.307  15.269  0.00  0.00    +0.000 A 
ATOM     32  C   UNL     1       6.691   4.573  15.170  0.00  0.00    +0.000 A 
ATOM     33  C   UNL     1       7.449   4.757  16.323  0.00  0.00    +0.000 A 
ATOM     34  C   UNL     1       6.849   4.691  17.585  0.00  0.00    +0.000 A 
ENDBRANCH  28  29
ENDBRANCH  27  28
ENDBRANCH  26  27
ENDBRANCH  25  26
ENDBRANCH  23  25
ENDBRANCH   8  23
TORSDOF 9
ENDMDL
