MODEL 1
REMARK VINA RESULT:      -8.0      0.000      0.000
REMARK  Name = 
REMARK  8 active torsions:
REMARK  status: ('A' for Active; 'I' for Inactive)
REMARK    1  A    between atoms: C_2  and  C_3
REMARK    2  A    between atoms: C_3  and  C_4
REMARK    3  A    between atoms: N_10  and  N_11
REMARK    4  A    between atoms: C_12  and  C_13
REMARK    5  A    between atoms: C_16  and  O_17
REMARK    6  A    between atoms: O_17  and  C_18
REMARK    7  A    between atoms: C_18  and  C_20
REMARK    8  A    between atoms: C_21  and  C_22
REMARK                            x       y       z     vdW  Elec       q    Type
REMARK                         _______ _______ _______ _____ _____    ______ ____
ROOT
ATOM      1  C   UNL     1       2.000   7.839  19.148  0.00  0.00    +0.000 A 
ATOM      2  C   UNL     1       2.354   7.258  17.918  0.00  0.00    +0.000 A 
ATOM      3  C   UNL     1       2.647   5.896  17.848  0.00  0.00    +0.000 A 
ATOM      4  C   UNL     1       2.574   5.121  19.008  0.00  0.00    +0.000 A 
ATOM      5  C   UNL     1       2.191   5.691  20.221  0.00  0.00    +0.000 A 
ATOM      6  C   UNL     1       1.918   7.054  20.297  0.00  0.00    +0.000 A 
ENDROOT
BRANCH   1   8
ATOM      7  N   UNL     1       1.176   9.954  18.305  0.00  0.00    +0.000 NA
ATOM      8  C   UNL     1       1.704   9.282  19.271  0.00  0.00    +0.000 C 
BRANCH   7  11
ATOM      9  O   UNL     1      -0.327  13.042  19.062  0.00  0.00    +0.000 OA
ATOM     10  C   UNL     1      -0.213  11.824  18.895  0.00  0.00    +0.000 C 
ATOM     11  N   UNL     1       1.003  11.284  18.549  0.00  0.00    +0.000 N 
ATOM     12  H   UNL     1       1.765  11.941  18.412  0.00  0.00    +0.000 HD
BRANCH  10  13
ATOM     13  C   UNL     1      -1.379  10.869  19.085  0.00  0.00    +0.000 C 
BRANCH  13  14
ATOM     14  C   UNL     1      -2.292  10.784  17.884  0.00  0.00    +0.000 A 
ATOM     15  C   UNL     1      -3.469  11.544  17.835  0.00  0.00    +0.000 A 
ATOM     16  C   UNL     1      -4.318  11.473  16.730  0.00  0.00    +0.000 A 
ATOM     17  C   UNL     1      -3.999  10.640  15.661  0.00  0.00    +0.000 A 
ATOM     18  C   UNL     1      -2.833   9.875  15.699  0.00  0.00    +0.000 A 
ATOM     19  C   UNL     1      -1.986   9.942  16.808  0.00  0.00    +0.000 A 
ENDBRANCH  13  14
ENDBRANCH  10  13
ENDBRANCH   7  11
ENDBRANCH   1   8
BRANCH   4  20
ATOM     20  O   UNL     1       2.777   3.732  18.908  0.00  0.00    +0.000 OA
BRANCH  20  21
ATOM     21  C   UNL     1       4.108   3.344  18.827  0.00  0.00    +0.000 C 
ATOM     22  O   UNL     1       4.880   3.169  19.756  0.00  0.00    +0.000 OA
BRANCH  21  23
ATOM     23  C   UNL     1       4.451   3.196  17.393  0.00  0.00    +0.000 C 
ATOM     24  C   UNL     1       5.359   3.935  16.734  0.00  0.00    +0.000 C 
BRANCH  24  25
ATOM     25  C   UNL     1       6.230   4.867  17.362  0.00  0.00    +0.000 A 
ATOM     26  C   UNL     1       6.300   6.248  17.201  0.00  0.00    +0.000 A 
ATOM     27  C   UNL     1       7.349   6.730  18.023  0.00  0.00    +0.000 A 
ATOM     28  C   UNL     1       7.877   5.626  18.640  0.00  0.00    +0.000 A 
ATOM     29  O   UNL     1       7.234   4.506  18.232  0.00  0.00    +0.000 OA
ENDBRANCH  24  25
ENDBRANCH  21  23
ENDBRANCH  20  21
ENDBRANCH   4  20
TORSDOF 8
ENDMDL
MODEL 2
REMARK VINA RESULT:      -8.0      1.525      3.167
REMARK  Name = 
REMARK  8 active torsions:
REMARK  status: ('A' for Active; 'I' for Inactive)
REMARK    1  A    between atoms: C_2  and  C_3
REMARK    2  A    between atoms: C_3  and  C_4
REMARK    3  A    between atoms: N_10  and  N_11
REMARK    4  A    between atoms: C_12  and  C_13
REMARK    5  A    between atoms: C_16  and  O_17
REMARK    6  A    between atoms: O_17  and  C_18
REMARK    7  A    between atoms: C_18  and  C_20
REMARK    8  A    between atoms: C_21  and  C_22
REMARK                            x       y       z     vdW  Elec       q    Type
REMARK                         _______ _______ _______ _____ _____    ______ ____
ROOT
ATOM      1  C   UNL     1       2.789   7.927  18.075  0.00  0.00    +0.000 A 
ATOM      2  C   UNL     1       3.967   7.753  17.328  0.00  0.00    +0.000 A 
ATOM      3  C   UNL     1       4.390   6.470  16.980  0.00  0.00    +0.000 A 
ATOM      4  C   UNL     1       3.627   5.369  17.375  0.00  0.00    +0.000 A 
ATOM      5  C   UNL     1       2.441   5.543  18.087  0.00  0.00    +0.000 A 
ATOM      6  C   UNL     1       2.028   6.821  18.453  0.00  0.00    +0.000 A 
ENDROOT
BRANCH   1   8
ATOM      7  N   UNL     1       1.648  10.026  17.685  0.00  0.00    +0.000 NA
ATOM      8  C   UNL     1       2.316   9.266  18.485  0.00  0.00    +0.000 C 
BRANCH   7  11
ATOM      9  O   UNL     1      -0.186  12.670  19.106  0.00  0.00    +0.000 OA
ATOM     10  C   UNL     1       0.078  11.532  18.706  0.00  0.00    +0.000 C 
ATOM     11  N   UNL     1       1.320  11.251  18.187  0.00  0.00    +0.000 N 
ATOM     12  H   UNL     1       1.970  12.028  18.129  0.00  0.00    +0.000 HD
BRANCH  10  13
ATOM     13  C   UNL     1      -0.926  10.394  18.784  0.00  0.00    +0.000 C 
BRANCH  13  14
ATOM     14  C   UNL     1      -2.085  10.544  17.827  0.00  0.00    +0.000 A 
ATOM     15  C   UNL     1      -2.057   9.910  16.577  0.00  0.00    +0.000 A 
ATOM     16  C   UNL     1      -3.123  10.044  15.686  0.00  0.00    +0.000 A 
ATOM     17  C   UNL     1      -4.230  10.813  16.036  0.00  0.00    +0.000 A 
ATOM     18  C   UNL     1      -4.267  11.452  17.274  0.00  0.00    +0.000 A 
ATOM     19  C   UNL     1      -3.198  11.325  18.164  0.00  0.00    +0.000 A 
ENDBRANCH  13  14
ENDBRANCH  10  13
ENDBRANCH   7  11
ENDBRANCH   1   8
BRANCH   4  20
ATOM     20  O   UNL     1       4.011   4.087  16.936  0.00  0.00    +0.000 OA
BRANCH  20  21
ATOM     21  C   UNL     1       4.529   3.265  17.928  0.00  0.00    +0.000 C 
ATOM     22  O   UNL     1       5.392   3.550  18.742  0.00  0.00    +0.000 OA
BRANCH  21  23
ATOM     23  C   UNL     1       3.863   1.946  17.816  0.00  0.00    +0.000 C 
ATOM     24  C   UNL     1       2.927   1.478  18.658  0.00  0.00    +0.000 C 
BRANCH  24  25
ATOM     25  C   UNL     1       2.333   2.252  19.693  0.00  0.00    +0.000 A 
ATOM     26  C   UNL     1       1.081   2.863  19.723  0.00  0.00    +0.000 A 
ATOM     27  C   UNL     1       0.958   3.542  20.960  0.00  0.00    +0.000 A 
ATOM     28  C   UNL     1       2.138   3.326  21.624  0.00  0.00    +0.000 A 
ATOM     29  O   UNL     1       2.975   2.580  20.866  0.00  0.00    +0.000 OA
ENDBRANCH  24  25
ENDBRANCH  21  23
ENDBRANCH  20  21
ENDBRANCH   4  20
TORSDOF 8
ENDMDL
MODEL 3
REMARK VINA RESULT:      -7.9      1.891      3.441
REMARK  Name = 
REMARK  8 active torsions:
REMARK  status: ('A' for Active; 'I' for Inactive)
REMARK    1  A    between atoms: C_2  and  C_3
REMARK    2  A    between atoms: C_3  and  C_4
REMARK    3  A    between atoms: N_10  and  N_11
REMARK    4  A    between atoms: C_12  and  C_13
REMARK    5  A    between atoms: C_16  and  O_17
REMARK    6  A    between atoms: O_17  and  C_18
REMARK    7  A    between atoms: C_18  and  C_20
REMARK    8  A    between atoms: C_21  and  C_22
REMARK                            x       y       z     vdW  Elec       q    Type
REMARK                         _______ _______ _______ _____ _____    ______ ____
ROOT
ATOM      1  C   UNL     1       1.798   7.678  19.992  0.00  0.00    +0.000 A 
ATOM      2  C   UNL     1       2.429   6.538  20.519  0.00  0.00    +0.000 A 
ATOM      3  C   UNL     1       3.368   5.844  19.755  0.00  0.00    +0.000 A 
ATOM      4  C   UNL     1       3.675   6.300  18.471  0.00  0.00    +0.000 A 
ATOM      5  C   UNL     1       3.074   7.449  17.961  0.00  0.00    +0.000 A 
ATOM      6  C   UNL     1       2.122   8.132  18.714  0.00  0.00    +0.000 A 
ENDROOT
BRANCH   1   8
ATOM      7  N   UNL     1       1.017   9.609  21.227  0.00  0.00    +0.000 NA
ATOM      8  C   UNL     1       0.782   8.430  20.758  0.00  0.00    +0.000 C 
BRANCH   7  11
ATOM      9  O   UNL     1      -1.608  11.728  22.220  0.00  0.00    +0.000 OA
ATOM     10  C   UNL     1      -0.728  11.238  21.507  0.00  0.00    +0.000 C 
ATOM     11  N   UNL     1       0.001  10.159  21.951  0.00  0.00    +0.000 N 
ATOM     12  H   UNL     1      -0.209   9.828  22.887  0.00  0.00    +0.000 HD
BRANCH  10  13
ATOM     13  C   UNL     1      -0.421  11.770  20.118  0.00  0.00    +0.000 C 
BRANCH  13  14
ATOM     14  C   UNL     1      -1.396  11.301  19.063  0.00  0.00    +0.000 A 
ATOM     15  C   UNL     1      -1.024  10.309  18.146  0.00  0.00    +0.000 A 
ATOM     16  C   UNL     1      -1.918   9.870  17.169  0.00  0.00    +0.000 A 
ATOM     17  C   UNL     1      -3.195  10.419  17.098  0.00  0.00    +0.000 A 
ATOM     18  C   UNL     1      -3.576  11.410  18.001  0.00  0.00    +0.000 A 
ATOM     19  C   UNL     1      -2.680  11.855  18.975  0.00  0.00    +0.000 A 
ENDBRANCH  13  14
ENDBRANCH  10  13
ENDBRANCH   7  11
ENDBRANCH   1   8
BRANCH   4  20
ATOM     20  O   UNL     1       4.692   5.649  17.748  0.00  0.00    +0.000 OA
BRANCH  20  21
ATOM     21  C   UNL     1       4.878   4.314  18.080  0.00  0.00    +0.000 C 
ATOM     22  O   UNL     1       5.508   3.873  19.027  0.00  0.00    +0.000 OA
BRANCH  21  23
ATOM     23  C   UNL     1       4.187   3.492  17.057  0.00  0.00    +0.000 C 
ATOM     24  C   UNL     1       3.073   2.771  17.268  0.00  0.00    +0.000 C 
BRANCH  24  25
ATOM     25  C   UNL     1       2.313   2.816  18.468  0.00  0.00    +0.000 A 
ATOM     26  C   UNL     1       1.102   3.457  18.716  0.00  0.00    +0.000 A 
ATOM     27  C   UNL     1       0.761   3.233  20.073  0.00  0.00    +0.000 A 
ATOM     28  C   UNL     1       1.778   2.478  20.594  0.00  0.00    +0.000 A 
ATOM     29  O   UNL     1       2.723   2.246  19.653  0.00  0.00    +0.000 OA
ENDBRANCH  24  25
ENDBRANCH  21  23
ENDBRANCH  20  21
ENDBRANCH   4  20
TORSDOF 8
ENDMDL
MODEL 4
REMARK VINA RESULT:      -7.9      5.115      8.370
REMARK  Name = 
REMARK  8 active torsions:
REMARK  status: ('A' for Active; 'I' for Inactive)
REMARK    1  A    between atoms: C_2  and  C_3
REMARK    2  A    between atoms: C_3  and  C_4
REMARK    3  A    between atoms: N_10  and  N_11
REMARK    4  A    between atoms: C_12  and  C_13
REMARK    5  A    between atoms: C_16  and  O_17
REMARK    6  A    between atoms: O_17  and  C_18
REMARK    7  A    between atoms: C_18  and  C_20
REMARK    8  A    between atoms: C_21  and  C_22
REMARK                            x       y       z     vdW  Elec       q    Type
REMARK                         _______ _______ _______ _____ _____    ______ ____
ROOT
ATOM      1  C   UNL     1       4.893   5.859  17.852  0.00  0.00    +0.000 A 
ATOM      2  C   UNL     1       3.620   6.452  17.803  0.00  0.00    +0.000 A 
ATOM      3  C   UNL     1       2.692   6.198  18.813  0.00  0.00    +0.000 A 
ATOM      4  C   UNL     1       3.047   5.358  19.871  0.00  0.00    +0.000 A 
ATOM      5  C   UNL     1       4.321   4.796  19.937  0.00  0.00    +0.000 A 
ATOM      6  C   UNL     1       5.241   5.032  18.919  0.00  0.00    +0.000 A 
ENDROOT
BRANCH   1   8
ATOM      7  N   UNL     1       6.636   5.126  16.339  0.00  0.00    +0.000 NA
ATOM      8  C   UNL     1       5.898   6.083  16.791  0.00  0.00    +0.000 C 
BRANCH   7  11
ATOM      9  O   UNL     1       8.215   5.614  13.235  0.00  0.00    +0.000 OA
ATOM     10  C   UNL     1       7.339   5.307  14.048  0.00  0.00    +0.000 C 
ATOM     11  N   UNL     1       7.548   5.492  15.395  0.00  0.00    +0.000 N 
ATOM     12  H   UNL     1       8.456   5.856  15.663  0.00  0.00    +0.000 HD
BRANCH  10  13
ATOM     13  C   UNL     1       5.996   4.741  13.616  0.00  0.00    +0.000 C 
BRANCH  13  14
ATOM     14  C   UNL     1       6.110   3.609  12.622  0.00  0.00    +0.000 A 
ATOM     15  C   UNL     1       4.957   3.016  12.089  0.00  0.00    +0.000 A 
ATOM     16  C   UNL     1       5.052   1.970  11.170  0.00  0.00    +0.000 A 
ATOM     17  C   UNL     1       6.303   1.505  10.774  0.00  0.00    +0.000 A 
ATOM     18  C   UNL     1       7.458   2.083  11.300  0.00  0.00    +0.000 A 
ATOM     19  C   UNL     1       7.363   3.126  12.225  0.00  0.00    +0.000 A 
ENDBRANCH  13  14
ENDBRANCH  10  13
ENDBRANCH   7  11
ENDBRANCH   1   8
BRANCH   4  20
ATOM     20  O   UNL     1       2.139   5.186  20.933  0.00  0.00    +0.000 OA
BRANCH  20  21
ATOM     21  C   UNL     1       1.842   3.864  21.235  0.00  0.00    +0.000 C 
ATOM     22  O   UNL     1       2.477   3.115  21.960  0.00  0.00    +0.000 OA
BRANCH  21  23
ATOM     23  C   UNL     1       0.611   3.495  20.496  0.00  0.00    +0.000 C 
ATOM     24  C   UNL     1       0.577   3.004  19.246  0.00  0.00    +0.000 C 
BRANCH  24  25
ATOM     25  C   UNL     1       1.733   2.627  18.510  0.00  0.00    +0.000 A 
ATOM     26  C   UNL     1       2.712   1.690  18.834  0.00  0.00    +0.000 A 
ATOM     27  C   UNL     1       3.676   1.692  17.796  0.00  0.00    +0.000 A 
ATOM     28  C   UNL     1       3.252   2.631  16.893  0.00  0.00    +0.000 A 
ATOM     29  O   UNL     1       2.108   3.214  17.322  0.00  0.00    +0.000 OA
ENDBRANCH  24  25
ENDBRANCH  21  23
ENDBRANCH  20  21
ENDBRANCH   4  20
TORSDOF 8
ENDMDL
MODEL 5
REMARK VINA RESULT:      -7.9      1.507      3.129
REMARK  Name = 
REMARK  8 active torsions:
REMARK  status: ('A' for Active; 'I' for Inactive)
REMARK    1  A    between atoms: C_2  and  C_3
REMARK    2  A    between atoms: C_3  and  C_4
REMARK    3  A    between atoms: N_10  and  N_11
REMARK    4  A    between atoms: C_12  and  C_13
REMARK    5  A    between atoms: C_16  and  O_17
REMARK    6  A    between atoms: O_17  and  C_18
REMARK    7  A    between atoms: C_18  and  C_20
REMARK    8  A    between atoms: C_21  and  C_22
REMARK                            x       y       z     vdW  Elec       q    Type
REMARK                         _______ _______ _______ _____ _____    ______ ____
ROOT
ATOM      1  C   UNL     1       2.849   8.084  17.867  0.00  0.00    +0.000 A 
ATOM      2  C   UNL     1       4.061   7.934  17.172  0.00  0.00    +0.000 A 
ATOM      3  C   UNL     1       4.559   6.659  16.904  0.00  0.00    +0.000 A 
ATOM      4  C   UNL     1       3.836   5.541  17.327  0.00  0.00    +0.000 A 
ATOM      5  C   UNL     1       2.618   5.689  17.988  0.00  0.00    +0.000 A 
ATOM      6  C   UNL     1       2.130   6.961  18.274  0.00  0.00    +0.000 A 
ENDROOT
BRANCH   1   8
ATOM      7  N   UNL     1       1.489   9.596  19.181  0.00  0.00    +0.000 NA
ATOM      8  C   UNL     1       2.296   9.417  18.192  0.00  0.00    +0.000 C 
BRANCH   7  11
ATOM      9  O   UNL     1      -0.665  12.374  19.302  0.00  0.00    +0.000 OA
ATOM     10  C   UNL     1      -0.302  11.198  19.204  0.00  0.00    +0.000 C 
ATOM     11  N   UNL     1       1.027  10.870  19.330  0.00  0.00    +0.000 N 
ATOM     12  H   UNL     1       1.670  11.643  19.470  0.00  0.00    +0.000 HD
BRANCH  10  13
ATOM     13  C   UNL     1      -1.287  10.065  18.970  0.00  0.00    +0.000 C 
BRANCH  13  14
ATOM     14  C   UNL     1      -2.232  10.316  17.818  0.00  0.00    +0.000 A 
ATOM     15  C   UNL     1      -3.412  11.046  18.017  0.00  0.00    +0.000 A 
ATOM     16  C   UNL     1      -4.291  11.283  16.959  0.00  0.00    +0.000 A 
ATOM     17  C   UNL     1      -4.000  10.792  15.689  0.00  0.00    +0.000 A 
ATOM     18  C   UNL     1      -2.832  10.060  15.479  0.00  0.00    +0.000 A 
ATOM     19  C   UNL     1      -1.954   9.818  16.539  0.00  0.00    +0.000 A 
ENDBRANCH  13  14
ENDBRANCH  10  13
ENDBRANCH   7  11
ENDBRANCH   1   8
BRANCH   4  20
ATOM     20  O   UNL     1       4.299   4.261  16.967  0.00  0.00    +0.000 OA
BRANCH  20  21
ATOM     21  C   UNL     1       4.692   3.464  18.035  0.00  0.00    +0.000 C 
ATOM     22  O   UNL     1       5.448   3.772  18.942  0.00  0.00    +0.000 OA
BRANCH  21  23
ATOM     23  C   UNL     1       4.046   2.140  17.874  0.00  0.00    +0.000 C 
ATOM     24  C   UNL     1       3.035   1.676  18.628  0.00  0.00    +0.000 C 
BRANCH  24  25
ATOM     25  C   UNL     1       2.340   2.458  19.592  0.00  0.00    +0.000 A 
ATOM     26  C   UNL     1       2.686   2.732  20.913  0.00  0.00    +0.000 A 
ATOM     27  C   UNL     1       1.662   3.532  21.474  0.00  0.00    +0.000 A 
ATOM     28  C   UNL     1       0.734   3.703  20.479  0.00  0.00    +0.000 A 
ATOM     29  O   UNL     1       1.116   3.044  19.361  0.00  0.00    +0.000 OA
ENDBRANCH  24  25
ENDBRANCH  21  23
ENDBRANCH  20  21
ENDBRANCH   4  20
TORSDOF 8
ENDMDL
MODEL 6
REMARK VINA RESULT:      -7.9      1.775      3.237
REMARK  Name = 
REMARK  8 active torsions:
REMARK  status: ('A' for Active; 'I' for Inactive)
REMARK    1  A    between atoms: C_2  and  C_3
REMARK    2  A    between atoms: C_3  and  C_4
REMARK    3  A    between atoms: N_10  and  N_11
REMARK    4  A    between atoms: C_12  and  C_13
REMARK    5  A    between atoms: C_16  and  O_17
REMARK    6  A    between atoms: O_17  and  C_18
REMARK    7  A    between atoms: C_18  and  C_20
REMARK    8  A    between atoms: C_21  and  C_22
REMARK                            x       y       z     vdW  Elec       q    Type
REMARK                         _______ _______ _______ _____ _____    ______ ____
ROOT
ATOM      1  C   UNL     1       1.396   8.653  19.814  0.00  0.00    +0.000 A 
ATOM      2  C   UNL     1       1.885   8.975  18.537  0.00  0.00    +0.000 A 
ATOM      3  C   UNL     1       2.675   8.060  17.840  0.00  0.00    +0.000 A 
ATOM      4  C   UNL     1       2.964   6.824  18.425  0.00  0.00    +0.000 A 
ATOM      5  C   UNL     1       2.452   6.492  19.678  0.00  0.00    +0.000 A 
ATOM      6  C   UNL     1       1.680   7.412  20.382  0.00  0.00    +0.000 A 
ENDROOT
BRANCH   1   8
ATOM      7  N   UNL     1       0.737  10.878  20.505  0.00  0.00    +0.000 NA
ATOM      8  C   UNL     1       0.574   9.602  20.596  0.00  0.00    +0.000 C 
BRANCH   7  11
ATOM      9  O   UNL     1      -1.576  13.280  21.624  0.00  0.00    +0.000 OA
ATOM     10  C   UNL     1      -0.906  12.600  20.841  0.00  0.00    +0.000 C 
ATOM     11  N   UNL     1      -0.062  11.625  21.319  0.00  0.00    +0.000 N 
ATOM     12  H   UNL     1      -0.008  11.532  22.328  0.00  0.00    +0.000 HD
BRANCH  10  13
ATOM     13  C   UNL     1      -0.992  12.779  19.335  0.00  0.00    +0.000 C 
BRANCH  13  14
ATOM     14  C   UNL     1      -1.953  11.823  18.667  0.00  0.00    +0.000 A 
ATOM     15  C   UNL     1      -3.336  11.973  18.841  0.00  0.00    +0.000 A 
ATOM     16  C   UNL     1      -4.231  11.095  18.228  0.00  0.00    +0.000 A 
ATOM     17  C   UNL     1      -3.752  10.056  17.434  0.00  0.00    +0.000 A 
ATOM     18  C   UNL     1      -2.379   9.893  17.257  0.00  0.00    +0.000 A 
ATOM     19  C   UNL     1      -1.482  10.768  17.875  0.00  0.00    +0.000 A 
ENDBRANCH  13  14
ENDBRANCH  10  13
ENDBRANCH   7  11
ENDBRANCH   1   8
BRANCH   4  20
ATOM     20  O   UNL     1       3.680   5.872  17.674  0.00  0.00    +0.000 OA
BRANCH  20  21
ATOM     21  C   UNL     1       4.559   5.092  18.413  0.00  0.00    +0.000 C 
ATOM     22  O   UNL     1       5.278   5.461  19.328  0.00  0.00    +0.000 OA
BRANCH  21  23
ATOM     23  C   UNL     1       4.498   3.710  17.880  0.00  0.00    +0.000 C 
ATOM     24  C   UNL     1       3.755   2.715  18.394  0.00  0.00    +0.000 C 
BRANCH  24  25
ATOM     25  C   UNL     1       2.804   2.892  19.436  0.00  0.00    +0.000 A 
ATOM     26  C   UNL     1       2.972   2.747  20.810  0.00  0.00    +0.000 A 
ATOM     27  C   UNL     1       1.725   3.003  21.431  0.00  0.00    +0.000 A 
ATOM     28  C   UNL     1       0.851   3.281  20.412  0.00  0.00    +0.000 A 
ATOM     29  O   UNL     1       1.478   3.191  19.216  0.00  0.00    +0.000 OA
ENDBRANCH  24  25
ENDBRANCH  21  23
ENDBRANCH  20  21
ENDBRANCH   4  20
TORSDOF 8
ENDMDL
MODEL 7
REMARK VINA RESULT:      -7.8      2.676      8.684
REMARK  Name = 
REMARK  8 active torsions:
REMARK  status: ('A' for Active; 'I' for Inactive)
REMARK    1  A    between atoms: C_2  and  C_3
REMARK    2  A    between atoms: C_3  and  C_4
REMARK    3  A    between atoms: N_10  and  N_11
REMARK    4  A    between atoms: C_12  and  C_13
REMARK    5  A    between atoms: C_16  and  O_17
REMARK    6  A    between atoms: O_17  and  C_18
REMARK    7  A    between atoms: C_18  and  C_20
REMARK    8  A    between atoms: C_21  and  C_22
REMARK                            x       y       z     vdW  Elec       q    Type
REMARK                         _______ _______ _______ _____ _____    ______ ____
ROOT
ATOM      1  C   UNL     1       1.118  10.494  18.308  0.00  0.00    +0.000 A 
ATOM      2  C   UNL     1      -0.215  10.071  18.446  0.00  0.00    +0.000 A 
ATOM      3  C   UNL     1      -1.193  10.972  18.869  0.00  0.00    +0.000 A 
ATOM      4  C   UNL     1      -0.831  12.294  19.143  0.00  0.00    +0.000 A 
ATOM      5  C   UNL     1       0.485  12.721  18.974  0.00  0.00    +0.000 A 
ATOM      6  C   UNL     1       1.465  11.819  18.571  0.00  0.00    +0.000 A 
ENDROOT
BRANCH   1   8
ATOM      7  N   UNL     1       2.036   8.287  17.920  0.00  0.00    +0.000 NA
ATOM      8  C   UNL     1       2.190   9.567  17.884  0.00  0.00    +0.000 C 
BRANCH   7  11
ATOM      9  O   UNL     1       4.680   5.968  17.958  0.00  0.00    +0.000 OA
ATOM     10  C   UNL     1       3.664   6.567  18.325  0.00  0.00    +0.000 C 
ATOM     11  N   UNL     1       3.126   7.561  17.542  0.00  0.00    +0.000 N 
ATOM     12  H   UNL     1       3.626   7.781  16.687  0.00  0.00    +0.000 HD
BRANCH  10  13
ATOM     13  C   UNL     1       2.950   6.229  19.623  0.00  0.00    +0.000 C 
BRANCH  13  14
ATOM     14  C   UNL     1       2.186   4.926  19.570  0.00  0.00    +0.000 A 
ATOM     15  C   UNL     1       1.793   4.288  20.754  0.00  0.00    +0.000 A 
ATOM     16  C   UNL     1       1.087   3.084  20.715  0.00  0.00    +0.000 A 
ATOM     17  C   UNL     1       0.766   2.506  19.490  0.00  0.00    +0.000 A 
ATOM     18  C   UNL     1       1.155   3.129  18.304  0.00  0.00    +0.000 A 
ATOM     19  C   UNL     1       1.867   4.330  18.343  0.00  0.00    +0.000 A 
ENDBRANCH  13  14
ENDBRANCH  10  13
ENDBRANCH   7  11
ENDBRANCH   1   8
BRANCH   4  20
ATOM     20  O   UNL     1      -1.841  13.216  19.475  0.00  0.00    +0.000 OA
BRANCH  20  21
ATOM     21  C   UNL     1      -2.475  12.972  20.686  0.00  0.00    +0.000 C 
ATOM     22  O   UNL     1      -3.498  12.331  20.865  0.00  0.00    +0.000 OA
BRANCH  21  23
ATOM     23  C   UNL     1      -1.698  13.653  21.749  0.00  0.00    +0.000 C 
ATOM     24  C   UNL     1      -0.897  13.039  22.636  0.00  0.00    +0.000 C 
BRANCH  24  25
ATOM     25  C   UNL     1      -0.563  11.658  22.580  0.00  0.00    +0.000 A 
ATOM     26  C   UNL     1      -1.235  10.570  23.132  0.00  0.00    +0.000 A 
ATOM     27  C   UNL     1      -0.495   9.401  22.828  0.00  0.00    +0.000 A 
ATOM     28  C   UNL     1       0.596   9.824  22.115  0.00  0.00    +0.000 A 
ATOM     29  O   UNL     1       0.579  11.172  21.985  0.00  0.00    +0.000 OA
ENDBRANCH  24  25
ENDBRANCH  21  23
ENDBRANCH  20  21
ENDBRANCH   4  20
TORSDOF 8
ENDMDL
MODEL 8
REMARK VINA RESULT:      -7.8      1.845      3.118
REMARK  Name = 
REMARK  8 active torsions:
REMARK  status: ('A' for Active; 'I' for Inactive)
REMARK    1  A    between atoms: C_2  and  C_3
REMARK    2  A    between atoms: C_3  and  C_4
REMARK    3  A    between atoms: N_10  and  N_11
REMARK    4  A    between atoms: C_12  and  C_13
REMARK    5  A    between atoms: C_16  and  O_17
REMARK    6  A    between atoms: O_17  and  C_18
REMARK    7  A    between atoms: C_18  and  C_20
REMARK    8  A    between atoms: C_21  and  C_22
REMARK                            x       y       z     vdW  Elec       q    Type
REMARK                         _______ _______ _______ _____ _____    ______ ____
ROOT
ATOM      1  C   UNL     1       2.085   8.211  19.024  0.00  0.00    +0.000 A 
ATOM      2  C   UNL     1       2.712   8.174  17.767  0.00  0.00    +0.000 A 
ATOM      3  C   UNL     1       3.385   7.023  17.356  0.00  0.00    +0.000 A 
ATOM      4  C   UNL     1       3.420   5.913  18.204  0.00  0.00    +0.000 A 
ATOM      5  C   UNL     1       2.771   5.938  19.437  0.00  0.00    +0.000 A 
ATOM      6  C   UNL     1       2.116   7.093  19.857  0.00  0.00    +0.000 A 
ENDROOT
BRANCH   1   8
ATOM      7  N   UNL     1       1.110  10.407  18.726  0.00  0.00    +0.000 NA
ATOM      8  C   UNL     1       1.381   9.417  19.508  0.00  0.00    +0.000 C 
BRANCH   7  11
ATOM      9  O   UNL     1      -1.373  12.524  20.038  0.00  0.00    +0.000 OA
ATOM     10  C   UNL     1      -0.860  11.521  19.533  0.00  0.00    +0.000 C 
ATOM     11  N   UNL     1       0.498  11.468  19.324  0.00  0.00    +0.000 N 
ATOM     12  H   UNL     1       1.024  12.298  19.575  0.00  0.00    +0.000 HD
BRANCH  10  13
ATOM     13  C   UNL     1      -1.680  10.301  19.146  0.00  0.00    +0.000 C 
BRANCH  13  14
ATOM     14  C   UNL     1      -2.455  10.477  17.862  0.00  0.00    +0.000 A 
ATOM     15  C   UNL     1      -3.645  11.219  17.849  0.00  0.00    +0.000 A 
ATOM     16  C   UNL     1      -4.368  11.387  16.667  0.00  0.00    +0.000 A 
ATOM     17  C   UNL     1      -3.908  10.816  15.484  0.00  0.00    +0.000 A 
ATOM     18  C   UNL     1      -2.729  10.072  15.484  0.00  0.00    +0.000 A 
ATOM     19  C   UNL     1      -2.008   9.898  16.668  0.00  0.00    +0.000 A 
ENDBRANCH  13  14
ENDBRANCH  10  13
ENDBRANCH   7  11
ENDBRANCH   1   8
BRANCH   4  20
ATOM     20  O   UNL     1       4.018   4.726  17.740  0.00  0.00    +0.000 OA
BRANCH  20  21
ATOM     21  C   UNL     1       3.124   3.747  17.328  0.00  0.00    +0.000 C 
ATOM     22  O   UNL     1       2.038   3.920  16.798  0.00  0.00    +0.000 OA
BRANCH  21  23
ATOM     23  C   UNL     1       3.708   2.428  17.666  0.00  0.00    +0.000 C 
ATOM     24  C   UNL     1       3.612   1.822  18.861  0.00  0.00    +0.000 C 
BRANCH  24  25
ATOM     25  C   UNL     1       2.804   2.299  19.929  0.00  0.00    +0.000 A 
ATOM     26  C   UNL     1       3.185   2.693  21.209  0.00  0.00    +0.000 A 
ATOM     27  C   UNL     1       2.015   3.062  21.917  0.00  0.00    +0.000 A 
ATOM     28  C   UNL     1       0.974   2.868  21.047  0.00  0.00    +0.000 A 
ATOM     29  O   UNL     1       1.431   2.388  19.867  0.00  0.00    +0.000 OA
ENDBRANCH  24  25
ENDBRANCH  21  23
ENDBRANCH  20  21
ENDBRANCH   4  20
TORSDOF 8
ENDMDL
MODEL 9
REMARK VINA RESULT:      -7.8      2.614      3.333
REMARK  Name = 
REMARK  8 active torsions:
REMARK  status: ('A' for Active; 'I' for Inactive)
REMARK    1  A    between atoms: C_2  and  C_3
REMARK    2  A    between atoms: C_3  and  C_4
REMARK    3  A    between atoms: N_10  and  N_11
REMARK    4  A    between atoms: C_12  and  C_13
REMARK    5  A    between atoms: C_16  and  O_17
REMARK    6  A    between atoms: O_17  and  C_18
REMARK    7  A    between atoms: C_18  and  C_20
REMARK    8  A    between atoms: C_21  and  C_22
REMARK                            x       y       z     vdW  Elec       q    Type
REMARK                         _______ _______ _______ _____ _____    ______ ____
ROOT
ATOM      1  C   UNL     1       1.849   7.220  20.303  0.00  0.00    +0.000 A 
ATOM      2  C   UNL     1       1.685   5.846  20.549  0.00  0.00    +0.000 A 
ATOM      3  C   UNL     1       2.032   4.915  19.569  0.00  0.00    +0.000 A 
ATOM      4  C   UNL     1       2.549   5.366  18.351  0.00  0.00    +0.000 A 
ATOM      5  C   UNL     1       2.741   6.727  18.120  0.00  0.00    +0.000 A 
ATOM      6  C   UNL     1       2.377   7.658  19.090  0.00  0.00    +0.000 A 
ENDROOT
BRANCH   1   8
ATOM      7  N   UNL     1       0.241   8.507  21.575  0.00  0.00    +0.000 NA
ATOM      8  C   UNL     1       1.473   8.240  21.305  0.00  0.00    +0.000 C 
BRANCH   7  11
ATOM      9  O   UNL     1      -0.578  11.616  23.003  0.00  0.00    +0.000 OA
ATOM     10  C   UNL     1      -0.466  10.732  22.148  0.00  0.00    +0.000 C 
ATOM     11  N   UNL     1       0.049   9.503  22.487  0.00  0.00    +0.000 N 
ATOM     12  H   UNL     1       0.351   9.391  23.449  0.00  0.00    +0.000 HD
BRANCH  10  13
ATOM     13  C   UNL     1      -0.906  10.938  20.708  0.00  0.00    +0.000 C 
BRANCH  13  14
ATOM     14  C   UNL     1      -0.096  11.980  19.973  0.00  0.00    +0.000 A 
ATOM     15  C   UNL     1       1.305  11.935  19.998  0.00  0.00    +0.000 A 
ATOM     16  C   UNL     1       2.061  12.894  19.322  0.00  0.00    +0.000 A 
ATOM     17  C   UNL     1       1.424  13.909  18.613  0.00  0.00    +0.000 A 
ATOM     18  C   UNL     1       0.031  13.968  18.585  0.00  0.00    +0.000 A 
ATOM     19  C   UNL     1      -0.726  13.012  19.267  0.00  0.00    +0.000 A 
ENDBRANCH  13  14
ENDBRANCH  10  13
ENDBRANCH   7  11
ENDBRANCH   1   8
BRANCH   4  20
ATOM     20  O   UNL     1       2.985   4.416  17.408  0.00  0.00    +0.000 OA
BRANCH  20  21
ATOM     21  C   UNL     1       4.285   3.966  17.597  0.00  0.00    +0.000 C 
ATOM     22  O   UNL     1       4.821   3.690  18.657  0.00  0.00    +0.000 OA
BRANCH  21  23
ATOM     23  C   UNL     1       4.937   3.896  16.267  0.00  0.00    +0.000 C 
ATOM     24  C   UNL     1       5.909   4.718  15.838  0.00  0.00    +0.000 C 
BRANCH  24  25
ATOM     25  C   UNL     1       6.554   5.681  16.661  0.00  0.00    +0.000 A 
ATOM     26  C   UNL     1       7.467   5.482  17.694  0.00  0.00    +0.000 A 
ATOM     27  C   UNL     1       7.802   6.749  18.229  0.00  0.00    +0.000 A 
ATOM     28  C   UNL     1       7.076   7.663  17.511  0.00  0.00    +0.000 A 
ATOM     29  O   UNL     1       6.308   7.034  16.590  0.00  0.00    +0.000 OA
ENDBRANCH  24  25
ENDBRANCH  21  23
ENDBRANCH  20  21
ENDBRANCH   4  20
TORSDOF 8
ENDMDL
