MODEL 1
REMARK VINA RESULT:      -7.4      0.000      0.000
REMARK  Name = 
REMARK  7 active torsions:
REMARK  status: ('A' for Active; 'I' for Inactive)
REMARK    1  A    between atoms: C_1  and  C_2
REMARK    2  A    between atoms: C_2  and  C_3
REMARK    3  A    between atoms: C_7  and  C_8
REMARK    4  A    between atoms: C_11  and  C_12
REMARK    5  A    between atoms: C_21  and  C_22
REMARK    6  A    between atoms: N_26  and  C_27
REMARK    7  A    between atoms: C_27  and  C_28
REMARK                            x       y       z     vdW  Elec       q    Type
REMARK                         _______ _______ _______ _____ _____    ______ ____
ROOT
ATOM      1  C   UNL     1      -1.428  13.451  21.229  0.00  0.00    +0.000 C 
ATOM      2  C   UNL     1      -0.322  12.424  21.686  0.00  0.00    +0.000 C 
ATOM      3  N   UNL     1      -0.086  11.433  20.660  0.00  0.00    +0.000 N 
ATOM      4  N   UNL     1       0.998  10.641  20.576  0.00  0.00    +0.000 NA
ATOM      5  C   UNL     1       0.740   9.866  19.496  0.00  0.00    +0.000 A 
ATOM      6  C   UNL     1      -0.497  10.276  18.873  0.00  0.00    +0.000 A 
ATOM      7  N   UNL     1      -1.176   9.859  17.770  0.00  0.00    +0.000 NA
ATOM      8  C   UNL     1      -2.310  10.572  17.529  0.00  0.00    +0.000 A 
ATOM      9  C   UNL     1      -3.160  10.088  16.383  0.00  0.00    +0.000 C 
ATOM     10  C   UNL     1      -2.799  11.618  18.319  0.00  0.00    +0.000 A 
ATOM     11  C   UNL     1      -2.183  11.953  19.511  0.00  0.00    +0.000 A 
ATOM     12  C   UNL     1      -0.984  11.264  19.673  0.00  0.00    +0.000 A 
ATOM     13  N   UNL     1      -2.605  12.794  20.530  0.00  0.00    +0.000 N 
ENDROOT
BRANCH   5  14
ATOM     14  C   UNL     1       1.640   8.796  19.037  0.00  0.00    +0.000 A 
ATOM     15  C   UNL     1       2.259   8.944  17.780  0.00  0.00    +0.000 A 
ATOM     16  C   UNL     1       3.099   7.961  17.246  0.00  0.00    +0.000 A 
ATOM     17  C   UNL     1       3.369   6.796  17.966  0.00  0.00    +0.000 A 
ATOM     18  C   UNL     1       2.771   6.637  19.226  0.00  0.00    +0.000 A 
ATOM     19  C   UNL     1       1.912   7.616  19.756  0.00  0.00    +0.000 A 
ATOM     20 CL   UNL     1       1.188   7.228  21.284  0.00  0.00    +0.000 Cl
BRANCH  17  21
ATOM     21  C   UNL     1       4.274   5.728  17.408  0.00  0.00    +0.000 C 
ATOM     22  F   UNL     1       5.305   5.400  18.237  0.00  0.00    +0.000 F 
ATOM     23  F   UNL     1       3.615   4.565  17.158  0.00  0.00    +0.000 F 
ATOM     24  F   UNL     1       4.848   6.095  16.229  0.00  0.00    +0.000 F 
ENDBRANCH  17  21
ENDBRANCH   5  14
BRANCH   1  26
ATOM     25  C   UNL     1      -2.104  13.618  23.711  0.00  0.00    +0.000 C 
ATOM     26  C   UNL     1      -1.812  14.356  22.412  0.00  0.00    +0.000 C 
ENDBRANCH   1  26
BRANCH  13  27
ATOM     27  C   UNL     1      -3.914  13.476  20.434  0.00  0.00    +0.000 C 
BRANCH  27  28
ATOM     28  C   UNL     1      -5.025  12.728  21.145  0.00  0.00    +0.000 C 
ATOM     29  C   UNL     1      -5.632  13.320  22.407  0.00  0.00    +0.000 C 
ATOM     30  C   UNL     1      -6.466  13.200  21.172  0.00  0.00    +0.000 C 
ENDBRANCH  27  28
ENDBRANCH  13  27
TORSDOF 5
ENDMDL
MODEL 2
REMARK VINA RESULT:      -7.3      5.079      8.493
REMARK  Name = 
REMARK  7 active torsions:
REMARK  status: ('A' for Active; 'I' for Inactive)
REMARK    1  A    between atoms: C_1  and  C_2
REMARK    2  A    between atoms: C_2  and  C_3
REMARK    3  A    between atoms: C_7  and  C_8
REMARK    4  A    between atoms: C_11  and  C_12
REMARK    5  A    between atoms: C_21  and  C_22
REMARK    6  A    between atoms: N_26  and  C_27
REMARK    7  A    between atoms: C_27  and  C_28
REMARK                            x       y       z     vdW  Elec       q    Type
REMARK                         _______ _______ _______ _____ _____    ______ ____
ROOT
ATOM      1  C   UNL     1       3.092   7.016  18.627  0.00  0.00    +0.000 C 
ATOM      2  C   UNL     1       2.604   8.147  17.643  0.00  0.00    +0.000 C 
ATOM      3  N   UNL     1       1.996   9.236  18.373  0.00  0.00    +0.000 N 
ATOM      4  N   UNL     1       1.791  10.476  17.895  0.00  0.00    +0.000 NA
ATOM      5  C   UNL     1       1.161  11.107  18.914  0.00  0.00    +0.000 A 
ATOM      6  C   UNL     1       1.072  10.234  20.062  0.00  0.00    +0.000 A 
ATOM      7  N   UNL     1       0.576  10.385  21.320  0.00  0.00    +0.000 NA
ATOM      8  C   UNL     1       0.740   9.283  22.103  0.00  0.00    +0.000 A 
ATOM      9  C   UNL     1       0.115   9.351  23.472  0.00  0.00    +0.000 C 
ATOM     10  C   UNL     1       1.323   8.076  21.701  0.00  0.00    +0.000 A 
ATOM     11  C   UNL     1       1.704   7.877  20.387  0.00  0.00    +0.000 A 
ATOM     12  C   UNL     1       1.602   9.051  19.645  0.00  0.00    +0.000 A 
ATOM     13  N   UNL     1       2.100   6.717  19.737  0.00  0.00    +0.000 N 
ENDROOT
BRANCH   5  14
ATOM     14  C   UNL     1       0.688  12.499  18.832  0.00  0.00    +0.000 A 
ATOM     15  C   UNL     1       1.649  13.517  18.675  0.00  0.00    +0.000 A 
ATOM     16  C   UNL     1       1.295  14.870  18.627  0.00  0.00    +0.000 A 
ATOM     17  C   UNL     1      -0.045  15.252  18.713  0.00  0.00    +0.000 A 
ATOM     18  C   UNL     1      -1.017  14.251  18.859  0.00  0.00    +0.000 A 
ATOM     19  C   UNL     1      -0.661  12.891  18.926  0.00  0.00    +0.000 A 
ATOM     20 CL   UNL     1      -1.972  11.788  19.192  0.00  0.00    +0.000 Cl
BRANCH  17  21
ATOM     21  C   UNL     1      -0.444  16.705  18.660  0.00  0.00    +0.000 C 
ATOM     22  F   UNL     1       0.499  17.548  19.168  0.00  0.00    +0.000 F 
ATOM     23  F   UNL     1      -0.679  17.134  17.391  0.00  0.00    +0.000 F 
ATOM     24  F   UNL     1      -1.584  16.958  19.359  0.00  0.00    +0.000 F 
ENDBRANCH  17  21
ENDBRANCH   5  14
BRANCH   1  26
ATOM     25  C   UNL     1       4.734   6.015  16.911  0.00  0.00    +0.000 C 
ATOM     26  C   UNL     1       3.535   5.784  17.818  0.00  0.00    +0.000 C 
ENDBRANCH   1  26
BRANCH  13  27
ATOM     27  C   UNL     1       2.136   5.432  20.469  0.00  0.00    +0.000 C 
BRANCH  27  28
ATOM     28  C   UNL     1       0.975   4.521  20.123  0.00  0.00    +0.000 C 
ATOM     29  C   UNL     1       1.200   3.358  19.170  0.00  0.00    +0.000 C 
ATOM     30  C   UNL     1       0.868   3.085  20.603  0.00  0.00    +0.000 C 
ENDBRANCH  27  28
ENDBRANCH  13  27
TORSDOF 5
ENDMDL
MODEL 3
REMARK VINA RESULT:      -7.1      1.083      1.312
REMARK  Name = 
REMARK  7 active torsions:
REMARK  status: ('A' for Active; 'I' for Inactive)
REMARK    1  A    between atoms: C_1  and  C_2
REMARK    2  A    between atoms: C_2  and  C_3
REMARK    3  A    between atoms: C_7  and  C_8
REMARK    4  A    between atoms: C_11  and  C_12
REMARK    5  A    between atoms: C_21  and  C_22
REMARK    6  A    between atoms: N_26  and  C_27
REMARK    7  A    between atoms: C_27  and  C_28
REMARK                            x       y       z     vdW  Elec       q    Type
REMARK                         _______ _______ _______ _____ _____    ______ ____
ROOT
ATOM      1  C   UNL     1      -2.937  13.381  20.595  0.00  0.00    +0.000 C 
ATOM      2  C   UNL     1      -1.823  12.485  21.260  0.00  0.00    +0.000 C 
ATOM      3  N   UNL     1      -1.280  11.546  20.303  0.00  0.00    +0.000 N 
ATOM      4  N   UNL     1      -0.113  10.890  20.432  0.00  0.00    +0.000 NA
ATOM      5  C   UNL     1      -0.068  10.107  19.328  0.00  0.00    +0.000 A 
ATOM      6  C   UNL     1      -1.204  10.378  18.478  0.00  0.00    +0.000 A 
ATOM      7  N   UNL     1      -1.607   9.903  17.269  0.00  0.00    +0.000 NA
ATOM      8  C   UNL     1      -2.752  10.480  16.813  0.00  0.00    +0.000 A 
ATOM      9  C   UNL     1      -3.306   9.917  15.530  0.00  0.00    +0.000 C 
ATOM     10  C   UNL     1      -3.503  11.448  17.489  0.00  0.00    +0.000 A 
ATOM     11  C   UNL     1      -3.169  11.833  18.774  0.00  0.00    +0.000 A 
ATOM     12  C   UNL     1      -1.949  11.288  19.166  0.00  0.00    +0.000 A 
ATOM     13  N   UNL     1      -3.873  12.601  19.689  0.00  0.00    +0.000 N 
ENDROOT
BRANCH   5  14
ATOM     14  C   UNL     1       1.024   9.159  19.055  0.00  0.00    +0.000 A 
ATOM     15  C   UNL     1       1.662   9.226  17.800  0.00  0.00    +0.000 A 
ATOM     16  C   UNL     1       2.683   8.340  17.438  0.00  0.00    +0.000 A 
ATOM     17  C   UNL     1       3.120   7.364  18.335  0.00  0.00    +0.000 A 
ATOM     18  C   UNL     1       2.505   7.290  19.594  0.00  0.00    +0.000 A 
ATOM     19  C   UNL     1       1.466   8.168  19.952  0.00  0.00    +0.000 A 
ATOM     20 CL   UNL     1       0.755   7.890  21.509  0.00  0.00    +0.000 Cl
BRANCH  17  21
ATOM     21  C   UNL     1       4.221   6.404  17.963  0.00  0.00    +0.000 C 
ATOM     22  F   UNL     1       5.305   7.010  17.401  0.00  0.00    +0.000 F 
ATOM     23  F   UNL     1       4.696   5.716  19.036  0.00  0.00    +0.000 F 
ATOM     24  F   UNL     1       3.814   5.465  17.065  0.00  0.00    +0.000 F 
ENDBRANCH  17  21
ENDBRANCH   5  14
BRANCH   1  26
ATOM     25  C   UNL     1      -3.653  13.583  23.063  0.00  0.00    +0.000 C 
ATOM     26  C   UNL     1      -3.643  14.214  21.678  0.00  0.00    +0.000 C 
ENDBRANCH   1  26
BRANCH  13  27
ATOM     27  C   UNL     1      -5.213  13.125  19.343  0.00  0.00    +0.000 C 
BRANCH  27  28
ATOM     28  C   UNL     1      -6.341  12.302  19.933  0.00  0.00    +0.000 C 
ATOM     29  C   UNL     1      -6.676  12.449  21.408  0.00  0.00    +0.000 C 
ATOM     30  C   UNL     1      -7.664  12.896  20.379  0.00  0.00    +0.000 C 
ENDBRANCH  27  28
ENDBRANCH  13  27
TORSDOF 5
ENDMDL
MODEL 4
REMARK VINA RESULT:      -7.0      0.928      1.359
REMARK  Name = 
REMARK  7 active torsions:
REMARK  status: ('A' for Active; 'I' for Inactive)
REMARK    1  A    between atoms: C_1  and  C_2
REMARK    2  A    between atoms: C_2  and  C_3
REMARK    3  A    between atoms: C_7  and  C_8
REMARK    4  A    between atoms: C_11  and  C_12
REMARK    5  A    between atoms: C_21  and  C_22
REMARK    6  A    between atoms: N_26  and  C_27
REMARK    7  A    between atoms: C_27  and  C_28
REMARK                            x       y       z     vdW  Elec       q    Type
REMARK                         _______ _______ _______ _____ _____    ______ ____
ROOT
ATOM      1  C   UNL     1      -1.168  14.284  21.169  0.00  0.00    +0.000 C 
ATOM      2  C   UNL     1      -0.015  13.297  21.595  0.00  0.00    +0.000 C 
ATOM      3  N   UNL     1       0.025  12.146  20.721  0.00  0.00    +0.000 N 
ATOM      4  N   UNL     1       1.068  11.306  20.586  0.00  0.00    +0.000 NA
ATOM      5  C   UNL     1       0.614  10.380  19.708  0.00  0.00    +0.000 A 
ATOM      6  C   UNL     1      -0.707  10.737  19.244  0.00  0.00    +0.000 A 
ATOM      7  N   UNL     1      -1.572  10.179  18.355  0.00  0.00    +0.000 NA
ATOM      8  C   UNL     1      -2.721  10.892  18.196  0.00  0.00    +0.000 A 
ATOM      9  C   UNL     1      -3.764  10.267  17.307  0.00  0.00    +0.000 C 
ATOM     10  C   UNL     1      -3.050  12.071  18.875  0.00  0.00    +0.000 A 
ATOM     11  C   UNL     1      -2.232  12.565  19.874  0.00  0.00    +0.000 A 
ATOM     12  C   UNL     1      -1.033  11.860  19.942  0.00  0.00    +0.000 A 
ATOM     13  N   UNL     1      -2.458  13.575  20.797  0.00  0.00    +0.000 N 
ENDROOT
BRANCH   5  14
ATOM     14  C   UNL     1       1.406   9.213  19.285  0.00  0.00    +0.000 A 
ATOM     15  C   UNL     1       1.941   9.212  17.982  0.00  0.00    +0.000 A 
ATOM     16  C   UNL     1       2.673   8.130  17.481  0.00  0.00    +0.000 A 
ATOM     17  C   UNL     1       2.915   7.012  18.281  0.00  0.00    +0.000 A 
ATOM     18  C   UNL     1       2.399   7.000  19.586  0.00  0.00    +0.000 A 
ATOM     19  C   UNL     1       1.648   8.079  20.085  0.00  0.00    +0.000 A 
ATOM     20 CL   UNL     1       1.011   7.871  21.684  0.00  0.00    +0.000 Cl
BRANCH  17  21
ATOM     21  C   UNL     1       3.705   5.839  17.759  0.00  0.00    +0.000 C 
ATOM     22  F   UNL     1       2.931   4.766  17.429  0.00  0.00    +0.000 F 
ATOM     23  F   UNL     1       4.411   6.144  16.638  0.00  0.00    +0.000 F 
ATOM     24  F   UNL     1       4.613   5.378  18.662  0.00  0.00    +0.000 F 
ENDBRANCH  17  21
ENDBRANCH   5  14
BRANCH   1  26
ATOM     25  C   UNL     1      -1.097  16.798  21.731  0.00  0.00    +0.000 C 
ATOM     26  C   UNL     1      -1.327  15.381  22.235  0.00  0.00    +0.000 C 
ENDBRANCH   1  26
BRANCH  13  27
ATOM     27  C   UNL     1      -3.754  14.288  20.814  0.00  0.00    +0.000 C 
BRANCH  27  28
ATOM     28  C   UNL     1      -4.584  13.980  22.045  0.00  0.00    +0.000 C 
ATOM     29  C   UNL     1      -5.575  12.828  22.005  0.00  0.00    +0.000 C 
ATOM     30  C   UNL     1      -4.381  12.744  22.902  0.00  0.00    +0.000 C 
ENDBRANCH  27  28
ENDBRANCH  13  27
TORSDOF 5
ENDMDL
MODEL 5
REMARK VINA RESULT:      -7.0      1.366      1.734
REMARK  Name = 
REMARK  7 active torsions:
REMARK  status: ('A' for Active; 'I' for Inactive)
REMARK    1  A    between atoms: C_1  and  C_2
REMARK    2  A    between atoms: C_2  and  C_3
REMARK    3  A    between atoms: C_7  and  C_8
REMARK    4  A    between atoms: C_11  and  C_12
REMARK    5  A    between atoms: C_21  and  C_22
REMARK    6  A    between atoms: N_26  and  C_27
REMARK    7  A    between atoms: C_27  and  C_28
REMARK                            x       y       z     vdW  Elec       q    Type
REMARK                         _______ _______ _______ _____ _____    ______ ____
ROOT
ATOM      1  C   UNL     1      -1.816  13.504  22.149  0.00  0.00    +0.000 C 
ATOM      2  C   UNL     1      -0.862  12.360  22.663  0.00  0.00    +0.000 C 
ATOM      3  N   UNL     1      -0.575  11.416  21.606  0.00  0.00    +0.000 N 
ATOM      4  N   UNL     1       0.446  10.540  21.600  0.00  0.00    +0.000 NA
ATOM      5  C   UNL     1       0.267   9.856  20.445  0.00  0.00    +0.000 A 
ATOM      6  C   UNL     1      -0.845  10.408  19.706  0.00  0.00    +0.000 A 
ATOM      7  N   UNL     1      -1.408  10.119  18.502  0.00  0.00    +0.000 NA
ATOM      8  C   UNL     1      -2.443  10.940  18.175  0.00  0.00    +0.000 A 
ATOM      9  C   UNL     1      -3.176  10.600  16.904  0.00  0.00    +0.000 C 
ATOM     10  C   UNL     1      -2.945  11.975  18.972  0.00  0.00    +0.000 A 
ATOM     11  C   UNL     1      -2.462  12.183  20.250  0.00  0.00    +0.000 A 
ATOM     12  C   UNL     1      -1.351  11.384  20.509  0.00  0.00    +0.000 A 
ATOM     13  N   UNL     1      -2.943  12.995  21.267  0.00  0.00    +0.000 N 
ENDROOT
BRANCH   5  14
ATOM     14  C   UNL     1       1.132   8.742  20.024  0.00  0.00    +0.000 A 
ATOM     15  C   UNL     1       1.238   7.626  20.879  0.00  0.00    +0.000 A 
ATOM     16  C   UNL     1       2.066   6.539  20.580  0.00  0.00    +0.000 A 
ATOM     17  C   UNL     1       2.806   6.520  19.397  0.00  0.00    +0.000 A 
ATOM     18  C   UNL     1       2.704   7.617  18.528  0.00  0.00    +0.000 A 
ATOM     19  C   UNL     1       1.886   8.719  18.835  0.00  0.00    +0.000 A 
ATOM     20 CL   UNL     1       1.937  10.029  17.700  0.00  0.00    +0.000 Cl
BRANCH  17  21
ATOM     21  C   UNL     1       3.700   5.355  19.057  0.00  0.00    +0.000 C 
ATOM     22  F   UNL     1       4.925   5.418  19.652  0.00  0.00    +0.000 F 
ATOM     23  F   UNL     1       3.167   4.162  19.434  0.00  0.00    +0.000 F 
ATOM     24  F   UNL     1       3.941   5.254  17.721  0.00  0.00    +0.000 F 
ENDBRANCH  17  21
ENDBRANCH   5  14
BRANCH   1  26
ATOM     25  C   UNL     1      -1.148  15.008  24.132  0.00  0.00    +0.000 C 
ATOM     26  C   UNL     1      -2.275  14.366  23.338  0.00  0.00    +0.000 C 
ENDBRANCH   1  26
BRANCH  13  27
ATOM     27  C   UNL     1      -4.172  13.791  21.061  0.00  0.00    +0.000 C 
BRANCH  27  28
ATOM     28  C   UNL     1      -5.408  13.136  21.646  0.00  0.00    +0.000 C 
ATOM     29  C   UNL     1      -6.781  13.579  21.169  0.00  0.00    +0.000 C 
ATOM     30  C   UNL     1      -6.304  12.195  20.864  0.00  0.00    +0.000 C 
ENDBRANCH  27  28
ENDBRANCH  13  27
TORSDOF 5
ENDMDL
MODEL 6
REMARK VINA RESULT:      -6.8      5.174      8.575
REMARK  Name = 
REMARK  7 active torsions:
REMARK  status: ('A' for Active; 'I' for Inactive)
REMARK    1  A    between atoms: C_1  and  C_2
REMARK    2  A    between atoms: C_2  and  C_3
REMARK    3  A    between atoms: C_7  and  C_8
REMARK    4  A    between atoms: C_11  and  C_12
REMARK    5  A    between atoms: C_21  and  C_22
REMARK    6  A    between atoms: N_26  and  C_27
REMARK    7  A    between atoms: C_27  and  C_28
REMARK                            x       y       z     vdW  Elec       q    Type
REMARK                         _______ _______ _______ _____ _____    ______ ____
ROOT
ATOM      1  C   UNL     1       3.048   7.099  18.655  0.00  0.00    +0.000 C 
ATOM      2  C   UNL     1       2.628   8.269  17.686  0.00  0.00    +0.000 C 
ATOM      3  N   UNL     1       2.043   9.364  18.426  0.00  0.00    +0.000 N 
ATOM      4  N   UNL     1       1.898  10.622  17.971  0.00  0.00    +0.000 NA
ATOM      5  C   UNL     1       1.267  11.254  18.989  0.00  0.00    +0.000 A 
ATOM      6  C   UNL     1       1.117  10.361  20.114  0.00  0.00    +0.000 A 
ATOM      7  N   UNL     1       0.596  10.503  21.363  0.00  0.00    +0.000 NA
ATOM      8  C   UNL     1       0.698   9.379  22.124  0.00  0.00    +0.000 A 
ATOM      9  C   UNL     1       0.042   9.441  23.479  0.00  0.00    +0.000 C 
ATOM     10  C   UNL     1       1.244   8.160  21.710  0.00  0.00    +0.000 A 
ATOM     11  C   UNL     1       1.651   7.974  20.401  0.00  0.00    +0.000 A 
ATOM     12  C   UNL     1       1.612   9.167  19.684  0.00  0.00    +0.000 A 
ATOM     13  N   UNL     1       2.018   6.815  19.735  0.00  0.00    +0.000 N 
ENDROOT
BRANCH   5  14
ATOM     14  C   UNL     1       0.849  12.665  18.928  0.00  0.00    +0.000 A 
ATOM     15  C   UNL     1      -0.515  12.961  19.121  0.00  0.00    +0.000 A 
ATOM     16  C   UNL     1      -1.009  14.267  19.042  0.00  0.00    +0.000 A 
ATOM     17  C   UNL     1      -0.145  15.333  18.787  0.00  0.00    +0.000 A 
ATOM     18  C   UNL     1       1.219  15.059  18.603  0.00  0.00    +0.000 A 
ATOM     19  C   UNL     1       1.714  13.744  18.664  0.00  0.00    +0.000 A 
ATOM     20 CL   UNL     1       3.406  13.566  18.330  0.00  0.00    +0.000 Cl
BRANCH  17  21
ATOM     21  C   UNL     1      -0.660  16.748  18.701  0.00  0.00    +0.000 C 
ATOM     22  F   UNL     1      -0.725  17.227  17.427  0.00  0.00    +0.000 F 
ATOM     23  F   UNL     1      -1.915  16.877  19.210  0.00  0.00    +0.000 F 
ATOM     24  F   UNL     1       0.117  17.628  19.390  0.00  0.00    +0.000 F 
ENDBRANCH  17  21
ENDBRANCH   5  14
BRANCH   1  26
ATOM     25  C   UNL     1       4.892   5.398  18.063  0.00  0.00    +0.000 C 
ATOM     26  C   UNL     1       3.464   5.869  17.830  0.00  0.00    +0.000 C 
ENDBRANCH   1  26
BRANCH  13  27
ATOM     27  C   UNL     1       1.987   5.513  20.438  0.00  0.00    +0.000 C 
BRANCH  27  28
ATOM     28  C   UNL     1       1.037   4.518  19.800  0.00  0.00    +0.000 C 
ATOM     29  C   UNL     1       1.595   3.242  19.192  0.00  0.00    +0.000 C 
ATOM     30  C   UNL     1       0.720   3.162  20.402  0.00  0.00    +0.000 C 
ENDBRANCH  27  28
ENDBRANCH  13  27
TORSDOF 5
ENDMDL
MODEL 7
REMARK VINA RESULT:      -6.7      4.583      9.377
REMARK  Name = 
REMARK  7 active torsions:
REMARK  status: ('A' for Active; 'I' for Inactive)
REMARK    1  A    between atoms: C_1  and  C_2
REMARK    2  A    between atoms: C_2  and  C_3
REMARK    3  A    between atoms: C_7  and  C_8
REMARK    4  A    between atoms: C_11  and  C_12
REMARK    5  A    between atoms: C_21  and  C_22
REMARK    6  A    between atoms: N_26  and  C_27
REMARK    7  A    between atoms: C_27  and  C_28
REMARK                            x       y       z     vdW  Elec       q    Type
REMARK                         _______ _______ _______ _____ _____    ______ ____
ROOT
ATOM      1  C   UNL     1       4.924   5.965  16.923  0.00  0.00    +0.000 C 
ATOM      2  C   UNL     1       3.995   7.232  16.796  0.00  0.00    +0.000 C 
ATOM      3  N   UNL     1       3.177   7.391  17.977  0.00  0.00    +0.000 N 
ATOM      4  N   UNL     1       2.545   8.521  18.341  0.00  0.00    +0.000 NA
ATOM      5  C   UNL     1       1.883   8.163  19.468  0.00  0.00    +0.000 A 
ATOM      6  C   UNL     1       2.210   6.803  19.826  0.00  0.00    +0.000 A 
ATOM      7  N   UNL     1       1.852   5.993  20.859  0.00  0.00    +0.000 NA
ATOM      8  C   UNL     1       2.441   4.766  20.816  0.00  0.00    +0.000 A 
ATOM      9  C   UNL     1       2.000   3.788  21.874  0.00  0.00    +0.000 C 
ATOM     10  C   UNL     1       3.311   4.314  19.818  0.00  0.00    +0.000 A 
ATOM     11  C   UNL     1       3.569   5.086  18.701  0.00  0.00    +0.000 A 
ATOM     12  C   UNL     1       3.021   6.360  18.826  0.00  0.00    +0.000 A 
ATOM     13  N   UNL     1       4.217   4.760  17.519  0.00  0.00    +0.000 N 
ENDROOT
BRANCH   5  14
ATOM     14  C   UNL     1       1.000   9.078  20.209  0.00  0.00    +0.000 A 
ATOM     15  C   UNL     1       1.103   9.104  21.615  0.00  0.00    +0.000 A 
ATOM     16  C   UNL     1       0.279   9.913  22.404  0.00  0.00    +0.000 A 
ATOM     17  C   UNL     1      -0.670  10.747  21.809  0.00  0.00    +0.000 A 
ATOM     18  C   UNL     1      -0.779  10.742  20.410  0.00  0.00    +0.000 A 
ATOM     19  C   UNL     1       0.037   9.916  19.616  0.00  0.00    +0.000 A 
ATOM     20 CL   UNL     1      -0.281   9.966  17.912  0.00  0.00    +0.000 Cl
BRANCH  17  21
ATOM     21  C   UNL     1      -1.564  11.627  22.644  0.00  0.00    +0.000 C 
ATOM     22  F   UNL     1      -2.564  12.219  21.931  0.00  0.00    +0.000 F 
ATOM     23  F   UNL     1      -2.179  10.943  23.646  0.00  0.00    +0.000 F 
ATOM     24  F   UNL     1      -0.884  12.643  23.244  0.00  0.00    +0.000 F 
ENDBRANCH  17  21
ENDBRANCH   5  14
BRANCH   1  26
ATOM     25  C   UNL     1       7.066   5.241  15.686  0.00  0.00    +0.000 C 
ATOM     26  C   UNL     1       5.619   5.697  15.577  0.00  0.00    +0.000 C 
ENDBRANCH   1  26
BRANCH  13  27
ATOM     27  C   UNL     1       4.736   3.390  17.311  0.00  0.00    +0.000 C 
BRANCH  27  28
ATOM     28  C   UNL     1       3.643   2.380  17.021  0.00  0.00    +0.000 C 
ATOM     29  C   UNL     1       3.272   1.359  18.084  0.00  0.00    +0.000 C 
ATOM     30  C   UNL     1       2.281   2.407  17.690  0.00  0.00    +0.000 C 
ENDBRANCH  27  28
ENDBRANCH  13  27
TORSDOF 5
ENDMDL
MODEL 8
REMARK VINA RESULT:      -6.6      2.114      3.794
REMARK  Name = 
REMARK  7 active torsions:
REMARK  status: ('A' for Active; 'I' for Inactive)
REMARK    1  A    between atoms: C_1  and  C_2
REMARK    2  A    between atoms: C_2  and  C_3
REMARK    3  A    between atoms: C_7  and  C_8
REMARK    4  A    between atoms: C_11  and  C_12
REMARK    5  A    between atoms: C_21  and  C_22
REMARK    6  A    between atoms: N_26  and  C_27
REMARK    7  A    between atoms: C_27  and  C_28
REMARK                            x       y       z     vdW  Elec       q    Type
REMARK                         _______ _______ _______ _____ _____    ______ ____
ROOT
ATOM      1  C   UNL     1      -2.833  13.848  20.932  0.00  0.00    +0.000 C 
ATOM      2  C   UNL     1      -2.790  12.519  20.084  0.00  0.00    +0.000 C 
ATOM      3  N   UNL     1      -1.443  11.998  20.015  0.00  0.00    +0.000 N 
ATOM      4  N   UNL     1      -1.112  10.738  19.677  0.00  0.00    +0.000 NA
ATOM      5  C   UNL     1       0.242  10.750  19.708  0.00  0.00    +0.000 A 
ATOM      6  C   UNL     1       0.720  12.034  20.165  0.00  0.00    +0.000 A 
ATOM      7  N   UNL     1       1.958  12.546  20.401  0.00  0.00    +0.000 NA
ATOM      8  C   UNL     1       1.937  13.823  20.871  0.00  0.00    +0.000 A 
ATOM      9  C   UNL     1       3.281  14.480  21.048  0.00  0.00    +0.000 C 
ATOM     10  C   UNL     1       0.790  14.596  21.080  0.00  0.00    +0.000 A 
ATOM     11  C   UNL     1      -0.458  14.126  20.714  0.00  0.00    +0.000 A 
ATOM     12  C   UNL     1      -0.402  12.790  20.323  0.00  0.00    +0.000 A 
ATOM     13  N   UNL     1      -1.675  14.785  20.638  0.00  0.00    +0.000 N 
ENDROOT
BRANCH   5  14
ATOM     14  C   UNL     1       1.067   9.582  19.356  0.00  0.00    +0.000 A 
ATOM     15  C   UNL     1       1.560   9.492  18.039  0.00  0.00    +0.000 A 
ATOM     16  C   UNL     1       2.319   8.400  17.604  0.00  0.00    +0.000 A 
ATOM     17  C   UNL     1       2.633   7.364  18.484  0.00  0.00    +0.000 A 
ATOM     18  C   UNL     1       2.160   7.442  19.804  0.00  0.00    +0.000 A 
ATOM     19  C   UNL     1       1.381   8.531  20.237  0.00  0.00    +0.000 A 
ATOM     20 CL   UNL     1       0.806   8.434  21.870  0.00  0.00    +0.000 Cl
BRANCH  17  21
ATOM     21  C   UNL     1       3.452   6.182  18.034  0.00  0.00    +0.000 C 
ATOM     22  F   UNL     1       2.710   5.062  17.803  0.00  0.00    +0.000 F 
ATOM     23  F   UNL     1       4.125   6.425  16.877  0.00  0.00    +0.000 F 
ATOM     24  F   UNL     1       4.395   5.821  18.948  0.00  0.00    +0.000 F 
ENDBRANCH  17  21
ENDBRANCH   5  14
BRANCH   1  26
ATOM     25  C   UNL     1      -5.306  13.574  20.261  0.00  0.00    +0.000 C 
ATOM     26  C   UNL     1      -4.224  14.492  20.810  0.00  0.00    +0.000 C 
ENDBRANCH   1  26
BRANCH  13  27
ATOM     27  C   UNL     1      -1.759  16.227  20.959  0.00  0.00    +0.000 C 
BRANCH  27  28
ATOM     28  C   UNL     1      -1.773  17.109  19.727  0.00  0.00    +0.000 C 
ATOM     29  C   UNL     1      -0.691  18.163  19.554  0.00  0.00    +0.000 C 
ATOM     30  C   UNL     1      -0.749  17.003  18.612  0.00  0.00    +0.000 C 
ENDBRANCH  27  28
ENDBRANCH  13  27
TORSDOF 5
ENDMDL
MODEL 9
REMARK VINA RESULT:      -6.5      1.523      2.157
REMARK  Name = 
REMARK  7 active torsions:
REMARK  status: ('A' for Active; 'I' for Inactive)
REMARK    1  A    between atoms: C_1  and  C_2
REMARK    2  A    between atoms: C_2  and  C_3
REMARK    3  A    between atoms: C_7  and  C_8
REMARK    4  A    between atoms: C_11  and  C_12
REMARK    5  A    between atoms: C_21  and  C_22
REMARK    6  A    between atoms: N_26  and  C_27
REMARK    7  A    between atoms: C_27  and  C_28
REMARK                            x       y       z     vdW  Elec       q    Type
REMARK                         _______ _______ _______ _____ _____    ______ ____
ROOT
ATOM      1  C   UNL     1      -1.126  14.243  21.684  0.00  0.00    +0.000 C 
ATOM      2  C   UNL     1      -0.156  13.133  22.242  0.00  0.00    +0.000 C 
ATOM      3  N   UNL     1      -0.128  11.986  21.362  0.00  0.00    +0.000 N 
ATOM      4  N   UNL     1       0.823  11.034  21.353  0.00  0.00    +0.000 NA
ATOM      5  C   UNL     1       0.389  10.165  20.408  0.00  0.00    +0.000 A 
ATOM      6  C   UNL     1      -0.810  10.669  19.780  0.00  0.00    +0.000 A 
ATOM      7  N   UNL     1      -1.606  10.213  18.776  0.00  0.00    +0.000 NA
ATOM      8  C   UNL     1      -2.638  11.050  18.478  0.00  0.00    +0.000 A 
ATOM      9  C   UNL     1      -3.616  10.547  17.449  0.00  0.00    +0.000 C 
ATOM     10  C   UNL     1      -2.921  12.257  19.126  0.00  0.00    +0.000 A 
ATOM     11  C   UNL     1      -2.192  12.655  20.232  0.00  0.00    +0.000 A 
ATOM     12  C   UNL     1      -1.099  11.821  20.447  0.00  0.00    +0.000 A 
ATOM     13  N   UNL     1      -2.425  13.684  21.133  0.00  0.00    +0.000 N 
ENDROOT
BRANCH   5  14
ATOM     14  C   UNL     1       1.096   8.917  20.075  0.00  0.00    +0.000 A 
ATOM     15  C   UNL     1       1.057   7.864  21.011  0.00  0.00    +0.000 A 
ATOM     16  C   UNL     1       1.731   6.657  20.797  0.00  0.00    +0.000 A 
ATOM     17  C   UNL     1       2.454   6.451  19.621  0.00  0.00    +0.000 A 
ATOM     18  C   UNL     1       2.494   7.484  18.672  0.00  0.00    +0.000 A 
ATOM     19  C   UNL     1       1.832   8.706  18.894  0.00  0.00    +0.000 A 
ATOM     20 CL   UNL     1       2.050   9.909  17.664  0.00  0.00    +0.000 Cl
BRANCH  17  21
ATOM     21  C   UNL     1       3.183   5.155  19.373  0.00  0.00    +0.000 C 
ATOM     22  F   UNL     1       2.496   4.289  18.575  0.00  0.00    +0.000 F 
ATOM     23  F   UNL     1       4.386   5.343  18.766  0.00  0.00    +0.000 F 
ATOM     24  F   UNL     1       3.443   4.475  20.523  0.00  0.00    +0.000 F 
ENDBRANCH  17  21
ENDBRANCH   5  14
BRANCH   1  26
ATOM     25  C   UNL     1      -0.864  16.736  22.285  0.00  0.00    +0.000 C 
ATOM     26  C   UNL     1      -1.302  15.351  22.737  0.00  0.00    +0.000 C 
ENDBRANCH   1  26
BRANCH  13  27
ATOM     27  C   UNL     1      -3.625  14.537  20.990  0.00  0.00    +0.000 C 
BRANCH  27  28
ATOM     28  C   UNL     1      -4.682  14.255  22.040  0.00  0.00    +0.000 C 
ATOM     29  C   UNL     1      -5.690  13.143  21.801  0.00  0.00    +0.000 C 
ATOM     30  C   UNL     1      -4.689  13.008  22.904  0.00  0.00    +0.000 C 
ENDBRANCH  27  28
ENDBRANCH  13  27
TORSDOF 5
ENDMDL
