MODEL 1
REMARK VINA RESULT:      -7.6      0.000      0.000
REMARK  Name = 
REMARK  10 active torsions:
REMARK  status: ('A' for Active; 'I' for Inactive)
REMARK    1  A    between atoms: C_1  and  C_2
REMARK    2  A    between atoms: C_2  and  N_3
REMARK    3  A    between atoms: C_7  and  C_9
REMARK    4  A    between atoms: C_12  and  C_13
REMARK    5  A    between atoms: C_16  and  O_17
REMARK    6  A    between atoms: O_17  and  C_18
REMARK    7  A    between atoms: C_22  and  O_23
REMARK    8  A    between atoms: O_23  and  C_24
REMARK    9  A    between atoms: C_27  and  O_28
REMARK   10  A    between atoms: O_28  and  C_29
REMARK                            x       y       z     vdW  Elec       q    Type
REMARK                         _______ _______ _______ _____ _____    ______ ____
ROOT
ATOM      1  C   UNL     1       0.796  10.896  21.092  0.00  0.00    +0.000 A 
ATOM      2  C   UNL     1       1.237   9.979  22.029  0.00  0.00    +0.000 A 
ATOM      3  N   UNL     1       1.569   8.703  21.757  0.00  0.00    +0.000 NA
ATOM      4  C   UNL     1       1.414   8.302  20.483  0.00  0.00    +0.000 A 
ATOM      5  N   UNL     1       0.937   9.091  19.513  0.00  0.00    +0.000 NA
ATOM      6  C   UNL     1       0.659  10.377  19.820  0.00  0.00    +0.000 A 
ENDROOT
BRANCH   1  11
ATOM      7  N   UNL     1      -3.410  13.522  22.824  0.00  0.00    +0.000 NA
ATOM      8  C   UNL     1      -2.332  14.435  22.363  0.00  0.00    +0.000 C 
ATOM      9  C   UNL     1      -0.895  13.963  22.690  0.00  0.00    +0.000 C 
ATOM     10  N   UNL     1      -0.664  12.571  22.272  0.00  0.00    +0.000 N 
ATOM     11  C   UNL     1       0.508  12.257  21.594  0.00  0.00    +0.000 C 
ATOM     12  O   UNL     1       1.328  13.122  21.288  0.00  0.00    +0.000 OA
ATOM     13  C   UNL     1      -1.733  11.644  22.641  0.00  0.00    +0.000 C 
ATOM     14  C   UNL     1      -3.125  12.179  22.291  0.00  0.00    +0.000 C 
BRANCH   7  16
ATOM     15  C   UNL     1      -4.462  12.480  24.857  0.00  0.00    +0.000 C 
ATOM     16  C   UNL     1      -3.546  13.561  24.289  0.00  0.00    +0.000 C 
ENDBRANCH   7  16
ENDBRANCH   1  11
BRANCH   4  17
ATOM     17  C   UNL     1       1.866   6.956  20.103  0.00  0.00    +0.000 A 
ATOM     18  C   UNL     1       2.624   6.740  18.940  0.00  0.00    +0.000 A 
ATOM     19  C   UNL     1       3.030   5.456  18.570  0.00  0.00    +0.000 A 
ATOM     20  C   UNL     1       2.705   4.354  19.358  0.00  0.00    +0.000 A 
ATOM     21  C   UNL     1       1.944   4.536  20.510  0.00  0.00    +0.000 A 
ATOM     22  C   UNL     1       1.534   5.822  20.876  0.00  0.00    +0.000 A 
BRANCH  20  23
ATOM     23  O   UNL     1       3.145   3.152  18.884  0.00  0.00    +0.000 OA
ATOM     24  C   UNL     1       4.223   2.566  19.604  0.00  0.00    +0.000 C 
ENDBRANCH  20  23
ENDBRANCH   4  17
BRANCH   6  25
ATOM     25  O   UNL     1       0.189  11.158  18.777  0.00  0.00    +0.000 OA
BRANCH  25  26
ATOM     26  C   UNL     1      -1.141  11.012  18.402  0.00  0.00    +0.000 A 
ATOM     27  C   UNL     1      -2.032  11.948  18.922  0.00  0.00    +0.000 A 
ATOM     28  C   UNL     1      -3.382  11.914  18.555  0.00  0.00    +0.000 A 
ATOM     29  C   UNL     1      -3.851  10.963  17.646  0.00  0.00    +0.000 A 
ATOM     30  C   UNL     1      -2.965  10.025  17.123  0.00  0.00    +0.000 A 
ATOM     31  C   UNL     1      -1.613  10.060  17.485  0.00  0.00    +0.000 A 
BRANCH  29  32
ATOM     32  O   UNL     1      -5.189  11.022  17.366  0.00  0.00    +0.000 OA
ATOM     33  C   UNL     1      -6.058  10.826  18.478  0.00  0.00    +0.000 C 
ENDBRANCH  29  32
ENDBRANCH  25  26
ENDBRANCH   6  25
TORSDOF 7
ENDMDL
MODEL 2
REMARK VINA RESULT:      -7.4      0.426      1.258
REMARK  Name = 
REMARK  10 active torsions:
REMARK  status: ('A' for Active; 'I' for Inactive)
REMARK    1  A    between atoms: C_1  and  C_2
REMARK    2  A    between atoms: C_2  and  N_3
REMARK    3  A    between atoms: C_7  and  C_9
REMARK    4  A    between atoms: C_12  and  C_13
REMARK    5  A    between atoms: C_16  and  O_17
REMARK    6  A    between atoms: O_17  and  C_18
REMARK    7  A    between atoms: C_22  and  O_23
REMARK    8  A    between atoms: O_23  and  C_24
REMARK    9  A    between atoms: C_27  and  O_28
REMARK   10  A    between atoms: O_28  and  C_29
REMARK                            x       y       z     vdW  Elec       q    Type
REMARK                         _______ _______ _______ _____ _____    ______ ____
ROOT
ATOM      1  C   UNL     1       0.819  10.879  21.076  0.00  0.00    +0.000 A 
ATOM      2  C   UNL     1       1.206   9.932  22.006  0.00  0.00    +0.000 A 
ATOM      3  N   UNL     1       1.520   8.654  21.716  0.00  0.00    +0.000 NA
ATOM      4  C   UNL     1       1.403   8.286  20.429  0.00  0.00    +0.000 A 
ATOM      5  N   UNL     1       0.978   9.108  19.461  0.00  0.00    +0.000 NA
ATOM      6  C   UNL     1       0.717  10.392  19.788  0.00  0.00    +0.000 A 
ENDROOT
BRANCH   1  11
ATOM      7  N   UNL     1      -3.364  13.515  22.845  0.00  0.00    +0.000 NA
ATOM      8  C   UNL     1      -2.279  14.426  22.400  0.00  0.00    +0.000 C 
ATOM      9  C   UNL     1      -0.845  13.936  22.720  0.00  0.00    +0.000 C 
ATOM     10  N   UNL     1      -0.627  12.548  22.280  0.00  0.00    +0.000 N 
ATOM     11  C   UNL     1       0.543  12.234  21.598  0.00  0.00    +0.000 C 
ATOM     12  O   UNL     1       1.371  13.097  21.307  0.00  0.00    +0.000 OA
ATOM     13  C   UNL     1      -1.704  11.625  22.635  0.00  0.00    +0.000 C 
ATOM     14  C   UNL     1      -3.091  12.178  22.292  0.00  0.00    +0.000 C 
BRANCH   7  16
ATOM     15  C   UNL     1      -4.454  12.474  24.859  0.00  0.00    +0.000 C 
ATOM     16  C   UNL     1      -3.501  13.533  24.311  0.00  0.00    +0.000 C 
ENDBRANCH   7  16
ENDBRANCH   1  11
BRANCH   4  17
ATOM     17  C   UNL     1       1.839   6.939  20.034  0.00  0.00    +0.000 A 
ATOM     18  C   UNL     1       1.611   5.825  20.860  0.00  0.00    +0.000 A 
ATOM     19  C   UNL     1       2.049   4.551  20.492  0.00  0.00    +0.000 A 
ATOM     20  C   UNL     1       2.712   4.350  19.284  0.00  0.00    +0.000 A 
ATOM     21  C   UNL     1       2.963   5.437  18.450  0.00  0.00    +0.000 A 
ATOM     22  C   UNL     1       2.527   6.713  18.823  0.00  0.00    +0.000 A 
BRANCH  20  23
ATOM     23  O   UNL     1       3.104   3.064  19.044  0.00  0.00    +0.000 OA
ATOM     24  C   UNL     1       2.779   2.554  17.756  0.00  0.00    +0.000 C 
ENDBRANCH  20  23
ENDBRANCH   4  17
BRANCH   6  25
ATOM     25  O   UNL     1       0.302  11.206  18.747  0.00  0.00    +0.000 OA
BRANCH  25  26
ATOM     26  C   UNL     1      -1.046  11.201  18.414  0.00  0.00    +0.000 A 
ATOM     27  C   UNL     1      -1.470  10.171  17.578  0.00  0.00    +0.000 A 
ATOM     28  C   UNL     1      -2.822  10.053  17.235  0.00  0.00    +0.000 A 
ATOM     29  C   UNL     1      -3.768  10.945  17.744  0.00  0.00    +0.000 A 
ATOM     30  C   UNL     1      -3.351  11.977  18.581  0.00  0.00    +0.000 A 
ATOM     31  C   UNL     1      -2.000  12.094  18.929  0.00  0.00    +0.000 A 
BRANCH  29  32
ATOM     32  O   UNL     1      -5.057  10.736  17.336  0.00  0.00    +0.000 OA
ATOM     33  C   UNL     1      -6.058  10.970  18.322  0.00  0.00    +0.000 C 
ENDBRANCH  29  32
ENDBRANCH  25  26
ENDBRANCH   6  25
TORSDOF 7
ENDMDL
MODEL 3
REMARK VINA RESULT:      -7.4      7.774     10.828
REMARK  Name = 
REMARK  10 active torsions:
REMARK  status: ('A' for Active; 'I' for Inactive)
REMARK    1  A    between atoms: C_1  and  C_2
REMARK    2  A    between atoms: C_2  and  N_3
REMARK    3  A    between atoms: C_7  and  C_9
REMARK    4  A    between atoms: C_12  and  C_13
REMARK    5  A    between atoms: C_16  and  O_17
REMARK    6  A    between atoms: O_17  and  C_18
REMARK    7  A    between atoms: C_22  and  O_23
REMARK    8  A    between atoms: O_23  and  C_24
REMARK    9  A    between atoms: C_27  and  O_28
REMARK   10  A    between atoms: O_28  and  C_29
REMARK                            x       y       z     vdW  Elec       q    Type
REMARK                         _______ _______ _______ _____ _____    ______ ____
ROOT
ATOM      1  C   UNL     1       6.965   6.048  18.052  0.00  0.00    +0.000 A 
ATOM      2  C   UNL     1       7.913   6.363  19.008  0.00  0.00    +0.000 A 
ATOM      3  N   UNL     1       8.522   7.559  19.120  0.00  0.00    +0.000 NA
ATOM      4  C   UNL     1       8.199   8.485  18.201  0.00  0.00    +0.000 A 
ATOM      5  N   UNL     1       7.340   8.262  17.198  0.00  0.00    +0.000 NA
ATOM      6  C   UNL     1       6.718   7.064  17.150  0.00  0.00    +0.000 A 
ENDROOT
BRANCH   1  11
ATOM      7  N   UNL     1       2.639   3.794  19.999  0.00  0.00    +0.000 NA
ATOM      8  C   UNL     1       3.738   2.815  19.801  0.00  0.00    +0.000 C 
ATOM      9  C   UNL     1       4.600   3.050  18.536  0.00  0.00    +0.000 C 
ATOM     10  N   UNL     1       5.068   4.442  18.441  0.00  0.00    +0.000 N 
ATOM     11  C   UNL     1       6.398   4.684  18.117  0.00  0.00    +0.000 C 
ATOM     12  O   UNL     1       7.203   3.765  17.964  0.00  0.00    +0.000 OA
ATOM     13  C   UNL     1       4.037   5.446  18.699  0.00  0.00    +0.000 C 
ATOM     14  C   UNL     1       3.224   5.145  19.962  0.00  0.00    +0.000 C 
BRANCH   7  16
ATOM     15  C   UNL     1       1.066   2.147  18.933  0.00  0.00    +0.000 C 
ATOM     16  C   UNL     1       1.562   3.588  19.018  0.00  0.00    +0.000 C 
ENDBRANCH   7  16
ENDBRANCH   1  11
BRANCH   4  17
ATOM     17  C   UNL     1       8.745   9.842  18.339  0.00  0.00    +0.000 A 
ATOM     18  C   UNL     1       9.728  10.141  19.297  0.00  0.00    +0.000 A 
ATOM     19  C   UNL     1      10.227  11.438  19.442  0.00  0.00    +0.000 A 
ATOM     20  C   UNL     1       9.770  12.468  18.624  0.00  0.00    +0.000 A 
ATOM     21  C   UNL     1       8.786  12.205  17.674  0.00  0.00    +0.000 A 
ATOM     22  C   UNL     1       8.285  10.907  17.535  0.00  0.00    +0.000 A 
BRANCH  20  23
ATOM     23  O   UNL     1      10.321  13.693  18.872  0.00  0.00    +0.000 OA
ATOM     24  C   UNL     1       9.402  14.776  18.945  0.00  0.00    +0.000 C 
ENDBRANCH  20  23
ENDBRANCH   4  17
BRANCH   6  25
ATOM     25  O   UNL     1       5.823   6.892  16.107  0.00  0.00    +0.000 OA
BRANCH  25  26
ATOM     26  C   UNL     1       6.092   5.898  15.175  0.00  0.00    +0.000 A 
ATOM     27  C   UNL     1       5.057   5.003  14.914  0.00  0.00    +0.000 A 
ATOM     28  C   UNL     1       5.218   4.003  13.948  0.00  0.00    +0.000 A 
ATOM     29  C   UNL     1       6.403   3.903  13.215  0.00  0.00    +0.000 A 
ATOM     30  C   UNL     1       7.441   4.794  13.472  0.00  0.00    +0.000 A 
ATOM     31  C   UNL     1       7.280   5.799  14.434  0.00  0.00    +0.000 A 
BRANCH  29  32
ATOM     32  O   UNL     1       6.449   2.884  12.303  0.00  0.00    +0.000 OA
ATOM     33  C   UNL     1       5.232   2.624  11.611  0.00  0.00    +0.000 C 
ENDBRANCH  29  32
ENDBRANCH  25  26
ENDBRANCH   6  25
TORSDOF 7
ENDMDL
MODEL 4
REMARK VINA RESULT:      -7.3      0.545      1.078
REMARK  Name = 
REMARK  10 active torsions:
REMARK  status: ('A' for Active; 'I' for Inactive)
REMARK    1  A    between atoms: C_1  and  C_2
REMARK    2  A    between atoms: C_2  and  N_3
REMARK    3  A    between atoms: C_7  and  C_9
REMARK    4  A    between atoms: C_12  and  C_13
REMARK    5  A    between atoms: C_16  and  O_17
REMARK    6  A    between atoms: O_17  and  C_18
REMARK    7  A    between atoms: C_22  and  O_23
REMARK    8  A    between atoms: O_23  and  C_24
REMARK    9  A    between atoms: C_27  and  O_28
REMARK   10  A    between atoms: O_28  and  C_29
REMARK                            x       y       z     vdW  Elec       q    Type
REMARK                         _______ _______ _______ _____ _____    ______ ____
ROOT
ATOM      1  C   UNL     1       0.765  11.010  21.040  0.00  0.00    +0.000 A 
ATOM      2  C   UNL     1       1.229  10.114  21.987  0.00  0.00    +0.000 A 
ATOM      3  N   UNL     1       1.539   8.827  21.740  0.00  0.00    +0.000 NA
ATOM      4  C   UNL     1       1.339   8.394  20.484  0.00  0.00    +0.000 A 
ATOM      5  N   UNL     1       0.838   9.161  19.508  0.00  0.00    +0.000 NA
ATOM      6  C   UNL     1       0.582  10.457  19.788  0.00  0.00    +0.000 A 
ENDROOT
BRANCH   1  11
ATOM      7  N   UNL     1      -3.340  13.706  22.900  0.00  0.00    +0.000 NA
ATOM      8  C   UNL     1      -2.284  14.600  22.357  0.00  0.00    +0.000 C 
ATOM      9  C   UNL     1      -0.833  14.132  22.625  0.00  0.00    +0.000 C 
ATOM     10  N   UNL     1      -0.628  12.726  22.239  0.00  0.00    +0.000 N 
ATOM     11  C   UNL     1       0.507  12.386  21.513  0.00  0.00    +0.000 C 
ATOM     12  O   UNL     1       1.314  13.238  21.139  0.00  0.00    +0.000 OA
ATOM     13  C   UNL     1      -1.680  11.816  22.691  0.00  0.00    +0.000 C 
ATOM     14  C   UNL     1      -3.086  12.346  22.395  0.00  0.00    +0.000 C 
BRANCH   7  16
ATOM     15  C   UNL     1      -3.445  15.219  24.906  0.00  0.00    +0.000 C 
ATOM     16  C   UNL     1      -3.401  13.792  24.368  0.00  0.00    +0.000 C 
ENDBRANCH   7  16
ENDBRANCH   1  11
BRANCH   4  17
ATOM     17  C   UNL     1       1.766   7.033  20.127  0.00  0.00    +0.000 A 
ATOM     18  C   UNL     1       1.447   5.930  20.937  0.00  0.00    +0.000 A 
ATOM     19  C   UNL     1       1.875   4.643  20.607  0.00  0.00    +0.000 A 
ATOM     20  C   UNL     1       2.620   4.417  19.452  0.00  0.00    +0.000 A 
ATOM     21  C   UNL     1       2.962   5.492  18.636  0.00  0.00    +0.000 A 
ATOM     22  C   UNL     1       2.536   6.781  18.971  0.00  0.00    +0.000 A 
BRANCH  20  23
ATOM     23  O   UNL     1       2.992   3.119  19.247  0.00  0.00    +0.000 OA
ATOM     24  C   UNL     1       1.936   2.221  18.929  0.00  0.00    +0.000 C 
ENDBRANCH  20  23
ENDBRANCH   4  17
BRANCH   6  25
ATOM     25  O   UNL     1       0.085  11.213  18.739  0.00  0.00    +0.000 OA
BRANCH  25  26
ATOM     26  C   UNL     1      -1.242  11.030  18.376  0.00  0.00    +0.000 A 
ATOM     27  C   UNL     1      -2.167  11.885  18.972  0.00  0.00    +0.000 A 
ATOM     28  C   UNL     1      -3.520  11.811  18.624  0.00  0.00    +0.000 A 
ATOM     29  C   UNL     1      -3.961  10.903  17.658  0.00  0.00    +0.000 A 
ATOM     30  C   UNL     1      -3.041  10.045  17.060  0.00  0.00    +0.000 A 
ATOM     31  C   UNL     1      -1.686  10.121  17.403  0.00  0.00    +0.000 A 
BRANCH  29  32
ATOM     32  O   UNL     1      -5.305  10.916  17.404  0.00  0.00    +0.000 OA
ATOM     33  C   UNL     1      -6.147  10.967  18.552  0.00  0.00    +0.000 C 
ENDBRANCH  29  32
ENDBRANCH  25  26
ENDBRANCH   6  25
TORSDOF 7
ENDMDL
MODEL 5
REMARK VINA RESULT:      -7.3      1.996      3.158
REMARK  Name = 
REMARK  10 active torsions:
REMARK  status: ('A' for Active; 'I' for Inactive)
REMARK    1  A    between atoms: C_1  and  C_2
REMARK    2  A    between atoms: C_2  and  N_3
REMARK    3  A    between atoms: C_7  and  C_9
REMARK    4  A    between atoms: C_12  and  C_13
REMARK    5  A    between atoms: C_16  and  O_17
REMARK    6  A    between atoms: O_17  and  C_18
REMARK    7  A    between atoms: C_22  and  O_23
REMARK    8  A    between atoms: O_23  and  C_24
REMARK    9  A    between atoms: C_27  and  O_28
REMARK   10  A    between atoms: O_28  and  C_29
REMARK                            x       y       z     vdW  Elec       q    Type
REMARK                         _______ _______ _______ _____ _____    ______ ____
ROOT
ATOM      1  C   UNL     1       0.678  10.658  20.893  0.00  0.00    +0.000 A 
ATOM      2  C   UNL     1       1.150   9.758  21.831  0.00  0.00    +0.000 A 
ATOM      3  N   UNL     1       1.589   8.516  21.551  0.00  0.00    +0.000 NA
ATOM      4  C   UNL     1       1.518   8.132  20.265  0.00  0.00    +0.000 A 
ATOM      5  N   UNL     1       1.021   8.902  19.289  0.00  0.00    +0.000 NA
ATOM      6  C   UNL     1       0.633  10.157  19.607  0.00  0.00    +0.000 A 
ENDROOT
BRANCH   1  11
ATOM      7  N   UNL     1       2.782  15.460  21.205  0.00  0.00    +0.000 NA
ATOM      8  C   UNL     1       1.681  15.268  22.184  0.00  0.00    +0.000 C 
ATOM      9  C   UNL     1       0.490  14.424  21.669  0.00  0.00    +0.000 C 
ATOM     10  N   UNL     1       0.934  13.154  21.070  0.00  0.00    +0.000 N 
ATOM     11  C   UNL     1       0.266  11.982  21.405  0.00  0.00    +0.000 C 
ATOM     12  O   UNL     1      -0.648  11.974  22.230  0.00  0.00    +0.000 OA
ATOM     13  C   UNL     1       2.064  13.282  20.151  0.00  0.00    +0.000 C 
ATOM     14  C   UNL     1       3.200  14.132  20.727  0.00  0.00    +0.000 C 
BRANCH   7  16
ATOM     15  C   UNL     1       3.442  16.583  19.054  0.00  0.00    +0.000 C 
ATOM     16  C   UNL     1       2.376  16.377  20.127  0.00  0.00    +0.000 C 
ENDBRANCH   7  16
ENDBRANCH   1  11
BRANCH   4  17
ATOM     17  C   UNL     1       2.086   6.832  19.881  0.00  0.00    +0.000 A 
ATOM     18  C   UNL     1       2.884   6.692  18.733  0.00  0.00    +0.000 A 
ATOM     19  C   UNL     1       3.401   5.450  18.359  0.00  0.00    +0.000 A 
ATOM     20  C   UNL     1       3.151   4.317  19.128  0.00  0.00    +0.000 A 
ATOM     21  C   UNL     1       2.354   4.422  20.265  0.00  0.00    +0.000 A 
ATOM     22  C   UNL     1       1.833   5.665  20.635  0.00  0.00    +0.000 A 
BRANCH  20  23
ATOM     23  O   UNL     1       3.699   3.160  18.651  0.00  0.00    +0.000 OA
ATOM     24  C   UNL     1       2.783   2.246  18.060  0.00  0.00    +0.000 C 
ENDBRANCH  20  23
ENDBRANCH   4  17
BRANCH   6  25
ATOM     25  O   UNL     1       0.148  10.920  18.559  0.00  0.00    +0.000 OA
BRANCH  25  26
ATOM     26  C   UNL     1      -1.204  10.826  18.255  0.00  0.00    +0.000 A 
ATOM     27  C   UNL     1      -2.039  11.753  18.876  0.00  0.00    +0.000 A 
ATOM     28  C   UNL     1      -3.409  11.770  18.587  0.00  0.00    +0.000 A 
ATOM     29  C   UNL     1      -3.953  10.881  17.657  0.00  0.00    +0.000 A 
ATOM     30  C   UNL     1      -3.123   9.952  17.035  0.00  0.00    +0.000 A 
ATOM     31  C   UNL     1      -1.753   9.937  17.318  0.00  0.00    +0.000 A 
BRANCH  29  32
ATOM     32  O   UNL     1      -5.303  10.986  17.460  0.00  0.00    +0.000 OA
ATOM     33  C   UNL     1      -5.784  12.299  17.186  0.00  0.00    +0.000 C 
ENDBRANCH  29  32
ENDBRANCH  25  26
ENDBRANCH   6  25
TORSDOF 7
ENDMDL
MODEL 6
REMARK VINA RESULT:      -7.1      5.042      9.318
REMARK  Name = 
REMARK  10 active torsions:
REMARK  status: ('A' for Active; 'I' for Inactive)
REMARK    1  A    between atoms: C_1  and  C_2
REMARK    2  A    between atoms: C_2  and  N_3
REMARK    3  A    between atoms: C_7  and  C_9
REMARK    4  A    between atoms: C_12  and  C_13
REMARK    5  A    between atoms: C_16  and  O_17
REMARK    6  A    between atoms: O_17  and  C_18
REMARK    7  A    between atoms: C_22  and  O_23
REMARK    8  A    between atoms: O_23  and  C_24
REMARK    9  A    between atoms: C_27  and  O_28
REMARK   10  A    between atoms: O_28  and  C_29
REMARK                            x       y       z     vdW  Elec       q    Type
REMARK                         _______ _______ _______ _____ _____    ______ ____
ROOT
ATOM      1  C   UNL     1       5.740   5.669  17.042  0.00  0.00    +0.000 A 
ATOM      2  C   UNL     1       7.100   5.604  17.285  0.00  0.00    +0.000 A 
ATOM      3  N   UNL     1       7.878   6.662  17.583  0.00  0.00    +0.000 NA
ATOM      4  C   UNL     1       7.275   7.863  17.601  0.00  0.00    +0.000 A 
ATOM      5  N   UNL     1       5.979   8.044  17.321  0.00  0.00    +0.000 NA
ATOM      6  C   UNL     1       5.225   6.950  17.071  0.00  0.00    +0.000 A 
ENDROOT
BRANCH   1  11
ATOM      7  N   UNL     1       3.214   1.982  19.800  0.00  0.00    +0.000 NA
ATOM      8  C   UNL     1       3.710   1.465  18.499  0.00  0.00    +0.000 C 
ATOM      9  C   UNL     1       3.622   2.467  17.323  0.00  0.00    +0.000 C 
ATOM     10  N   UNL     1       4.212   3.771  17.666  0.00  0.00    +0.000 N 
ATOM     11  C   UNL     1       5.064   4.386  16.757  0.00  0.00    +0.000 C 
ATOM     12  O   UNL     1       5.380   3.841  15.698  0.00  0.00    +0.000 OA
ATOM     13  C   UNL     1       3.808   4.292  18.972  0.00  0.00    +0.000 C 
ATOM     14  C   UNL     1       3.918   3.244  20.084  0.00  0.00    +0.000 C 
BRANCH   7  16
ATOM     15  C   UNL     1       1.202   3.062  20.856  0.00  0.00    +0.000 C 
ATOM     16  C   UNL     1       1.748   2.111  19.794  0.00  0.00    +0.000 C 
ENDBRANCH   7  16
ENDBRANCH   1  11
BRANCH   4  17
ATOM     17  C   UNL     1       8.048   9.037  18.031  0.00  0.00    +0.000 A 
ATOM     18  C   UNL     1       8.901   8.985  19.146  0.00  0.00    +0.000 A 
ATOM     19  C   UNL     1       9.613  10.110  19.565  0.00  0.00    +0.000 A 
ATOM     20  C   UNL     1       9.508  11.314  18.874  0.00  0.00    +0.000 A 
ATOM     21  C   UNL     1       8.661  11.400  17.772  0.00  0.00    +0.000 A 
ATOM     22  C   UNL     1       7.944  10.273  17.357  0.00  0.00    +0.000 A 
BRANCH  20  23
ATOM     23  O   UNL     1      10.242  12.345  19.389  0.00  0.00    +0.000 OA
ATOM     24  C   UNL     1      11.639  12.291  19.131  0.00  0.00    +0.000 C 
ENDBRANCH  20  23
ENDBRANCH   4  17
BRANCH   6  25
ATOM     25  O   UNL     1       3.887   7.189  16.808  0.00  0.00    +0.000 OA
BRANCH  25  26
ATOM     26  C   UNL     1       3.102   7.696  17.836  0.00  0.00    +0.000 A 
ATOM     27  C   UNL     1       2.428   8.885  17.565  0.00  0.00    +0.000 A 
ATOM     28  C   UNL     1       1.570   9.441  18.520  0.00  0.00    +0.000 A 
ATOM     29  C   UNL     1       1.354   8.803  19.744  0.00  0.00    +0.000 A 
ATOM     30  C   UNL     1       2.025   7.614  20.020  0.00  0.00    +0.000 A 
ATOM     31  C   UNL     1       2.880   7.053  19.064  0.00  0.00    +0.000 A 
BRANCH  29  32
ATOM     32  O   UNL     1       0.500   9.440  20.601  0.00  0.00    +0.000 OA
ATOM     33  C   UNL     1       0.630   9.086  21.975  0.00  0.00    +0.000 C 
ENDBRANCH  29  32
ENDBRANCH  25  26
ENDBRANCH   6  25
TORSDOF 7
ENDMDL
MODEL 7
REMARK VINA RESULT:      -7.1      1.940      3.199
REMARK  Name = 
REMARK  10 active torsions:
REMARK  status: ('A' for Active; 'I' for Inactive)
REMARK    1  A    between atoms: C_1  and  C_2
REMARK    2  A    between atoms: C_2  and  N_3
REMARK    3  A    between atoms: C_7  and  C_9
REMARK    4  A    between atoms: C_12  and  C_13
REMARK    5  A    between atoms: C_16  and  O_17
REMARK    6  A    between atoms: O_17  and  C_18
REMARK    7  A    between atoms: C_22  and  O_23
REMARK    8  A    between atoms: O_23  and  C_24
REMARK    9  A    between atoms: C_27  and  O_28
REMARK   10  A    between atoms: O_28  and  C_29
REMARK                            x       y       z     vdW  Elec       q    Type
REMARK                         _______ _______ _______ _____ _____    ______ ____
ROOT
ATOM      1  C   UNL     1       0.643  10.627  20.889  0.00  0.00    +0.000 A 
ATOM      2  C   UNL     1       1.066   9.714  21.838  0.00  0.00    +0.000 A 
ATOM      3  N   UNL     1       1.508   8.472  21.565  0.00  0.00    +0.000 NA
ATOM      4  C   UNL     1       1.492   8.101  20.274  0.00  0.00    +0.000 A 
ATOM      5  N   UNL     1       1.045   8.885  19.284  0.00  0.00    +0.000 NA
ATOM      6  C   UNL     1       0.653  10.139  19.597  0.00  0.00    +0.000 A 
ENDROOT
BRANCH   1  11
ATOM      7  N   UNL     1       2.676  15.464  21.126  0.00  0.00    +0.000 NA
ATOM      8  C   UNL     1       1.594  15.263  22.124  0.00  0.00    +0.000 C 
ATOM      9  C   UNL     1       0.409  14.396  21.634  0.00  0.00    +0.000 C 
ATOM     10  N   UNL     1       0.863  13.128  21.040  0.00  0.00    +0.000 N 
ATOM     11  C   UNL     1       0.219  11.949  21.396  0.00  0.00    +0.000 C 
ATOM     12  O   UNL     1      -0.683  11.934  22.234  0.00  0.00    +0.000 OA
ATOM     13  C   UNL     1       1.977  13.265  20.102  0.00  0.00    +0.000 C 
ATOM     14  C   UNL     1       3.108  14.138  20.654  0.00  0.00    +0.000 C 
BRANCH   7  16
ATOM     15  C   UNL     1       1.732  17.718  20.533  0.00  0.00    +0.000 C 
ATOM     16  C   UNL     1       2.240  16.364  20.046  0.00  0.00    +0.000 C 
ENDBRANCH   7  16
ENDBRANCH   1  11
BRANCH   4  17
ATOM     17  C   UNL     1       2.067   6.800  19.903  0.00  0.00    +0.000 A 
ATOM     18  C   UNL     1       1.834   5.649  20.674  0.00  0.00    +0.000 A 
ATOM     19  C   UNL     1       2.403   4.421  20.332  0.00  0.00    +0.000 A 
ATOM     20  C   UNL     1       3.208   4.303  19.202  0.00  0.00    +0.000 A 
ATOM     21  C   UNL     1       3.468   5.429  18.424  0.00  0.00    +0.000 A 
ATOM     22  C   UNL     1       2.901   6.659  18.772  0.00  0.00    +0.000 A 
BRANCH  20  23
ATOM     23  O   UNL     1       3.719   3.055  18.981  0.00  0.00    +0.000 OA
ATOM     24  C   UNL     1       2.762   2.047  18.675  0.00  0.00    +0.000 C 
ENDBRANCH  20  23
ENDBRANCH   4  17
BRANCH   6  25
ATOM     25  O   UNL     1       0.221  10.917  18.536  0.00  0.00    +0.000 OA
BRANCH  25  26
ATOM     26  C   UNL     1      -1.145  10.989  18.295  0.00  0.00    +0.000 A 
ATOM     27  C   UNL     1      -1.676  10.006  17.462  0.00  0.00    +0.000 A 
ATOM     28  C   UNL     1      -3.051   9.966  17.208  0.00  0.00    +0.000 A 
ATOM     29  C   UNL     1      -3.914  10.888  17.804  0.00  0.00    +0.000 A 
ATOM     30  C   UNL     1      -3.390  11.873  18.637  0.00  0.00    +0.000 A 
ATOM     31  C   UNL     1      -2.015  11.912  18.897  0.00  0.00    +0.000 A 
BRANCH  29  32
ATOM     32  O   UNL     1      -5.237  10.756  17.478  0.00  0.00    +0.000 OA
ATOM     33  C   UNL     1      -6.147  10.819  18.572  0.00  0.00    +0.000 C 
ENDBRANCH  29  32
ENDBRANCH  25  26
ENDBRANCH   6  25
TORSDOF 7
ENDMDL
MODEL 8
REMARK VINA RESULT:      -6.9      2.200      3.202
REMARK  Name = 
REMARK  10 active torsions:
REMARK  status: ('A' for Active; 'I' for Inactive)
REMARK    1  A    between atoms: C_1  and  C_2
REMARK    2  A    between atoms: C_2  and  N_3
REMARK    3  A    between atoms: C_7  and  C_9
REMARK    4  A    between atoms: C_12  and  C_13
REMARK    5  A    between atoms: C_16  and  O_17
REMARK    6  A    between atoms: O_17  and  C_18
REMARK    7  A    between atoms: C_22  and  O_23
REMARK    8  A    between atoms: O_23  and  C_24
REMARK    9  A    between atoms: C_27  and  O_28
REMARK   10  A    between atoms: O_28  and  C_29
REMARK                            x       y       z     vdW  Elec       q    Type
REMARK                         _______ _______ _______ _____ _____    ______ ____
ROOT
ATOM      1  C   UNL     1       0.693  10.111  20.143  0.00  0.00    +0.000 A 
ATOM      2  C   UNL     1       1.320   9.115  20.870  0.00  0.00    +0.000 A 
ATOM      3  N   UNL     1       1.945   8.050  20.332  0.00  0.00    +0.000 NA
ATOM      4  C   UNL     1       1.909   7.948  18.993  0.00  0.00    +0.000 A 
ATOM      5  N   UNL     1       1.277   8.823  18.201  0.00  0.00    +0.000 NA
ATOM      6  C   UNL     1       0.702   9.901  18.779  0.00  0.00    +0.000 A 
ENDROOT
BRANCH   1  11
ATOM      7  N   UNL     1       1.766  15.161  21.109  0.00  0.00    +0.000 NA
ATOM      8  C   UNL     1       0.876  14.572  22.142  0.00  0.00    +0.000 C 
ATOM      9  C   UNL     1      -0.171  13.566  21.604  0.00  0.00    +0.000 C 
ATOM     10  N   UNL     1       0.442  12.541  20.744  0.00  0.00    +0.000 N 
ATOM     11  C   UNL     1       0.088  11.210  20.926  0.00  0.00    +0.000 C 
ATOM     12  O   UNL     1      -0.682  10.864  21.822  0.00  0.00    +0.000 OA
ATOM     13  C   UNL     1       1.383  13.066  19.754  0.00  0.00    +0.000 C 
ATOM     14  C   UNL     1       2.384  14.055  20.358  0.00  0.00    +0.000 C 
BRANCH   7  16
ATOM     15  C   UNL     1       1.920  16.904  19.301  0.00  0.00    +0.000 C 
ATOM     16  C   UNL     1       1.033  16.115  20.260  0.00  0.00    +0.000 C 
ENDBRANCH   7  16
ENDBRANCH   1  11
BRANCH   4  17
ATOM     17  C   UNL     1       2.668   6.870  18.344  0.00  0.00    +0.000 A 
ATOM     18  C   UNL     1       3.829   7.138  17.599  0.00  0.00    +0.000 A 
ATOM     19  C   UNL     1       4.533   6.113  16.963  0.00  0.00    +0.000 A 
ATOM     20  C   UNL     1       4.108   4.791  17.066  0.00  0.00    +0.000 A 
ATOM     21  C   UNL     1       2.954   4.496  17.786  0.00  0.00    +0.000 A 
ATOM     22  C   UNL     1       2.247   5.524  18.418  0.00  0.00    +0.000 A 
BRANCH  20  23
ATOM     23  O   UNL     1       4.871   3.882  16.388  0.00  0.00    +0.000 OA
ATOM     24  C   UNL     1       5.719   4.423  15.383  0.00  0.00    +0.000 C 
ENDBRANCH  20  23
ENDBRANCH   4  17
BRANCH   6  25
ATOM     25  O   UNL     1       0.081  10.787  17.915  0.00  0.00    +0.000 OA
BRANCH  25  26
ATOM     26  C   UNL     1      -1.302  10.727  17.803  0.00  0.00    +0.000 A 
ATOM     27  C   UNL     1      -2.013  11.768  18.396  0.00  0.00    +0.000 A 
ATOM     28  C   UNL     1      -3.407  11.821  18.287  0.00  0.00    +0.000 A 
ATOM     29  C   UNL     1      -4.103  10.851  17.562  0.00  0.00    +0.000 A 
ATOM     30  C   UNL     1      -3.398   9.808  16.967  0.00  0.00    +0.000 A 
ATOM     31  C   UNL     1      -2.003   9.756  17.071  0.00  0.00    +0.000 A 
BRANCH  29  32
ATOM     32  O   UNL     1      -5.462  11.001  17.527  0.00  0.00    +0.000 OA
ATOM     33  C   UNL     1      -5.928  12.320  17.258  0.00  0.00    +0.000 C 
ENDBRANCH  29  32
ENDBRANCH  25  26
ENDBRANCH   6  25
TORSDOF 7
ENDMDL
MODEL 9
REMARK VINA RESULT:      -6.8      2.926      4.038
REMARK  Name = 
REMARK  10 active torsions:
REMARK  status: ('A' for Active; 'I' for Inactive)
REMARK    1  A    between atoms: C_1  and  C_2
REMARK    2  A    between atoms: C_2  and  N_3
REMARK    3  A    between atoms: C_7  and  C_9
REMARK    4  A    between atoms: C_12  and  C_13
REMARK    5  A    between atoms: C_16  and  O_17
REMARK    6  A    between atoms: O_17  and  C_18
REMARK    7  A    between atoms: C_22  and  O_23
REMARK    8  A    between atoms: O_23  and  C_24
REMARK    9  A    between atoms: C_27  and  O_28
REMARK   10  A    between atoms: O_28  and  C_29
REMARK                            x       y       z     vdW  Elec       q    Type
REMARK                         _______ _______ _______ _____ _____    ______ ____
ROOT
ATOM      1  C   UNL     1      -0.641  12.540  20.414  0.00  0.00    +0.000 A 
ATOM      2  C   UNL     1       0.667  12.304  20.796  0.00  0.00    +0.000 A 
ATOM      3  N   UNL     1       1.354  11.177  20.529  0.00  0.00    +0.000 NA
ATOM      4  C   UNL     1       0.687  10.210  19.877  0.00  0.00    +0.000 A 
ATOM      5  N   UNL     1      -0.598  10.312  19.516  0.00  0.00    +0.000 NA
ATOM      6  C   UNL     1      -1.236  11.477  19.764  0.00  0.00    +0.000 A 
ENDROOT
BRANCH   1  11
ATOM      7  N   UNL     1       0.177  17.558  19.101  0.00  0.00    +0.000 NA
ATOM      8  C   UNL     1      -0.502  17.429  20.416  0.00  0.00    +0.000 C 
ATOM      9  C   UNL     1      -1.538  16.282  20.504  0.00  0.00    +0.000 C 
ATOM     10  N   UNL     1      -0.984  15.002  20.033  0.00  0.00    +0.000 N 
ATOM     11  C   UNL     1      -1.205  13.855  20.785  0.00  0.00    +0.000 C 
ATOM     12  O   UNL     1      -1.804  13.893  21.861  0.00  0.00    +0.000 OA
ATOM     13  C   UNL     1      -0.244  15.091  18.775  0.00  0.00    +0.000 C 
ATOM     14  C   UNL     1       0.758  16.249  18.760  0.00  0.00    +0.000 C 
BRANCH   7  16
ATOM     15  C   UNL     1      -0.086  18.357  16.731  0.00  0.00    +0.000 C 
ATOM     16  C   UNL     1      -0.745  18.081  18.080  0.00  0.00    +0.000 C 
ENDBRANCH   7  16
ENDBRANCH   1  11
BRANCH   4  17
ATOM     17  C   UNL     1       1.417   9.004  19.458  0.00  0.00    +0.000 A 
ATOM     18  C   UNL     1       1.622   7.930  20.339  0.00  0.00    +0.000 A 
ATOM     19  C   UNL     1       2.338   6.797  19.945  0.00  0.00    +0.000 A 
ATOM     20  C   UNL     1       2.855   6.698  18.656  0.00  0.00    +0.000 A 
ATOM     21  C   UNL     1       2.678   7.753  17.764  0.00  0.00    +0.000 A 
ATOM     22  C   UNL     1       1.966   8.888  18.163  0.00  0.00    +0.000 A 
BRANCH  20  23
ATOM     23  O   UNL     1       3.547   5.550  18.396  0.00  0.00    +0.000 OA
ATOM     24  C   UNL     1       4.032   4.854  19.538  0.00  0.00    +0.000 C 
ENDBRANCH  20  23
ENDBRANCH   4  17
BRANCH   6  25
ATOM     25  O   UNL     1      -2.556  11.539  19.352  0.00  0.00    +0.000 OA
BRANCH  25  26
ATOM     26  C   UNL     1      -2.863  11.082  18.077  0.00  0.00    +0.000 A 
ATOM     27  C   UNL     1      -4.063  11.536  17.533  0.00  0.00    +0.000 A 
ATOM     28  C   UNL     1      -4.428  11.173  16.231  0.00  0.00    +0.000 A 
ATOM     29  C   UNL     1      -3.587  10.377  15.450  0.00  0.00    +0.000 A 
ATOM     30  C   UNL     1      -2.387   9.921  15.988  0.00  0.00    +0.000 A 
ATOM     31  C   UNL     1      -2.017  10.287  17.288  0.00  0.00    +0.000 A 
BRANCH  29  32
ATOM     32  O   UNL     1      -4.049  10.082  14.197  0.00  0.00    +0.000 OA
ATOM     33  C   UNL     1      -3.053   9.723  13.244  0.00  0.00    +0.000 C 
ENDBRANCH  29  32
ENDBRANCH  25  26
ENDBRANCH   6  25
TORSDOF 7
ENDMDL
