MODEL 1
REMARK VINA RESULT:      -9.2      0.000      0.000
REMARK  Name = 
REMARK  4 active torsions:
REMARK  status: ('A' for Active; 'I' for Inactive)
REMARK    1  A    between atoms: C_8  and  N_9
REMARK    2  A    between atoms: N_9  and  C_10
REMARK    3  A    between atoms: C_13  and  S_14
REMARK    4  A    between atoms: S_14  and  N_17
REMARK                            x       y       z     vdW  Elec       q    Type
REMARK                         _______ _______ _______ _____ _____    ______ ____
ROOT
ATOM      1  C   UNL     1       2.225   8.025  18.774  0.00  0.00    +0.000 A 
ATOM      2  C   UNL     1       1.926   9.174  18.029  0.00  0.00    +0.000 A 
ATOM      3  C   UNL     1       1.192  10.234  18.586  0.00  0.00    +0.000 A 
ATOM      4  C   UNL     1       0.765  10.163  19.912  0.00  0.00    +0.000 A 
ATOM      5  C   UNL     1       1.094   9.051  20.689  0.00  0.00    +0.000 A 
ATOM      6  C   UNL     1       1.809   7.990  20.116  0.00  0.00    +0.000 A 
ENDROOT
BRANCH   4   7
ATOM      7  S   UNL     1      -0.017  11.566  20.685  0.00  0.00    +0.000 S 
ATOM      8  O   UNL     1      -1.062  11.062  21.546  0.00  0.00    +0.000 OA
ATOM      9  O   UNL     1       1.040  12.402  21.215  0.00  0.00    +0.000 OA
BRANCH   7  10
ATOM     10  N   UNL     1      -0.663  12.444  19.393  0.00  0.00    +0.000 N 
ATOM     11  C   UNL     1      -1.979  12.106  19.004  0.00  0.00    +0.000 A 
ATOM     12  C   UNL     1      -2.235  11.380  17.856  0.00  0.00    +0.000 A 
ATOM     13  N   UNL     1      -3.486  11.076  17.452  0.00  0.00    +0.000 NA
ATOM     14  C   UNL     1      -4.483  11.479  18.263  0.00  0.00    +0.000 A 
ATOM     15  C   UNL     1      -5.795  11.152  17.945  0.00  0.00    +0.000 A 
ATOM     16  C   UNL     1      -6.849  11.448  18.811  0.00  0.00    +0.000 A 
ATOM     17  C   UNL     1      -6.586  12.107  20.004  0.00  0.00    +0.000 A 
ATOM     18  C   UNL     1      -5.280  12.500  20.304  0.00  0.00    +0.000 A 
ATOM     19  C   UNL     1      -4.218  12.201  19.457  0.00  0.00    +0.000 A 
ATOM     20  N   UNL     1      -2.959  12.564  19.795  0.00  0.00    +0.000 NA
ATOM     21  H   UNL     1      -0.558  13.436  19.597  0.00  0.00    +0.000 HD
ENDBRANCH   7  10
ENDBRANCH   4   7
BRANCH   1  22
ATOM     22  N   UNL     1       2.986   6.951  18.270  0.00  0.00    +0.000 N 
ATOM     23  H   UNL     1       3.954   7.170  18.060  0.00  0.00    +0.000 HD
BRANCH  22  31
ATOM     24  O   UNL     1       2.221   3.152  16.854  0.00  0.00    +0.000 OA
ATOM     25  C   UNL     1       1.917   3.349  18.032  0.00  0.00    +0.000 C 
ATOM     26  C   UNL     1       1.111   2.314  18.790  0.00  0.00    +0.000 C 
ATOM     27  C   UNL     1       1.368   2.326  20.287  0.00  0.00    +0.000 C 
ATOM     28  C   UNL     1       1.216   3.734  20.842  0.00  0.00    +0.000 C 
ATOM     29  C   UNL     1       2.245   4.675  20.214  0.00  0.00    +0.000 C 
ATOM     30  C   UNL     1       2.250   4.647  18.712  0.00  0.00    +0.000 C 
ATOM     31  C   UNL     1       2.555   5.693  17.916  0.00  0.00    +0.000 C 
ENDBRANCH  22  31
ENDBRANCH   1  22
TORSDOF 4
ENDMDL
MODEL 2
REMARK VINA RESULT:      -8.9      7.492     10.616
REMARK  Name = 
REMARK  4 active torsions:
REMARK  status: ('A' for Active; 'I' for Inactive)
REMARK    1  A    between atoms: C_8  and  N_9
REMARK    2  A    between atoms: N_9  and  C_10
REMARK    3  A    between atoms: C_13  and  S_14
REMARK    4  A    between atoms: S_14  and  N_17
REMARK                            x       y       z     vdW  Elec       q    Type
REMARK                         _______ _______ _______ _____ _____    ______ ____
ROOT
ATOM      1  C   UNL     1       8.556   8.556  18.680  0.00  0.00    +0.000 A 
ATOM      2  C   UNL     1       8.571   7.318  19.337  0.00  0.00    +0.000 A 
ATOM      3  C   UNL     1       7.888   6.207  18.814  0.00  0.00    +0.000 A 
ATOM      4  C   UNL     1       7.197   6.319  17.608  0.00  0.00    +0.000 A 
ATOM      5  C   UNL     1       7.209   7.528  16.910  0.00  0.00    +0.000 A 
ATOM      6  C   UNL     1       7.876   8.636  17.452  0.00  0.00    +0.000 A 
ENDROOT
BRANCH   4   7
ATOM      7  S   UNL     1       6.471   4.879  16.847  0.00  0.00    +0.000 S 
ATOM      8  O   UNL     1       7.182   4.636  15.612  0.00  0.00    +0.000 OA
ATOM      9  O   UNL     1       6.389   3.856  17.867  0.00  0.00    +0.000 OA
BRANCH   7  10
ATOM     10  N   UNL     1       4.871   5.331  16.549  0.00  0.00    +0.000 N 
ATOM     11  C   UNL     1       3.879   4.640  17.283  0.00  0.00    +0.000 A 
ATOM     12  C   UNL     1       3.084   3.672  16.700  0.00  0.00    +0.000 A 
ATOM     13  N   UNL     1       2.111   3.026  17.377  0.00  0.00    +0.000 NA
ATOM     14  C   UNL     1       1.989   3.342  18.680  0.00  0.00    +0.000 A 
ATOM     15  C   UNL     1       1.048   2.677  19.457  0.00  0.00    +0.000 A 
ATOM     16  C   UNL     1       0.962   2.888  20.835  0.00  0.00    +0.000 A 
ATOM     17  C   UNL     1       1.815   3.803  21.438  0.00  0.00    +0.000 A 
ATOM     18  C   UNL     1       2.719   4.527  20.657  0.00  0.00    +0.000 A 
ATOM     19  C   UNL     1       2.825   4.318  19.286  0.00  0.00    +0.000 A 
ATOM     20  N   UNL     1       3.736   5.009  18.563  0.00  0.00    +0.000 NA
ATOM     21  H   UNL     1       4.799   6.341  16.650  0.00  0.00    +0.000 HD
ENDBRANCH   7  10
ENDBRANCH   4   7
BRANCH   1  22
ATOM     22  N   UNL     1       9.251   9.690  19.146  0.00  0.00    +0.000 N 
ATOM     23  H   UNL     1       9.808   9.540  19.980  0.00  0.00    +0.000 HD
BRANCH  22  31
ATOM     24  O   UNL     1       8.430  13.576  18.031  0.00  0.00    +0.000 OA
ATOM     25  C   UNL     1       9.587  13.365  18.399  0.00  0.00    +0.000 C 
ATOM     26  C   UNL     1      10.648  14.430  18.215  0.00  0.00    +0.000 C 
ATOM     27  C   UNL     1      11.766  14.353  19.240  0.00  0.00    +0.000 C 
ATOM     28  C   UNL     1      12.332  12.942  19.306  0.00  0.00    +0.000 C 
ATOM     29  C   UNL     1      11.258  11.951  19.754  0.00  0.00    +0.000 C 
ATOM     30  C   UNL     1       9.994  12.025  18.947  0.00  0.00    +0.000 C 
ATOM     31  C   UNL     1       9.172  10.986  18.690  0.00  0.00    +0.000 C 
ENDBRANCH  22  31
ENDBRANCH   1  22
TORSDOF 4
ENDMDL
MODEL 3
REMARK VINA RESULT:      -8.9      3.420      4.541
REMARK  Name = 
REMARK  4 active torsions:
REMARK  status: ('A' for Active; 'I' for Inactive)
REMARK    1  A    between atoms: C_8  and  N_9
REMARK    2  A    between atoms: N_9  and  C_10
REMARK    3  A    between atoms: C_13  and  S_14
REMARK    4  A    between atoms: S_14  and  N_17
REMARK                            x       y       z     vdW  Elec       q    Type
REMARK                         _______ _______ _______ _____ _____    ______ ____
ROOT
ATOM      1  C   UNL     1       2.301   8.086  18.760  0.00  0.00    +0.000 A 
ATOM      2  C   UNL     1       1.700   8.214  20.020  0.00  0.00    +0.000 A 
ATOM      3  C   UNL     1       0.930   9.342  20.350  0.00  0.00    +0.000 A 
ATOM      4  C   UNL     1       0.735  10.351  19.407  0.00  0.00    +0.000 A 
ATOM      5  C   UNL     1       1.282  10.223  18.128  0.00  0.00    +0.000 A 
ATOM      6  C   UNL     1       2.066   9.102  17.818  0.00  0.00    +0.000 A 
ENDROOT
BRANCH   4   7
ATOM      7  S   UNL     1      -0.375  11.703  19.748  0.00  0.00    +0.000 S 
ATOM      8  O   UNL     1      -0.838  12.216  18.478  0.00  0.00    +0.000 OA
ATOM      9  O   UNL     1      -1.315  11.239  20.746  0.00  0.00    +0.000 OA
BRANCH   7  10
ATOM     10  N   UNL     1       0.587  12.838  20.548  0.00  0.00    +0.000 N 
ATOM     11  C   UNL     1       1.015  13.947  19.782  0.00  0.00    +0.000 A 
ATOM     12  C   UNL     1       2.314  14.058  19.325  0.00  0.00    +0.000 A 
ATOM     13  N   UNL     1       2.748  15.124  18.619  0.00  0.00    +0.000 NA
ATOM     14  C   UNL     1       1.823  16.062  18.339  0.00  0.00    +0.000 A 
ATOM     15  C   UNL     1       2.179  17.161  17.566  0.00  0.00    +0.000 A 
ATOM     16  C   UNL     1       1.231  18.099  17.155  0.00  0.00    +0.000 A 
ATOM     17  C   UNL     1      -0.092  17.947  17.546  0.00  0.00    +0.000 A 
ATOM     18  C   UNL     1      -0.451  16.884  18.378  0.00  0.00    +0.000 A 
ATOM     19  C   UNL     1       0.481  15.934  18.786  0.00  0.00    +0.000 A 
ATOM     20  N   UNL     1       0.094  14.895  19.561  0.00  0.00    +0.000 NA
ATOM     21  H   UNL     1       0.111  13.116  21.404  0.00  0.00    +0.000 HD
ENDBRANCH   7  10
ENDBRANCH   4   7
BRANCH   1  22
ATOM     22  N   UNL     1       3.053   6.959  18.372  0.00  0.00    +0.000 N 
ATOM     23  H   UNL     1       4.049   7.121  18.270  0.00  0.00    +0.000 HD
BRANCH  22  31
ATOM     24  O   UNL     1       2.208   3.198  16.901  0.00  0.00    +0.000 OA
ATOM     25  C   UNL     1       1.912   3.383  18.083  0.00  0.00    +0.000 C 
ATOM     26  C   UNL     1       1.088   2.353  18.828  0.00  0.00    +0.000 C 
ATOM     27  C   UNL     1       1.349   2.337  20.324  0.00  0.00    +0.000 C 
ATOM     28  C   UNL     1       1.228   3.739  20.901  0.00  0.00    +0.000 C 
ATOM     29  C   UNL     1       2.273   4.669  20.284  0.00  0.00    +0.000 C 
ATOM     30  C   UNL     1       2.273   4.664  18.782  0.00  0.00    +0.000 C 
ATOM     31  C   UNL     1       2.596   5.715  18.000  0.00  0.00    +0.000 C 
ENDBRANCH  22  31
ENDBRANCH   1  22
TORSDOF 4
ENDMDL
MODEL 4
REMARK VINA RESULT:      -8.9      2.265      3.126
REMARK  Name = 
REMARK  4 active torsions:
REMARK  status: ('A' for Active; 'I' for Inactive)
REMARK    1  A    between atoms: C_8  and  N_9
REMARK    2  A    between atoms: N_9  and  C_10
REMARK    3  A    between atoms: C_13  and  S_14
REMARK    4  A    between atoms: S_14  and  N_17
REMARK                            x       y       z     vdW  Elec       q    Type
REMARK                         _______ _______ _______ _____ _____    ______ ____
ROOT
ATOM      1  C   UNL     1       2.369   7.146  19.153  0.00  0.00    +0.000 A 
ATOM      2  C   UNL     1       1.848   7.503  20.405  0.00  0.00    +0.000 A 
ATOM      3  C   UNL     1       1.212   8.740  20.604  0.00  0.00    +0.000 A 
ATOM      4  C   UNL     1       1.071   9.630  19.539  0.00  0.00    +0.000 A 
ATOM      5  C   UNL     1       1.537   9.275  18.272  0.00  0.00    +0.000 A 
ATOM      6  C   UNL     1       2.189   8.047  18.090  0.00  0.00    +0.000 A 
ENDROOT
BRANCH   4   7
ATOM      7  S   UNL     1       0.120  11.124  19.732  0.00  0.00    +0.000 S 
ATOM      8  O   UNL     1      -0.839  10.896  20.790  0.00  0.00    +0.000 OA
ATOM      9  O   UNL     1       1.063  12.220  19.812  0.00  0.00    +0.000 OA
BRANCH   7  10
ATOM     10  N   UNL     1      -0.653  11.319  18.242  0.00  0.00    +0.000 N 
ATOM     11  C   UNL     1      -2.050  11.107  18.230  0.00  0.00    +0.000 A 
ATOM     12  C   UNL     1      -2.607   9.963  17.691  0.00  0.00    +0.000 A 
ATOM     13  N   UNL     1      -3.941   9.757  17.642  0.00  0.00    +0.000 NA
ATOM     14  C   UNL     1      -4.706  10.715  18.198  0.00  0.00    +0.000 A 
ATOM     15  C   UNL     1      -6.085  10.548  18.238  0.00  0.00    +0.000 A 
ATOM     16  C   UNL     1      -6.910  11.457  18.904  0.00  0.00    +0.000 A 
ATOM     17  C   UNL     1      -6.344  12.568  19.516  0.00  0.00    +0.000 A 
ATOM     18  C   UNL     1      -4.967  12.783  19.424  0.00  0.00    +0.000 A 
ATOM     19  C   UNL     1      -4.131  11.879  18.776  0.00  0.00    +0.000 A 
ATOM     20  N   UNL     1      -2.797  12.097  18.737  0.00  0.00    +0.000 NA
ATOM     21  H   UNL     1      -0.392  12.227  17.863  0.00  0.00    +0.000 HD
ENDBRANCH   7  10
ENDBRANCH   4   7
BRANCH   1  22
ATOM     22  N   UNL     1       2.985   5.905  18.896  0.00  0.00    +0.000 N 
ATOM     23  H   UNL     1       2.356   5.110  18.867  0.00  0.00    +0.000 HD
BRANCH  22  31
ATOM     24  O   UNL     1       6.923   4.697  19.131  0.00  0.00    +0.000 OA
ATOM     25  C   UNL     1       6.468   4.799  17.991  0.00  0.00    +0.000 C 
ATOM     26  C   UNL     1       7.393   4.705  16.794  0.00  0.00    +0.000 C 
ATOM     27  C   UNL     1       6.709   4.186  15.541  0.00  0.00    +0.000 C 
ATOM     28  C   UNL     1       5.439   4.975  15.262  0.00  0.00    +0.000 C 
ATOM     29  C   UNL     1       4.439   4.811  16.406  0.00  0.00    +0.000 C 
ATOM     30  C   UNL     1       5.016   5.113  17.760  0.00  0.00    +0.000 C 
ATOM     31  C   UNL     1       4.329   5.623  18.803  0.00  0.00    +0.000 C 
ENDBRANCH  22  31
ENDBRANCH   1  22
TORSDOF 4
ENDMDL
MODEL 5
REMARK VINA RESULT:      -8.8      1.117      1.553
REMARK  Name = 
REMARK  4 active torsions:
REMARK  status: ('A' for Active; 'I' for Inactive)
REMARK    1  A    between atoms: C_8  and  N_9
REMARK    2  A    between atoms: N_9  and  C_10
REMARK    3  A    between atoms: C_13  and  S_14
REMARK    4  A    between atoms: S_14  and  N_17
REMARK                            x       y       z     vdW  Elec       q    Type
REMARK                         _______ _______ _______ _____ _____    ______ ____
ROOT
ATOM      1  C   UNL     1       2.510   7.766  18.401  0.00  0.00    +0.000 A 
ATOM      2  C   UNL     1       2.121   7.590  19.736  0.00  0.00    +0.000 A 
ATOM      3  C   UNL     1       1.428   8.594  20.432  0.00  0.00    +0.000 A 
ATOM      4  C   UNL     1       1.095   9.785  19.787  0.00  0.00    +0.000 A 
ATOM      5  C   UNL     1       1.427   9.963  18.443  0.00  0.00    +0.000 A 
ATOM      6  C   UNL     1       2.137   8.963  17.764  0.00  0.00    +0.000 A 
ENDROOT
BRANCH   4   7
ATOM      7  S   UNL     1       0.070  10.996  20.600  0.00  0.00    +0.000 S 
ATOM      8  O   UNL     1      -1.056  10.296  21.175  0.00  0.00    +0.000 OA
ATOM      9  O   UNL     1       0.942  11.802  21.428  0.00  0.00    +0.000 OA
BRANCH   7  10
ATOM     10  N   UNL     1      -0.424  12.024  19.354  0.00  0.00    +0.000 N 
ATOM     11  C   UNL     1      -1.747  11.850  18.887  0.00  0.00    +0.000 A 
ATOM     12  C   UNL     1      -2.017  11.237  17.678  0.00  0.00    +0.000 A 
ATOM     13  N   UNL     1      -3.271  11.090  17.201  0.00  0.00    +0.000 NA
ATOM     14  C   UNL     1      -4.261  11.533  18.000  0.00  0.00    +0.000 A 
ATOM     15  C   UNL     1      -5.583  11.363  17.604  0.00  0.00    +0.000 A 
ATOM     16  C   UNL     1      -6.644  11.702  18.446  0.00  0.00    +0.000 A 
ATOM     17  C   UNL     1      -6.375  12.244  19.696  0.00  0.00    +0.000 A 
ATOM     18  C   UNL     1      -5.052  12.481  20.078  0.00  0.00    +0.000 A 
ATOM     19  C   UNL     1      -3.985  12.138  19.255  0.00  0.00    +0.000 A 
ATOM     20  N   UNL     1      -2.714  12.346  19.670  0.00  0.00    +0.000 NA
ATOM     21  H   UNL     1      -0.233  12.984  19.636  0.00  0.00    +0.000 HD
ENDBRANCH   7  10
ENDBRANCH   4   7
BRANCH   1  22
ATOM     22  N   UNL     1       3.176   6.776  17.651  0.00  0.00    +0.000 N 
ATOM     23  H   UNL     1       3.144   6.903  16.646  0.00  0.00    +0.000 HD
BRANCH  22  31
ATOM     24  O   UNL     1       5.208   3.651  19.420  0.00  0.00    +0.000 OA
ATOM     25  C   UNL     1       4.048   3.407  19.088  0.00  0.00    +0.000 C 
ATOM     26  C   UNL     1       3.530   1.984  19.133  0.00  0.00    +0.000 C 
ATOM     27  C   UNL     1       2.031   1.892  19.360  0.00  0.00    +0.000 C 
ATOM     28  C   UNL     1       1.288   2.774  18.367  0.00  0.00    +0.000 C 
ATOM     29  C   UNL     1       1.671   4.242  18.557  0.00  0.00    +0.000 C 
ATOM     30  C   UNL     1       3.153   4.485  18.543  0.00  0.00    +0.000 C 
ATOM     31  C   UNL     1       3.753   5.610  18.101  0.00  0.00    +0.000 C 
ENDBRANCH  22  31
ENDBRANCH   1  22
TORSDOF 4
ENDMDL
MODEL 6
REMARK VINA RESULT:      -8.8      2.135      2.908
REMARK  Name = 
REMARK  4 active torsions:
REMARK  status: ('A' for Active; 'I' for Inactive)
REMARK    1  A    between atoms: C_8  and  N_9
REMARK    2  A    between atoms: N_9  and  C_10
REMARK    3  A    between atoms: C_13  and  S_14
REMARK    4  A    between atoms: S_14  and  N_17
REMARK                            x       y       z     vdW  Elec       q    Type
REMARK                         _______ _______ _______ _____ _____    ______ ____
ROOT
ATOM      1  C   UNL     1       2.154   7.714  18.737  0.00  0.00    +0.000 A 
ATOM      2  C   UNL     1       1.862   8.854  17.976  0.00  0.00    +0.000 A 
ATOM      3  C   UNL     1       1.190   9.953  18.536  0.00  0.00    +0.000 A 
ATOM      4  C   UNL     1       0.819   9.930  19.880  0.00  0.00    +0.000 A 
ATOM      5  C   UNL     1       1.143   8.827  20.672  0.00  0.00    +0.000 A 
ATOM      6  C   UNL     1       1.795   7.727  20.096  0.00  0.00    +0.000 A 
ENDROOT
BRANCH   4   7
ATOM      7  S   UNL     1       0.121  11.379  20.648  0.00  0.00    +0.000 S 
ATOM      8  O   UNL     1      -0.939  10.938  21.526  0.00  0.00    +0.000 OA
ATOM      9  O   UNL     1       1.225  12.164  21.157  0.00  0.00    +0.000 OA
BRANCH   7  10
ATOM     10  N   UNL     1      -0.495  12.277  19.356  0.00  0.00    +0.000 N 
ATOM     11  C   UNL     1      -1.828  11.998  18.979  0.00  0.00    +0.000 A 
ATOM     12  C   UNL     1      -2.126  11.277  17.838  0.00  0.00    +0.000 A 
ATOM     13  N   UNL     1      -3.393  11.027  17.446  0.00  0.00    +0.000 NA
ATOM     14  C   UNL     1      -4.364  11.480  18.262  0.00  0.00    +0.000 A 
ATOM     15  C   UNL     1      -5.693  11.212  17.955  0.00  0.00    +0.000 A 
ATOM     16  C   UNL     1      -6.725  11.561  18.827  0.00  0.00    +0.000 A 
ATOM     17  C   UNL     1      -6.423  12.215  20.014  0.00  0.00    +0.000 A 
ATOM     18  C   UNL     1      -5.098  12.550  20.302  0.00  0.00    +0.000 A 
ATOM     19  C   UNL     1      -4.057  12.197  19.449  0.00  0.00    +0.000 A 
ATOM     20  N   UNL     1      -2.780  12.505  19.774  0.00  0.00    +0.000 NA
ATOM     21  H   UNL     1      -0.344  13.265  19.552  0.00  0.00    +0.000 HD
ENDBRANCH   7  10
ENDBRANCH   4   7
BRANCH   1  22
ATOM     22  N   UNL     1       2.854   6.601  18.230  0.00  0.00    +0.000 N 
ATOM     23  H   UNL     1       2.322   6.006  17.605  0.00  0.00    +0.000 HD
BRANCH  22  31
ATOM     24  O   UNL     1       6.337   4.947  19.698  0.00  0.00    +0.000 OA
ATOM     25  C   UNL     1       6.284   5.067  18.473  0.00  0.00    +0.000 C 
ATOM     26  C   UNL     1       7.522   4.828  17.632  0.00  0.00    +0.000 C 
ATOM     27  C   UNL     1       7.214   4.355  16.223  0.00  0.00    +0.000 C 
ATOM     28  C   UNL     1       6.204   5.279  15.560  0.00  0.00    +0.000 C 
ATOM     29  C   UNL     1       4.880   5.269  16.324  0.00  0.00    +0.000 C 
ATOM     30  C   UNL     1       5.029   5.541  17.793  0.00  0.00    +0.000 C 
ATOM     31  C   UNL     1       4.114   6.161  18.567  0.00  0.00    +0.000 C 
ENDBRANCH  22  31
ENDBRANCH   1  22
TORSDOF 4
ENDMDL
MODEL 7
REMARK VINA RESULT:      -8.8      3.766      9.786
REMARK  Name = 
REMARK  4 active torsions:
REMARK  status: ('A' for Active; 'I' for Inactive)
REMARK    1  A    between atoms: C_8  and  N_9
REMARK    2  A    between atoms: N_9  and  C_10
REMARK    3  A    between atoms: C_13  and  S_14
REMARK    4  A    between atoms: S_14  and  N_17
REMARK                            x       y       z     vdW  Elec       q    Type
REMARK                         _______ _______ _______ _____ _____    ______ ____
ROOT
ATOM      1  C   UNL     1       2.117   7.095  19.448  0.00  0.00    +0.000 A 
ATOM      2  C   UNL     1       1.961   6.570  18.158  0.00  0.00    +0.000 A 
ATOM      3  C   UNL     1       2.402   5.275  17.839  0.00  0.00    +0.000 A 
ATOM      4  C   UNL     1       2.989   4.478  18.822  0.00  0.00    +0.000 A 
ATOM      5  C   UNL     1       3.109   4.960  20.127  0.00  0.00    +0.000 A 
ATOM      6  C   UNL     1       2.685   6.262  20.428  0.00  0.00    +0.000 A 
ENDROOT
BRANCH   4   7
ATOM      7  S   UNL     1       3.397   2.777  18.480  0.00  0.00    +0.000 S 
ATOM      8  O   UNL     1       3.911   2.199  19.701  0.00  0.00    +0.000 OA
ATOM      9  O   UNL     1       2.255   2.193  17.809  0.00  0.00    +0.000 OA
BRANCH   7  10
ATOM     10  N   UNL     1       4.600   2.869  17.297  0.00  0.00    +0.000 N 
ATOM     11  C   UNL     1       5.303   4.092  17.213  0.00  0.00    +0.000 A 
ATOM     12  C   UNL     1       5.071   4.996  16.194  0.00  0.00    +0.000 A 
ATOM     13  N   UNL     1       5.755   6.154  16.081  0.00  0.00    +0.000 NA
ATOM     14  C   UNL     1       6.651   6.409  17.054  0.00  0.00    +0.000 A 
ATOM     15  C   UNL     1       7.352   7.609  17.037  0.00  0.00    +0.000 A 
ATOM     16  C   UNL     1       8.205   7.967  18.083  0.00  0.00    +0.000 A 
ATOM     17  C   UNL     1       8.379   7.095  19.150  0.00  0.00    +0.000 A 
ATOM     18  C   UNL     1       7.731   5.857  19.145  0.00  0.00    +0.000 A 
ATOM     19  C   UNL     1       6.869   5.492  18.117  0.00  0.00    +0.000 A 
ATOM     20  N   UNL     1       6.228   4.301  18.160  0.00  0.00    +0.000 NA
ATOM     21  H   UNL     1       5.220   2.069  17.409  0.00  0.00    +0.000 HD
ENDBRANCH   7  10
ENDBRANCH   4   7
BRANCH   1  22
ATOM     22  N   UNL     1       1.662   8.375  19.824  0.00  0.00    +0.000 N 
ATOM     23  H   UNL     1       1.868   9.116  19.164  0.00  0.00    +0.000 HD
BRANCH  22  31
ATOM     24  O   UNL     1       0.531   9.472  23.637  0.00  0.00    +0.000 OA
ATOM     25  C   UNL     1      -0.027  10.082  22.724  0.00  0.00    +0.000 C 
ATOM     26  C   UNL     1      -1.202  10.990  23.025  0.00  0.00    +0.000 C 
ATOM     27  C   UNL     1      -1.355  12.130  22.033  0.00  0.00    +0.000 C 
ATOM     28  C   UNL     1      -1.353  11.598  20.608  0.00  0.00    +0.000 C 
ATOM     29  C   UNL     1      -0.024  10.915  20.288  0.00  0.00    +0.000 C 
ATOM     30  C   UNL     1       0.375   9.870  21.291  0.00  0.00    +0.000 C 
ATOM     31  C   UNL     1       1.089   8.759  21.015  0.00  0.00    +0.000 C 
ENDBRANCH  22  31
ENDBRANCH   1  22
TORSDOF 4
ENDMDL
MODEL 8
REMARK VINA RESULT:      -8.7      2.441      3.194
REMARK  Name = 
REMARK  4 active torsions:
REMARK  status: ('A' for Active; 'I' for Inactive)
REMARK    1  A    between atoms: C_8  and  N_9
REMARK    2  A    between atoms: N_9  and  C_10
REMARK    3  A    between atoms: C_13  and  S_14
REMARK    4  A    between atoms: S_14  and  N_17
REMARK                            x       y       z     vdW  Elec       q    Type
REMARK                         _______ _______ _______ _____ _____    ______ ____
ROOT
ATOM      1  C   UNL     1       2.646   6.421  19.434  0.00  0.00    +0.000 A 
ATOM      2  C   UNL     1       2.598   7.508  18.550  0.00  0.00    +0.000 A 
ATOM      3  C   UNL     1       1.881   8.674  18.864  0.00  0.00    +0.000 A 
ATOM      4  C   UNL     1       1.217   8.774  20.087  0.00  0.00    +0.000 A 
ATOM      5  C   UNL     1       1.291   7.725  21.005  0.00  0.00    +0.000 A 
ATOM      6  C   UNL     1       1.992   6.558  20.671  0.00  0.00    +0.000 A 
ENDROOT
BRANCH   4   7
ATOM      7  S   UNL     1       0.448  10.307  20.573  0.00  0.00    +0.000 S 
ATOM      8  O   UNL     1      -0.787   9.978  21.248  0.00  0.00    +0.000 OA
ATOM      9  O   UNL     1       1.463  11.100  21.232  0.00  0.00    +0.000 OA
BRANCH   7  10
ATOM     10  N   UNL     1       0.149  11.102  19.112  0.00  0.00    +0.000 N 
ATOM     11  C   UNL     1      -1.180  11.056  18.635  0.00  0.00    +0.000 A 
ATOM     12  C   UNL     1      -1.545  10.246  17.576  0.00  0.00    +0.000 A 
ATOM     13  N   UNL     1      -2.803  10.211  17.087  0.00  0.00    +0.000 NA
ATOM     14  C   UNL     1      -3.705  10.981  17.725  0.00  0.00    +0.000 A 
ATOM     15  C   UNL     1      -5.033  10.955  17.316  0.00  0.00    +0.000 A 
ATOM     16  C   UNL     1      -6.024  11.646  18.016  0.00  0.00    +0.000 A 
ATOM     17  C   UNL     1      -5.673  12.398  19.130  0.00  0.00    +0.000 A 
ATOM     18  C   UNL     1      -4.332  12.486  19.511  0.00  0.00    +0.000 A 
ATOM     19  C   UNL     1      -3.336  11.793  18.830  0.00  0.00    +0.000 A 
ATOM     20  N   UNL     1      -2.051  11.870  19.247  0.00  0.00    +0.000 NA
ATOM     21  H   UNL     1       0.504  12.054  19.188  0.00  0.00    +0.000 HD
ENDBRANCH   7  10
ENDBRANCH   4   7
BRANCH   1  22
ATOM     22  N   UNL     1       3.378   5.245  19.178  0.00  0.00    +0.000 N 
ATOM     23  H   UNL     1       2.879   4.380  19.356  0.00  0.00    +0.000 HD
BRANCH  22  31
ATOM     24  O   UNL     1       7.394   4.468  18.641  0.00  0.00    +0.000 OA
ATOM     25  C   UNL     1       6.742   4.621  17.607  0.00  0.00    +0.000 C 
ATOM     26  C   UNL     1       7.451   4.740  16.273  0.00  0.00    +0.000 C 
ATOM     27  C   UNL     1       6.614   4.263  15.099  0.00  0.00    +0.000 C 
ATOM     28  C   UNL     1       5.246   4.928  15.116  0.00  0.00    +0.000 C 
ATOM     29  C   UNL     1       4.478   4.550  16.382  0.00  0.00    +0.000 C 
ATOM     30  C   UNL     1       5.248   4.790  17.649  0.00  0.00    +0.000 C 
ATOM     31  C   UNL     1       4.706   5.125  18.838  0.00  0.00    +0.000 C 
ENDBRANCH  22  31
ENDBRANCH   1  22
TORSDOF 4
ENDMDL
MODEL 9
REMARK VINA RESULT:      -8.7      3.475      4.782
REMARK  Name = 
REMARK  4 active torsions:
REMARK  status: ('A' for Active; 'I' for Inactive)
REMARK    1  A    between atoms: C_8  and  N_9
REMARK    2  A    between atoms: N_9  and  C_10
REMARK    3  A    between atoms: C_13  and  S_14
REMARK    4  A    between atoms: S_14  and  N_17
REMARK                            x       y       z     vdW  Elec       q    Type
REMARK                         _______ _______ _______ _____ _____    ______ ____
ROOT
ATOM      1  C   UNL     1       1.428   8.402  20.227  0.00  0.00    +0.000 A 
ATOM      2  C   UNL     1       1.512   9.074  19.000  0.00  0.00    +0.000 A 
ATOM      3  C   UNL     1       0.728  10.209  18.734  0.00  0.00    +0.000 A 
ATOM      4  C   UNL     1      -0.138  10.700  19.711  0.00  0.00    +0.000 A 
ATOM      5  C   UNL     1      -0.202  10.079  20.959  0.00  0.00    +0.000 A 
ATOM      6  C   UNL     1       0.570   8.934  21.205  0.00  0.00    +0.000 A 
ENDROOT
BRANCH   4   7
ATOM      7  S   UNL     1      -1.010  12.233  19.455  0.00  0.00    +0.000 S 
ATOM      8  O   UNL     1      -0.972  12.524  18.039  0.00  0.00    +0.000 OA
ATOM      9  O   UNL     1      -2.273  12.125  20.154  0.00  0.00    +0.000 OA
BRANCH   7  10
ATOM     10  N   UNL     1      -0.119  13.369  20.332  0.00  0.00    +0.000 N 
ATOM     11  C   UNL     1       0.397  14.462  19.599  0.00  0.00    +0.000 A 
ATOM     12  C   UNL     1       1.736  14.553  19.273  0.00  0.00    +0.000 A 
ATOM     13  N   UNL     1       2.251  15.604  18.601  0.00  0.00    +0.000 NA
ATOM     14  C   UNL     1       1.371  16.548  18.217  0.00  0.00    +0.000 A 
ATOM     15  C   UNL     1       1.816  17.632  17.470  0.00  0.00    +0.000 A 
ATOM     16  C   UNL     1       0.925  18.575  16.954  0.00  0.00    +0.000 A 
ATOM     17  C   UNL     1      -0.432  18.443  17.213  0.00  0.00    +0.000 A 
ATOM     18  C   UNL     1      -0.885  17.395  18.018  0.00  0.00    +0.000 A 
ATOM     19  C   UNL     1      -0.011  16.441  18.529  0.00  0.00    +0.000 A 
ATOM     20  N   UNL     1      -0.486  15.417  19.275  0.00  0.00    +0.000 NA
ATOM     21  H   UNL     1      -0.675  13.663  21.133  0.00  0.00    +0.000 HD
ENDBRANCH   7  10
ENDBRANCH   4   7
BRANCH   1  22
ATOM     22  N   UNL     1       2.217   7.281  20.552  0.00  0.00    +0.000 N 
ATOM     23  H   UNL     1       3.171   7.490  20.827  0.00  0.00    +0.000 HD
BRANCH  22  31
ATOM     24  O   UNL     1       0.663   3.466  20.323  0.00  0.00    +0.000 OA
ATOM     25  C   UNL     1       1.521   3.738  19.483  0.00  0.00    +0.000 C 
ATOM     26  C   UNL     1       2.097   2.646  18.605  0.00  0.00    +0.000 C 
ATOM     27  C   UNL     1       2.583   3.148  17.256  0.00  0.00    +0.000 C 
ATOM     28  C   UNL     1       3.518   4.334  17.435  0.00  0.00    +0.000 C 
ATOM     29  C   UNL     1       2.789   5.501  18.099  0.00  0.00    +0.000 C 
ATOM     30  C   UNL     1       2.086   5.128  19.373  0.00  0.00    +0.000 C 
ATOM     31  C   UNL     1       1.896   5.948  20.427  0.00  0.00    +0.000 C 
ENDBRANCH  22  31
ENDBRANCH   1  22
TORSDOF 4
ENDMDL
