MODEL 1
REMARK VINA RESULT:      -7.6      0.000      0.000
REMARK  Name = 
REMARK  3 active torsions:
REMARK  status: ('A' for Active; 'I' for Inactive)
REMARK    1  A    between atoms: C_1  and  C_2
REMARK    2  A    between atoms: C_10  and  C_11
REMARK    3  A    between atoms: C_11  and  C_12
REMARK                            x       y       z     vdW  Elec       q    Type
REMARK                         _______ _______ _______ _____ _____    ______ ____
ROOT
ATOM      1  C   UNL     1       7.483   6.487  17.782  0.00  0.00    +0.000 C 
ATOM      2  C   UNL     1       7.005   5.613  16.643  0.00  0.00    +0.000 A 
ATOM      3  N   UNL     1       7.591   5.803  15.495  0.00  0.00    +0.000 NA
ATOM      4  N   UNL     1       7.114   5.008  14.500  0.00  0.00    +0.000 N 
ATOM      5  C   UNL     1       7.517   4.980  13.196  0.00  0.00    +0.000 A 
ATOM      6  N   UNL     1       6.823   4.084  12.528  0.00  0.00    +0.000 NA
ATOM      7  N   UNL     1       5.931   3.509  13.407  0.00  0.00    +0.000 NA
ATOM      8  C   UNL     1       6.113   4.070  14.584  0.00  0.00    +0.000 A 
ATOM      9  C   UNL     1       5.475   3.915  15.829  0.00  0.00    +0.000 A 
ATOM     10  C   UNL     1       5.880   4.632  16.894  0.00  0.00    +0.000 A 
ENDROOT
BRANCH  10  11
ATOM     11  C   UNL     1       5.138   4.588  18.203  0.00  0.00    +0.000 C 
BRANCH  11  12
ATOM     12  C   UNL     1       3.799   3.878  18.200  0.00  0.00    +0.000 A 
ATOM     13  C   UNL     1       3.694   2.578  18.717  0.00  0.00    +0.000 A 
ATOM     14  C   UNL     1       2.447   1.962  18.860  0.00  0.00    +0.000 A 
ATOM     15  C   UNL     1       1.286   2.637  18.486  0.00  0.00    +0.000 A 
ATOM     16  C   UNL     1       1.375   3.921  17.958  0.00  0.00    +0.000 A 
ATOM     17  C   UNL     1       2.622   4.539  17.815  0.00  0.00    +0.000 A 
ENDBRANCH  11  12
ENDBRANCH  10  11
TORSDOF 2
ENDMDL
MODEL 2
REMARK VINA RESULT:      -7.5      2.953      4.272
REMARK  Name = 
REMARK  3 active torsions:
REMARK  status: ('A' for Active; 'I' for Inactive)
REMARK    1  A    between atoms: C_1  and  C_2
REMARK    2  A    between atoms: C_10  and  C_11
REMARK    3  A    between atoms: C_11  and  C_12
REMARK                            x       y       z     vdW  Elec       q    Type
REMARK                         _______ _______ _______ _____ _____    ______ ____
ROOT
ATOM      1  C   UNL     1       2.452   3.774  17.547  0.00  0.00    +0.000 C 
ATOM      2  C   UNL     1       3.754   4.481  17.241  0.00  0.00    +0.000 A 
ATOM      3  N   UNL     1       4.452   3.988  16.258  0.00  0.00    +0.000 NA
ATOM      4  N   UNL     1       5.622   4.645  16.035  0.00  0.00    +0.000 N 
ATOM      5  C   UNL     1       6.564   4.363  15.088  0.00  0.00    +0.000 A 
ATOM      6  N   UNL     1       7.563   5.214  15.178  0.00  0.00    +0.000 NA
ATOM      7  N   UNL     1       7.282   6.077  16.214  0.00  0.00    +0.000 NA
ATOM      8  C   UNL     1       6.119   5.727  16.721  0.00  0.00    +0.000 A 
ATOM      9  C   UNL     1       5.359   6.212  17.802  0.00  0.00    +0.000 A 
ATOM     10  C   UNL     1       4.170   5.655  18.100  0.00  0.00    +0.000 A 
ENDROOT
BRANCH  10  11
ATOM     11  C   UNL     1       3.394   6.061  19.326  0.00  0.00    +0.000 C 
BRANCH  11  12
ATOM     12  C   UNL     1       2.475   7.256  19.180  0.00  0.00    +0.000 A 
ATOM     13  C   UNL     1       1.792   7.757  20.299  0.00  0.00    +0.000 A 
ATOM     14  C   UNL     1       1.058   8.944  20.219  0.00  0.00    +0.000 A 
ATOM     15  C   UNL     1       0.993   9.648  19.018  0.00  0.00    +0.000 A 
ATOM     16  C   UNL     1       1.652   9.156  17.895  0.00  0.00    +0.000 A 
ATOM     17  C   UNL     1       2.387   7.969  17.974  0.00  0.00    +0.000 A 
ENDBRANCH  11  12
ENDBRANCH  10  11
TORSDOF 2
ENDMDL
MODEL 3
REMARK VINA RESULT:      -7.4      0.263      1.197
REMARK  Name = 
REMARK  3 active torsions:
REMARK  status: ('A' for Active; 'I' for Inactive)
REMARK    1  A    between atoms: C_1  and  C_2
REMARK    2  A    between atoms: C_10  and  C_11
REMARK    3  A    between atoms: C_11  and  C_12
REMARK                            x       y       z     vdW  Elec       q    Type
REMARK                         _______ _______ _______ _____ _____    ______ ____
ROOT
ATOM      1  C   UNL     1       7.491   6.699  17.839  0.00  0.00    +0.000 C 
ATOM      2  C   UNL     1       6.964   5.779  16.758  0.00  0.00    +0.000 A 
ATOM      3  N   UNL     1       7.551   5.870  15.598  0.00  0.00    +0.000 NA
ATOM      4  N   UNL     1       7.030   5.039  14.656  0.00  0.00    +0.000 N 
ATOM      5  C   UNL     1       7.422   4.911  13.355  0.00  0.00    +0.000 A 
ATOM      6  N   UNL     1       6.682   4.010  12.746  0.00  0.00    +0.000 NA
ATOM      7  N   UNL     1       5.770   3.533  13.663  0.00  0.00    +0.000 NA
ATOM      8  C   UNL     1       5.987   4.157  14.802  0.00  0.00    +0.000 A 
ATOM      9  C   UNL     1       5.351   4.109  16.056  0.00  0.00    +0.000 A 
ATOM     10  C   UNL     1       5.797   4.871  17.073  0.00  0.00    +0.000 A 
ENDROOT
BRANCH  10  11
ATOM     11  C   UNL     1       5.062   4.943  18.386  0.00  0.00    +0.000 C 
BRANCH  11  12
ATOM     12  C   UNL     1       3.781   4.140  18.491  0.00  0.00    +0.000 A 
ATOM     13  C   UNL     1       2.572   4.685  18.035  0.00  0.00    +0.000 A 
ATOM     14  C   UNL     1       1.409   3.910  17.986  0.00  0.00    +0.000 A 
ATOM     15  C   UNL     1       1.439   2.578  18.394  0.00  0.00    +0.000 A 
ATOM     16  C   UNL     1       2.627   2.027  18.864  0.00  0.00    +0.000 A 
ATOM     17  C   UNL     1       3.791   2.801  18.913  0.00  0.00    +0.000 A 
ENDBRANCH  11  12
ENDBRANCH  10  11
TORSDOF 2
ENDMDL
MODEL 4
REMARK VINA RESULT:      -7.4      6.482      8.181
REMARK  Name = 
REMARK  3 active torsions:
REMARK  status: ('A' for Active; 'I' for Inactive)
REMARK    1  A    between atoms: C_1  and  C_2
REMARK    2  A    between atoms: C_10  and  C_11
REMARK    3  A    between atoms: C_11  and  C_12
REMARK                            x       y       z     vdW  Elec       q    Type
REMARK                         _______ _______ _______ _____ _____    ______ ____
ROOT
ATOM      1  C   UNL     1       1.458   9.175  17.882  0.00  0.00    +0.000 C 
ATOM      2  C   UNL     1       1.161   9.239  19.364  0.00  0.00    +0.000 A 
ATOM      3  N   UNL     1       0.487  10.279  19.765  0.00  0.00    +0.000 NA
ATOM      4  N   UNL     1       0.262  10.302  21.106  0.00  0.00    +0.000 N 
ATOM      5  C   UNL     1      -0.402  11.257  21.820  0.00  0.00    +0.000 A 
ATOM      6  N   UNL     1      -0.415  10.939  23.097  0.00  0.00    +0.000 NA
ATOM      7  N   UNL     1       0.265   9.749  23.236  0.00  0.00    +0.000 NA
ATOM      8  C   UNL     1       0.667   9.377  22.039  0.00  0.00    +0.000 A 
ATOM      9  C   UNL     1       1.426   8.285  21.579  0.00  0.00    +0.000 A 
ATOM     10  C   UNL     1       1.689   8.145  20.266  0.00  0.00    +0.000 A 
ENDROOT
BRANCH  10  11
ATOM     11  C   UNL     1       2.605   7.064  19.755  0.00  0.00    +0.000 C 
BRANCH  11  12
ATOM     12  C   UNL     1       1.978   5.708  19.502  0.00  0.00    +0.000 A 
ATOM     13  C   UNL     1       1.980   5.164  18.209  0.00  0.00    +0.000 A 
ATOM     14  C   UNL     1       1.542   3.855  17.980  0.00  0.00    +0.000 A 
ATOM     15  C   UNL     1       1.094   3.072  19.042  0.00  0.00    +0.000 A 
ATOM     16  C   UNL     1       1.070   3.603  20.329  0.00  0.00    +0.000 A 
ATOM     17  C   UNL     1       1.509   4.911  20.559  0.00  0.00    +0.000 A 
ENDBRANCH  11  12
ENDBRANCH  10  11
TORSDOF 2
ENDMDL
MODEL 5
REMARK VINA RESULT:      -7.4      2.086      2.999
REMARK  Name = 
REMARK  3 active torsions:
REMARK  status: ('A' for Active; 'I' for Inactive)
REMARK    1  A    between atoms: C_1  and  C_2
REMARK    2  A    between atoms: C_10  and  C_11
REMARK    3  A    between atoms: C_11  and  C_12
REMARK                            x       y       z     vdW  Elec       q    Type
REMARK                         _______ _______ _______ _____ _____    ______ ____
ROOT
ATOM      1  C   UNL     1       2.996   7.802  17.949  0.00  0.00    +0.000 C 
ATOM      2  C   UNL     1       3.899   6.677  17.492  0.00  0.00    +0.000 A 
ATOM      3  N   UNL     1       5.076   7.032  17.060  0.00  0.00    +0.000 NA
ATOM      4  N   UNL     1       5.842   5.988  16.643  0.00  0.00    +0.000 N 
ATOM      5  C   UNL     1       7.108   6.040  16.134  0.00  0.00    +0.000 A 
ATOM      6  N   UNL     1       7.525   4.829  15.837  0.00  0.00    +0.000 NA
ATOM      7  N   UNL     1       6.509   3.951  16.148  0.00  0.00    +0.000 NA
ATOM      8  C   UNL     1       5.506   4.656  16.628  0.00  0.00    +0.000 A 
ATOM      9  C   UNL     1       4.215   4.310  17.066  0.00  0.00    +0.000 A 
ATOM     10  C   UNL     1       3.376   5.258  17.526  0.00  0.00    +0.000 A 
ENDROOT
BRANCH  10  11
ATOM     11  C   UNL     1       1.946   4.943  17.878  0.00  0.00    +0.000 C 
BRANCH  11  12
ATOM     12  C   UNL     1       1.716   4.205  19.182  0.00  0.00    +0.000 A 
ATOM     13  C   UNL     1       1.119   2.935  19.173  0.00  0.00    +0.000 A 
ATOM     14  C   UNL     1       1.032   2.176  20.344  0.00  0.00    +0.000 A 
ATOM     15  C   UNL     1       1.540   2.676  21.541  0.00  0.00    +0.000 A 
ATOM     16  C   UNL     1       2.122   3.940  21.570  0.00  0.00    +0.000 A 
ATOM     17  C   UNL     1       2.210   4.700  20.399  0.00  0.00    +0.000 A 
ENDBRANCH  11  12
ENDBRANCH  10  11
TORSDOF 2
ENDMDL
MODEL 6
REMARK VINA RESULT:      -7.3      3.005      4.390
REMARK  Name = 
REMARK  3 active torsions:
REMARK  status: ('A' for Active; 'I' for Inactive)
REMARK    1  A    between atoms: C_1  and  C_2
REMARK    2  A    between atoms: C_10  and  C_11
REMARK    3  A    between atoms: C_11  and  C_12
REMARK                            x       y       z     vdW  Elec       q    Type
REMARK                         _______ _______ _______ _____ _____    ______ ____
ROOT
ATOM      1  C   UNL     1       2.553   3.599  17.623  0.00  0.00    +0.000 C 
ATOM      2  C   UNL     1       3.792   4.409  17.310  0.00  0.00    +0.000 A 
ATOM      3  N   UNL     1       4.567   3.926  16.380  0.00  0.00    +0.000 NA
ATOM      4  N   UNL     1       5.676   4.679  16.148  0.00  0.00    +0.000 N 
ATOM      5  C   UNL     1       6.673   4.432  15.249  0.00  0.00    +0.000 A 
ATOM      6  N   UNL     1       7.583   5.380  15.312  0.00  0.00    +0.000 NA
ATOM      7  N   UNL     1       7.186   6.273  16.283  0.00  0.00    +0.000 NA
ATOM      8  C   UNL     1       6.044   5.844  16.778  0.00  0.00    +0.000 A 
ATOM      9  C   UNL     1       5.205   6.318  17.803  0.00  0.00    +0.000 A 
ATOM     10  C   UNL     1       4.065   5.667  18.103  0.00  0.00    +0.000 A 
ENDROOT
BRANCH  10  11
ATOM     11  C   UNL     1       3.212   6.070  19.277  0.00  0.00    +0.000 C 
BRANCH  11  12
ATOM     12  C   UNL     1       2.486   7.395  19.164  0.00  0.00    +0.000 A 
ATOM     13  C   UNL     1       2.358   8.022  17.915  0.00  0.00    +0.000 A 
ATOM     14  C   UNL     1       1.568   9.165  17.764  0.00  0.00    +0.000 A 
ATOM     15  C   UNL     1       0.895   9.700  18.860  0.00  0.00    +0.000 A 
ATOM     16  C   UNL     1       1.023   9.100  20.109  0.00  0.00    +0.000 A 
ATOM     17  C   UNL     1       1.813   7.956  20.262  0.00  0.00    +0.000 A 
ENDBRANCH  11  12
ENDBRANCH  10  11
TORSDOF 2
ENDMDL
MODEL 7
REMARK VINA RESULT:      -7.3      2.438      3.485
REMARK  Name = 
REMARK  3 active torsions:
REMARK  status: ('A' for Active; 'I' for Inactive)
REMARK    1  A    between atoms: C_1  and  C_2
REMARK    2  A    between atoms: C_10  and  C_11
REMARK    3  A    between atoms: C_11  and  C_12
REMARK                            x       y       z     vdW  Elec       q    Type
REMARK                         _______ _______ _______ _____ _____    ______ ____
ROOT
ATOM      1  C   UNL     1       2.946   8.002  17.460  0.00  0.00    +0.000 C 
ATOM      2  C   UNL     1       4.042   6.999  17.752  0.00  0.00    +0.000 A 
ATOM      3  N   UNL     1       5.035   6.981  16.909  0.00  0.00    +0.000 NA
ATOM      4  N   UNL     1       5.983   6.051  17.204  0.00  0.00    +0.000 N 
ATOM      5  C   UNL     1       7.129   5.787  16.510  0.00  0.00    +0.000 A 
ATOM      6  N   UNL     1       7.797   4.816  17.094  0.00  0.00    +0.000 NA
ATOM      7  N   UNL     1       7.074   4.419  18.198  0.00  0.00    +0.000 NA
ATOM      8  C   UNL     1       5.989   5.164  18.253  0.00  0.00    +0.000 A 
ATOM      9  C   UNL     1       4.884   5.184  19.123  0.00  0.00    +0.000 A 
ATOM     10  C   UNL     1       3.895   6.081  18.944  0.00  0.00    +0.000 A 
ENDROOT
BRANCH  10  11
ATOM     11  C   UNL     1       2.638   6.045  19.774  0.00  0.00    +0.000 C 
BRANCH  11  12
ATOM     12  C   UNL     1       1.960   4.698  19.920  0.00  0.00    +0.000 A 
ATOM     13  C   UNL     1       1.438   4.049  18.791  0.00  0.00    +0.000 A 
ATOM     14  C   UNL     1       0.942   2.744  18.879  0.00  0.00    +0.000 A 
ATOM     15  C   UNL     1       0.960   2.070  20.097  0.00  0.00    +0.000 A 
ATOM     16  C   UNL     1       1.461   2.705  21.230  0.00  0.00    +0.000 A 
ATOM     17  C   UNL     1       1.957   4.009  21.144  0.00  0.00    +0.000 A 
ENDBRANCH  11  12
ENDBRANCH  10  11
TORSDOF 2
ENDMDL
MODEL 8
REMARK VINA RESULT:      -7.3      6.557      8.240
REMARK  Name = 
REMARK  3 active torsions:
REMARK  status: ('A' for Active; 'I' for Inactive)
REMARK    1  A    between atoms: C_1  and  C_2
REMARK    2  A    between atoms: C_10  and  C_11
REMARK    3  A    between atoms: C_11  and  C_12
REMARK                            x       y       z     vdW  Elec       q    Type
REMARK                         _______ _______ _______ _____ _____    ______ ____
ROOT
ATOM      1  C   UNL     1       1.154   9.295  17.918  0.00  0.00    +0.000 C 
ATOM      2  C   UNL     1       0.965   9.284  19.420  0.00  0.00    +0.000 A 
ATOM      3  N   UNL     1       0.233  10.245  19.908  0.00  0.00    +0.000 NA
ATOM      4  N   UNL     1       0.108  10.203  21.262  0.00  0.00    +0.000 N 
ATOM      5  C   UNL     1      -0.582  11.070  22.058  0.00  0.00    +0.000 A 
ATOM      6  N   UNL     1      -0.472  10.711  23.319  0.00  0.00    +0.000 NA
ATOM      7  N   UNL     1       0.318   9.583  23.362  0.00  0.00    +0.000 NA
ATOM      8  C   UNL     1       0.661   9.288  22.126  0.00  0.00    +0.000 A 
ATOM      9  C   UNL     1       1.477   8.285  21.570  0.00  0.00    +0.000 A 
ATOM     10  C   UNL     1       1.652   8.213  20.237  0.00  0.00    +0.000 A 
ENDROOT
BRANCH  10  11
ATOM     11  C   UNL     1       2.619   7.236  19.621  0.00  0.00    +0.000 C 
BRANCH  11  12
ATOM     12  C   UNL     1       2.142   5.804  19.485  0.00  0.00    +0.000 A 
ATOM     13  C   UNL     1       1.705   5.100  20.617  0.00  0.00    +0.000 A 
ATOM     14  C   UNL     1       1.124   3.834  20.493  0.00  0.00    +0.000 A 
ATOM     15  C   UNL     1       0.974   3.253  19.236  0.00  0.00    +0.000 A 
ATOM     16  C   UNL     1       1.417   3.932  18.105  0.00  0.00    +0.000 A 
ATOM     17  C   UNL     1       1.997   5.198  18.227  0.00  0.00    +0.000 A 
ENDBRANCH  11  12
ENDBRANCH  10  11
TORSDOF 2
ENDMDL
MODEL 9
REMARK VINA RESULT:      -7.2      1.620      1.746
REMARK  Name = 
REMARK  3 active torsions:
REMARK  status: ('A' for Active; 'I' for Inactive)
REMARK    1  A    between atoms: C_1  and  C_2
REMARK    2  A    between atoms: C_10  and  C_11
REMARK    3  A    between atoms: C_11  and  C_12
REMARK                            x       y       z     vdW  Elec       q    Type
REMARK                         _______ _______ _______ _____ _____    ______ ____
ROOT
ATOM      1  C   UNL     1       7.599   5.614  19.332  0.00  0.00    +0.000 C 
ATOM      2  C   UNL     1       6.831   5.256  18.078  0.00  0.00    +0.000 A 
ATOM      3  N   UNL     1       7.544   5.095  17.000  0.00  0.00    +0.000 NA
ATOM      4  N   UNL     1       6.807   4.793  15.897  0.00  0.00    +0.000 N 
ATOM      5  C   UNL     1       7.263   4.576  14.629  0.00  0.00    +0.000 A 
ATOM      6  N   UNL     1       6.255   4.314  13.825  0.00  0.00    +0.000 NA
ATOM      7  N   UNL     1       5.101   4.367  14.575  0.00  0.00    +0.000 NA
ATOM      8  C   UNL     1       5.442   4.656  15.814  0.00  0.00    +0.000 A 
ATOM      9  C   UNL     1       4.698   4.873  16.987  0.00  0.00    +0.000 A 
ATOM     10  C   UNL     1       5.323   5.154  18.146  0.00  0.00    +0.000 A 
ENDROOT
BRANCH  10  11
ATOM     11  C   UNL     1       4.554   5.520  19.389  0.00  0.00    +0.000 C 
BRANCH  11  12
ATOM     12  C   UNL     1       3.359   4.652  19.728  0.00  0.00    +0.000 A 
ATOM     13  C   UNL     1       3.523   3.271  19.906  0.00  0.00    +0.000 A 
ATOM     14  C   UNL     1       2.467   2.476  20.362  0.00  0.00    +0.000 A 
ATOM     15  C   UNL     1       1.230   3.051  20.646  0.00  0.00    +0.000 A 
ATOM     16  C   UNL     1       1.047   4.419  20.460  0.00  0.00    +0.000 A 
ATOM     17  C   UNL     1       2.103   5.214  20.004  0.00  0.00    +0.000 A 
ENDBRANCH  11  12
ENDBRANCH  10  11
TORSDOF 2
ENDMDL
