MODEL 1
REMARK VINA RESULT:      -7.4      0.000      0.000
REMARK  Name = 
REMARK  6 active torsions:
REMARK  status: ('A' for Active; 'I' for Inactive)
REMARK    1  A    between atoms: C_2  and  C_3
REMARK    2  A    between atoms: C_2  and  C_11
REMARK    3  A    between atoms: C_6  and  O_7
REMARK    4  A    between atoms: C_8  and  O_9
REMARK    5  A    between atoms: C_14  and  O_15
REMARK    6  A    between atoms: C_16  and  O_17
REMARK                            x       y       z     vdW  Elec       q    Type
REMARK                         _______ _______ _______ _____ _____    ______ ____
ROOT
ATOM      1  O   UNL     1       4.853   3.949  15.816  0.00  0.00    +0.000 OA
ATOM      2  C   UNL     1       4.760   4.406  16.952  0.00  0.00    +0.000 C 
ENDROOT
BRANCH   2   3
ATOM      3  C   UNL     1       3.553   4.112  17.771  0.00  0.00    +0.000 A 
ATOM      4  C   UNL     1       2.851   2.917  17.556  0.00  0.00    +0.000 A 
ATOM      5  C   UNL     1       1.743   2.596  18.351  0.00  0.00    +0.000 A 
ATOM      6  C   UNL     1       1.348   3.479  19.353  0.00  0.00    +0.000 A 
ATOM      7  C   UNL     1       2.034   4.675  19.545  0.00  0.00    +0.000 A 
ATOM      8  C   UNL     1       3.117   5.008  18.752  0.00  0.00    +0.000 A 
BRANCH   6   9
ATOM      9  O   UNL     1       0.288   3.223  20.174  0.00  0.00    +0.000 OA
ATOM     10  H   UNL     1       0.437   2.361  20.606  0.00  0.00    +0.000 HD
ENDBRANCH   6   9
BRANCH   7  11
ATOM     11  O   UNL     1       1.652   5.540  20.529  0.00  0.00    +0.000 OA
ATOM     12  H   UNL     1       0.801   5.906  20.217  0.00  0.00    +0.000 HD
ENDBRANCH   7  11
ENDBRANCH   2   3
BRANCH   2  13
ATOM     13  C   UNL     1       5.857   5.250  17.499  0.00  0.00    +0.000 A 
ATOM     14  C   UNL     1       6.248   6.404  16.805  0.00  0.00    +0.000 A 
ATOM     15  C   UNL     1       7.241   7.240  17.332  0.00  0.00    +0.000 A 
ATOM     16  C   UNL     1       7.833   6.908  18.545  0.00  0.00    +0.000 A 
ATOM     17  C   UNL     1       7.459   5.749  19.218  0.00  0.00    +0.000 A 
ATOM     18  C   UNL     1       6.493   4.906  18.698  0.00  0.00    +0.000 A 
BRANCH  16  19
ATOM     19  O   UNL     1       8.797   7.686  19.122  0.00  0.00    +0.000 OA
ATOM     20  H   UNL     1       8.614   8.615  18.897  0.00  0.00    +0.000 HD
ENDBRANCH  16  19
BRANCH  17  21
ATOM     21  O   UNL     1       8.035   5.426  20.412  0.00  0.00    +0.000 OA
ATOM     22  H   UNL     1       7.564   4.620  20.705  0.00  0.00    +0.000 HD
ENDBRANCH  17  21
ENDBRANCH   2  13
TORSDOF 6
ENDMDL
MODEL 2
REMARK VINA RESULT:      -7.4      0.646      6.044
REMARK  Name = 
REMARK  6 active torsions:
REMARK  status: ('A' for Active; 'I' for Inactive)
REMARK    1  A    between atoms: C_2  and  C_3
REMARK    2  A    between atoms: C_2  and  C_11
REMARK    3  A    between atoms: C_6  and  O_7
REMARK    4  A    between atoms: C_8  and  O_9
REMARK    5  A    between atoms: C_14  and  O_15
REMARK    6  A    between atoms: C_16  and  O_17
REMARK                            x       y       z     vdW  Elec       q    Type
REMARK                         _______ _______ _______ _____ _____    ______ ____
ROOT
ATOM      1  O   UNL     1       4.741   4.020  15.899  0.00  0.00    +0.000 OA
ATOM      2  C   UNL     1       4.700   4.449  17.049  0.00  0.00    +0.000 C 
ENDROOT
BRANCH   2   3
ATOM      3  C   UNL     1       5.818   5.284  17.566  0.00  0.00    +0.000 A 
ATOM      4  C   UNL     1       6.208   6.428  16.855  0.00  0.00    +0.000 A 
ATOM      5  C   UNL     1       7.223   7.257  17.351  0.00  0.00    +0.000 A 
ATOM      6  C   UNL     1       7.840   6.927  18.556  0.00  0.00    +0.000 A 
ATOM      7  C   UNL     1       7.465   5.778  19.244  0.00  0.00    +0.000 A 
ATOM      8  C   UNL     1       6.477   4.943  18.752  0.00  0.00    +0.000 A 
BRANCH   6   9
ATOM      9  O   UNL     1       8.824   7.697  19.105  0.00  0.00    +0.000 OA
ATOM     10  H   UNL     1       8.835   7.538  20.067  0.00  0.00    +0.000 HD
ENDBRANCH   6   9
BRANCH   7  11
ATOM     11  O   UNL     1       8.064   5.454  20.427  0.00  0.00    +0.000 OA
ATOM     12  H   UNL     1       8.827   6.062  20.490  0.00  0.00    +0.000 HD
ENDBRANCH   7  11
ENDBRANCH   2   3
BRANCH   2  13
ATOM     13  C   UNL     1       3.532   4.132  17.914  0.00  0.00    +0.000 A 
ATOM     14  C   UNL     1       3.176   5.020  18.941  0.00  0.00    +0.000 A 
ATOM     15  C   UNL     1       2.048   4.766  19.730  0.00  0.00    +0.000 A 
ATOM     16  C   UNL     1       1.292   3.624  19.487  0.00  0.00    +0.000 A 
ATOM     17  C   UNL     1       1.663   2.734  18.484  0.00  0.00    +0.000 A 
ATOM     18  C   UNL     1       2.786   2.965  17.710  0.00  0.00    +0.000 A 
BRANCH  16  19
ATOM     19  O   UNL     1       0.172   3.324  20.210  0.00  0.00    +0.000 OA
ATOM     20  H   UNL     1      -0.336   4.144  20.339  0.00  0.00    +0.000 HD
ENDBRANCH  16  19
BRANCH  17  21
ATOM     21  O   UNL     1       0.919   1.616  18.241  0.00  0.00    +0.000 OA
ATOM     22  H   UNL     1       0.784   1.614  17.273  0.00  0.00    +0.000 HD
ENDBRANCH  17  21
ENDBRANCH   2  13
TORSDOF 6
ENDMDL
MODEL 3
REMARK VINA RESULT:      -7.4      2.075      2.601
REMARK  Name = 
REMARK  6 active torsions:
REMARK  status: ('A' for Active; 'I' for Inactive)
REMARK    1  A    between atoms: C_2  and  C_3
REMARK    2  A    between atoms: C_2  and  C_11
REMARK    3  A    between atoms: C_6  and  O_7
REMARK    4  A    between atoms: C_8  and  O_9
REMARK    5  A    between atoms: C_14  and  O_15
REMARK    6  A    between atoms: C_16  and  O_17
REMARK                            x       y       z     vdW  Elec       q    Type
REMARK                         _______ _______ _______ _____ _____    ______ ____
ROOT
ATOM      1  O   UNL     1       2.560   3.291  16.361  0.00  0.00    +0.000 OA
ATOM      2  C   UNL     1       3.136   3.787  17.325  0.00  0.00    +0.000 C 
ENDROOT
BRANCH   2   3
ATOM      3  C   UNL     1       2.645   3.509  18.703  0.00  0.00    +0.000 A 
ATOM      4  C   UNL     1       1.338   3.873  19.055  0.00  0.00    +0.000 A 
ATOM      5  C   UNL     1       0.839   3.574  20.329  0.00  0.00    +0.000 A 
ATOM      6  C   UNL     1       1.660   2.913  21.240  0.00  0.00    +0.000 A 
ATOM      7  C   UNL     1       2.964   2.575  20.893  0.00  0.00    +0.000 A 
ATOM      8  C   UNL     1       3.471   2.885  19.644  0.00  0.00    +0.000 A 
BRANCH   6   9
ATOM      9  O   UNL     1       1.234   2.577  22.493  0.00  0.00    +0.000 OA
ATOM     10  H   UNL     1       1.211   3.387  23.036  0.00  0.00    +0.000 HD
ENDBRANCH   6   9
BRANCH   7  11
ATOM     11  O   UNL     1       3.769   1.924  21.783  0.00  0.00    +0.000 OA
ATOM     12  H   UNL     1       4.538   1.636  21.253  0.00  0.00    +0.000 HD
ENDBRANCH   7  11
ENDBRANCH   2   3
BRANCH   2  13
ATOM     13  C   UNL     1       4.320   4.661  17.108  0.00  0.00    +0.000 A 
ATOM     14  C   UNL     1       4.210   6.039  17.349  0.00  0.00    +0.000 A 
ATOM     15  C   UNL     1       5.328   6.870  17.202  0.00  0.00    +0.000 A 
ATOM     16  C   UNL     1       6.541   6.313  16.811  0.00  0.00    +0.000 A 
ATOM     17  C   UNL     1       6.638   4.950  16.549  0.00  0.00    +0.000 A 
ATOM     18  C   UNL     1       5.537   4.123  16.673  0.00  0.00    +0.000 A 
BRANCH  16  19
ATOM     19  O   UNL     1       7.673   7.064  16.663  0.00  0.00    +0.000 OA
ATOM     20  H   UNL     1       8.350   6.716  17.269  0.00  0.00    +0.000 HD
ENDBRANCH  16  19
BRANCH  17  21
ATOM     21  O   UNL     1       7.829   4.402  16.171  0.00  0.00    +0.000 OA
ATOM     22  H   UNL     1       8.468   5.140  16.218  0.00  0.00    +0.000 HD
ENDBRANCH  17  21
ENDBRANCH   2  13
TORSDOF 6
ENDMDL
MODEL 4
REMARK VINA RESULT:      -7.4      0.144      5.914
REMARK  Name = 
REMARK  6 active torsions:
REMARK  status: ('A' for Active; 'I' for Inactive)
REMARK    1  A    between atoms: C_2  and  C_3
REMARK    2  A    between atoms: C_2  and  C_11
REMARK    3  A    between atoms: C_6  and  O_7
REMARK    4  A    between atoms: C_8  and  O_9
REMARK    5  A    between atoms: C_14  and  O_15
REMARK    6  A    between atoms: C_16  and  O_17
REMARK                            x       y       z     vdW  Elec       q    Type
REMARK                         _______ _______ _______ _____ _____    ______ ____
ROOT
ATOM      1  O   UNL     1       4.661   4.061  15.830  0.00  0.00    +0.000 OA
ATOM      2  C   UNL     1       4.631   4.453  16.994  0.00  0.00    +0.000 C 
ENDROOT
BRANCH   2   3
ATOM      3  C   UNL     1       5.756   5.268  17.528  0.00  0.00    +0.000 A 
ATOM      4  C   UNL     1       6.189   6.395  16.814  0.00  0.00    +0.000 A 
ATOM      5  C   UNL     1       7.211   7.206  17.324  0.00  0.00    +0.000 A 
ATOM      6  C   UNL     1       7.792   6.875  18.546  0.00  0.00    +0.000 A 
ATOM      7  C   UNL     1       7.375   5.743  19.238  0.00  0.00    +0.000 A 
ATOM      8  C   UNL     1       6.380   4.926  18.732  0.00  0.00    +0.000 A 
BRANCH   6   9
ATOM      9  O   UNL     1       8.781   7.629  19.109  0.00  0.00    +0.000 OA
ATOM     10  H   UNL     1       8.795   7.449  20.068  0.00  0.00    +0.000 HD
ENDBRANCH   6   9
BRANCH   7  11
ATOM     11  O   UNL     1       7.940   5.419  20.438  0.00  0.00    +0.000 OA
ATOM     12  H   UNL     1       8.297   4.519  20.307  0.00  0.00    +0.000 HD
ENDBRANCH   7  11
ENDBRANCH   2   3
BRANCH   2  13
ATOM     13  C   UNL     1       3.470   4.111  17.859  0.00  0.00    +0.000 A 
ATOM     14  C   UNL     1       2.842   2.865  17.705  0.00  0.00    +0.000 A 
ATOM     15  C   UNL     1       1.783   2.503  18.545  0.00  0.00    +0.000 A 
ATOM     16  C   UNL     1       1.362   3.392  19.528  0.00  0.00    +0.000 A 
ATOM     17  C   UNL     1       1.972   4.635  19.661  0.00  0.00    +0.000 A 
ATOM     18  C   UNL     1       3.006   5.012  18.824  0.00  0.00    +0.000 A 
BRANCH  16  19
ATOM     19  O   UNL     1       0.344   3.096  20.391  0.00  0.00    +0.000 OA
ATOM     20  H   UNL     1      -0.229   3.879  20.467  0.00  0.00    +0.000 HD
ENDBRANCH  16  19
BRANCH  17  21
ATOM     21  O   UNL     1       1.562   5.507  20.629  0.00  0.00    +0.000 OA
ATOM     22  H   UNL     1       0.939   4.992  21.178  0.00  0.00    +0.000 HD
ENDBRANCH  17  21
ENDBRANCH   2  13
TORSDOF 6
ENDMDL
MODEL 5
REMARK VINA RESULT:      -7.4      2.057      5.892
REMARK  Name = 
REMARK  6 active torsions:
REMARK  status: ('A' for Active; 'I' for Inactive)
REMARK    1  A    between atoms: C_2  and  C_3
REMARK    2  A    between atoms: C_2  and  C_11
REMARK    3  A    between atoms: C_6  and  O_7
REMARK    4  A    between atoms: C_8  and  O_9
REMARK    5  A    between atoms: C_14  and  O_15
REMARK    6  A    between atoms: C_16  and  O_17
REMARK                            x       y       z     vdW  Elec       q    Type
REMARK                         _______ _______ _______ _____ _____    ______ ____
ROOT
ATOM      1  O   UNL     1       2.508   3.451  16.367  0.00  0.00    +0.000 OA
ATOM      2  C   UNL     1       3.120   3.888  17.338  0.00  0.00    +0.000 C 
ENDROOT
BRANCH   2   3
ATOM      3  C   UNL     1       4.325   4.737  17.131  0.00  0.00    +0.000 A 
ATOM      4  C   UNL     1       4.227   6.125  17.304  0.00  0.00    +0.000 A 
ATOM      5  C   UNL     1       5.361   6.936  17.165  0.00  0.00    +0.000 A 
ATOM      6  C   UNL     1       6.582   6.346  16.850  0.00  0.00    +0.000 A 
ATOM      7  C   UNL     1       6.668   4.971  16.655  0.00  0.00    +0.000 A 
ATOM      8  C   UNL     1       5.549   4.165  16.772  0.00  0.00    +0.000 A 
BRANCH   6   9
ATOM      9  O   UNL     1       7.729   7.074  16.715  0.00  0.00    +0.000 OA
ATOM     10  H   UNL     1       7.484   7.995  16.506  0.00  0.00    +0.000 HD
ENDBRANCH   6   9
BRANCH   7  11
ATOM     11  O   UNL     1       7.865   4.389  16.351  0.00  0.00    +0.000 OA
ATOM     12  H   UNL     1       8.407   4.508  17.155  0.00  0.00    +0.000 HD
ENDBRANCH   7  11
ENDBRANCH   2   3
BRANCH   2  13
ATOM     13  C   UNL     1       2.649   3.567  18.713  0.00  0.00    +0.000 A 
ATOM     14  C   UNL     1       1.337   3.896  19.084  0.00  0.00    +0.000 A 
ATOM     15  C   UNL     1       0.859   3.554  20.355  0.00  0.00    +0.000 A 
ATOM     16  C   UNL     1       1.701   2.890  21.240  0.00  0.00    +0.000 A 
ATOM     17  C   UNL     1       3.009   2.588  20.876  0.00  0.00    +0.000 A 
ATOM     18  C   UNL     1       3.498   2.937  19.631  0.00  0.00    +0.000 A 
BRANCH  16  19
ATOM     19  O   UNL     1       1.293   2.514  22.490  0.00  0.00    +0.000 OA
ATOM     20  H   UNL     1       1.316   1.542  22.538  0.00  0.00    +0.000 HD
ENDBRANCH  16  19
BRANCH  17  21
ATOM     21  O   UNL     1       3.834   1.931  21.743  0.00  0.00    +0.000 OA
ATOM     22  H   UNL     1       4.722   1.999  21.339  0.00  0.00    +0.000 HD
ENDBRANCH  17  21
ENDBRANCH   2  13
TORSDOF 6
ENDMDL
MODEL 6
REMARK VINA RESULT:      -7.3      0.666      1.596
REMARK  Name = 
REMARK  6 active torsions:
REMARK  status: ('A' for Active; 'I' for Inactive)
REMARK    1  A    between atoms: C_2  and  C_3
REMARK    2  A    between atoms: C_2  and  C_11
REMARK    3  A    between atoms: C_6  and  O_7
REMARK    4  A    between atoms: C_8  and  O_9
REMARK    5  A    between atoms: C_14  and  O_15
REMARK    6  A    between atoms: C_16  and  O_17
REMARK                            x       y       z     vdW  Elec       q    Type
REMARK                         _______ _______ _______ _____ _____    ______ ____
ROOT
ATOM      1  O   UNL     1       4.907   3.808  15.908  0.00  0.00    +0.000 OA
ATOM      2  C   UNL     1       4.817   4.333  17.014  0.00  0.00    +0.000 C 
ENDROOT
BRANCH   2   3
ATOM      3  C   UNL     1       3.632   4.052  17.871  0.00  0.00    +0.000 A 
ATOM      4  C   UNL     1       3.263   4.976  18.859  0.00  0.00    +0.000 A 
ATOM      5  C   UNL     1       2.121   4.756  19.640  0.00  0.00    +0.000 A 
ATOM      6  C   UNL     1       1.362   3.609  19.425  0.00  0.00    +0.000 A 
ATOM      7  C   UNL     1       1.747   2.684  18.459  0.00  0.00    +0.000 A 
ATOM      8  C   UNL     1       2.884   2.883  17.696  0.00  0.00    +0.000 A 
BRANCH   6   9
ATOM      9  O   UNL     1       0.230   3.340  20.138  0.00  0.00    +0.000 OA
ATOM     10  H   UNL     1       0.490   3.117  21.052  0.00  0.00    +0.000 HD
ENDBRANCH   6   9
BRANCH   7  11
ATOM     11  O   UNL     1       1.002   1.561  18.242  0.00  0.00    +0.000 OA
ATOM     12  H   UNL     1       1.195   1.313  17.317  0.00  0.00    +0.000 HD
ENDBRANCH   7  11
ENDBRANCH   2   3
BRANCH   2  13
ATOM     13  C   UNL     1       5.894   5.242  17.490  0.00  0.00    +0.000 A 
ATOM     14  C   UNL     1       6.045   6.502  16.889  0.00  0.00    +0.000 A 
ATOM     15  C   UNL     1       7.017   7.393  17.359  0.00  0.00    +0.000 A 
ATOM     16  C   UNL     1       7.830   7.012  18.421  0.00  0.00    +0.000 A 
ATOM     17  C   UNL     1       7.692   5.754  18.998  0.00  0.00    +0.000 A 
ATOM     18  C   UNL     1       6.748   4.858  18.530  0.00  0.00    +0.000 A 
BRANCH  16  19
ATOM     19  O   UNL     1       8.788   7.839  18.938  0.00  0.00    +0.000 OA
ATOM     20  H   UNL     1       8.550   8.756  18.716  0.00  0.00    +0.000 HD
ENDBRANCH  16  19
BRANCH  17  21
ATOM     21  O   UNL     1       8.485   5.382  20.044  0.00  0.00    +0.000 OA
ATOM     22  H   UNL     1       8.587   6.194  20.579  0.00  0.00    +0.000 HD
ENDBRANCH  17  21
ENDBRANCH   2  13
TORSDOF 6
ENDMDL
MODEL 7
REMARK VINA RESULT:      -7.3      2.100      6.112
REMARK  Name = 
REMARK  6 active torsions:
REMARK  status: ('A' for Active; 'I' for Inactive)
REMARK    1  A    between atoms: C_2  and  C_3
REMARK    2  A    between atoms: C_2  and  C_11
REMARK    3  A    between atoms: C_6  and  O_7
REMARK    4  A    between atoms: C_8  and  O_9
REMARK    5  A    between atoms: C_14  and  O_15
REMARK    6  A    between atoms: C_16  and  O_17
REMARK                            x       y       z     vdW  Elec       q    Type
REMARK                         _______ _______ _______ _____ _____    ______ ____
ROOT
ATOM      1  O   UNL     1       2.572   7.106  17.848  0.00  0.00    +0.000 OA
ATOM      2  C   UNL     1       3.125   6.028  18.050  0.00  0.00    +0.000 C 
ENDROOT
BRANCH   2   3
ATOM      3  C   UNL     1       4.373   5.688  17.314  0.00  0.00    +0.000 A 
ATOM      4  C   UNL     1       4.416   4.523  16.535  0.00  0.00    +0.000 A 
ATOM      5  C   UNL     1       5.563   4.212  15.793  0.00  0.00    +0.000 A 
ATOM      6  C   UNL     1       6.658   5.071  15.843  0.00  0.00    +0.000 A 
ATOM      7  C   UNL     1       6.617   6.213  16.637  0.00  0.00    +0.000 A 
ATOM      8  C   UNL     1       5.496   6.518  17.388  0.00  0.00    +0.000 A 
BRANCH   6   9
ATOM      9  O   UNL     1       7.800   4.837  15.134  0.00  0.00    +0.000 OA
ATOM     10  H   UNL     1       8.366   5.630  15.195  0.00  0.00    +0.000 HD
ENDBRANCH   6   9
BRANCH   7  11
ATOM     11  O   UNL     1       7.687   7.059  16.685  0.00  0.00    +0.000 OA
ATOM     12  H   UNL     1       7.308   7.920  16.952  0.00  0.00    +0.000 HD
ENDBRANCH   7  11
ENDBRANCH   2   3
BRANCH   2  13
ATOM     13  C   UNL     1       2.542   5.073  19.031  0.00  0.00    +0.000 A 
ATOM     14  C   UNL     1       2.946   5.136  20.374  0.00  0.00    +0.000 A 
ATOM     15  C   UNL     1       2.369   4.282  21.322  0.00  0.00    +0.000 A 
ATOM     16  C   UNL     1       1.399   3.373  20.915  0.00  0.00    +0.000 A 
ATOM     17  C   UNL     1       1.020   3.298  19.579  0.00  0.00    +0.000 A 
ATOM     18  C   UNL     1       1.596   4.123  18.630  0.00  0.00    +0.000 A 
BRANCH  16  19
ATOM     19  O   UNL     1       0.786   2.521  21.791  0.00  0.00    +0.000 OA
ATOM     20  H   UNL     1       1.292   1.690  21.812  0.00  0.00    +0.000 HD
ENDBRANCH  16  19
BRANCH  17  21
ATOM     21  O   UNL     1       0.064   2.410  19.180  0.00  0.00    +0.000 OA
ATOM     22  H   UNL     1       0.367   1.547  19.526  0.00  0.00    +0.000 HD
ENDBRANCH  17  21
ENDBRANCH   2  13
TORSDOF 6
ENDMDL
MODEL 8
REMARK VINA RESULT:      -7.2      2.118      3.081
REMARK  Name = 
REMARK  6 active torsions:
REMARK  status: ('A' for Active; 'I' for Inactive)
REMARK    1  A    between atoms: C_2  and  C_3
REMARK    2  A    between atoms: C_2  and  C_11
REMARK    3  A    between atoms: C_6  and  O_7
REMARK    4  A    between atoms: C_8  and  O_9
REMARK    5  A    between atoms: C_14  and  O_15
REMARK    6  A    between atoms: C_16  and  O_17
REMARK                            x       y       z     vdW  Elec       q    Type
REMARK                         _______ _______ _______ _____ _____    ______ ____
ROOT
ATOM      1  O   UNL     1       2.616   7.176  17.801  0.00  0.00    +0.000 OA
ATOM      2  C   UNL     1       3.148   6.084  17.980  0.00  0.00    +0.000 C 
ENDROOT
BRANCH   2   3
ATOM      3  C   UNL     1       2.544   5.115  18.934  0.00  0.00    +0.000 A 
ATOM      4  C   UNL     1       2.803   5.247  20.306  0.00  0.00    +0.000 A 
ATOM      5  C   UNL     1       2.202   4.377  21.226  0.00  0.00    +0.000 A 
ATOM      6  C   UNL     1       1.350   3.380  20.759  0.00  0.00    +0.000 A 
ATOM      7  C   UNL     1       1.115   3.239  19.395  0.00  0.00    +0.000 A 
ATOM      8  C   UNL     1       1.719   4.081  18.478  0.00  0.00    +0.000 A 
BRANCH   6   9
ATOM      9  O   UNL     1       0.719   2.509  21.600  0.00  0.00    +0.000 OA
ATOM     10  H   UNL     1      -0.164   2.316  21.234  0.00  0.00    +0.000 HD
ENDBRANCH   6   9
BRANCH   7  11
ATOM     11  O   UNL     1       0.276   2.265  18.935  0.00  0.00    +0.000 OA
ATOM     12  H   UNL     1       0.441   2.233  17.972  0.00  0.00    +0.000 HD
ENDBRANCH   7  11
ENDBRANCH   2   3
BRANCH   2  13
ATOM     13  C   UNL     1       4.391   5.739  17.239  0.00  0.00    +0.000 A 
ATOM     14  C   UNL     1       4.409   4.600  16.419  0.00  0.00    +0.000 A 
ATOM     15  C   UNL     1       5.552   4.289  15.672  0.00  0.00    +0.000 A 
ATOM     16  C   UNL     1       6.665   5.119  15.757  0.00  0.00    +0.000 A 
ATOM     17  C   UNL     1       6.650   6.233  16.590  0.00  0.00    +0.000 A 
ATOM     18  C   UNL     1       5.534   6.540  17.347  0.00  0.00    +0.000 A 
BRANCH  16  19
ATOM     19  O   UNL     1       7.806   4.881  15.044  0.00  0.00    +0.000 OA
ATOM     20  H   UNL     1       8.549   5.305  15.509  0.00  0.00    +0.000 HD
ENDBRANCH  16  19
BRANCH  17  21
ATOM     21  O   UNL     1       7.740   7.051  16.669  0.00  0.00    +0.000 OA
ATOM     22  H   UNL     1       8.280   6.821  15.888  0.00  0.00    +0.000 HD
ENDBRANCH  17  21
ENDBRANCH   2  13
TORSDOF 6
ENDMDL
MODEL 9
REMARK VINA RESULT:      -7.2      3.418      5.217
REMARK  Name = 
REMARK  6 active torsions:
REMARK  status: ('A' for Active; 'I' for Inactive)
REMARK    1  A    between atoms: C_2  and  C_3
REMARK    2  A    between atoms: C_2  and  C_11
REMARK    3  A    between atoms: C_6  and  O_7
REMARK    4  A    between atoms: C_8  and  O_9
REMARK    5  A    between atoms: C_14  and  O_15
REMARK    6  A    between atoms: C_16  and  O_17
REMARK                            x       y       z     vdW  Elec       q    Type
REMARK                         _______ _______ _______ _____ _____    ______ ____
ROOT
ATOM      1  O   UNL     1       4.219   7.069  17.147  0.00  0.00    +0.000 OA
ATOM      2  C   UNL     1       3.356   6.652  17.915  0.00  0.00    +0.000 C 
ENDROOT
BRANCH   2   3
ATOM      3  C   UNL     1       3.222   5.188  18.150  0.00  0.00    +0.000 A 
ATOM      4  C   UNL     1       2.073   4.522  17.702  0.00  0.00    +0.000 A 
ATOM      5  C   UNL     1       1.949   3.136  17.867  0.00  0.00    +0.000 A 
ATOM      6  C   UNL     1       2.981   2.432  18.483  0.00  0.00    +0.000 A 
ATOM      7  C   UNL     1       4.108   3.102  18.948  0.00  0.00    +0.000 A 
ATOM      8  C   UNL     1       4.229   4.473  18.806  0.00  0.00    +0.000 A 
BRANCH   6   9
ATOM      9  O   UNL     1       2.934   1.080  18.662  0.00  0.00    +0.000 OA
ATOM     10  H   UNL     1       2.031   0.839  18.943  0.00  0.00    +0.000 HD
ENDBRANCH   6   9
BRANCH   7  11
ATOM     11  O   UNL     1       5.122   2.415  19.549  0.00  0.00    +0.000 OA
ATOM     12  H   UNL     1       5.715   2.160  18.815  0.00  0.00    +0.000 HD
ENDBRANCH   7  11
ENDBRANCH   2   3
BRANCH   2  13
ATOM     13  C   UNL     1       2.454   7.613  18.604  0.00  0.00    +0.000 A 
ATOM     14  C   UNL     1       2.131   7.405  19.954  0.00  0.00    +0.000 A 
ATOM     15  C   UNL     1       1.328   8.328  20.635  0.00  0.00    +0.000 A 
ATOM     16  C   UNL     1       0.854   9.446  19.957  0.00  0.00    +0.000 A 
ATOM     17  C   UNL     1       1.158   9.635  18.613  0.00  0.00    +0.000 A 
ATOM     18  C   UNL     1       1.935   8.721  17.924  0.00  0.00    +0.000 A 
BRANCH  16  19
ATOM     19  O   UNL     1       0.078  10.393  20.565  0.00  0.00    +0.000 OA
ATOM     20  H   UNL     1      -0.541   9.940  21.164  0.00  0.00    +0.000 HD
ENDBRANCH  16  19
BRANCH  17  21
ATOM     21  O   UNL     1       0.699  10.735  17.948  0.00  0.00    +0.000 OA
ATOM     22  H   UNL     1       1.291  11.460  18.229  0.00  0.00    +0.000 HD
ENDBRANCH  17  21
ENDBRANCH   2  13
TORSDOF 6
ENDMDL
