MODEL 1
REMARK VINA RESULT:      -7.5      0.000      0.000
REMARK  Name = 
REMARK  9 active torsions:
REMARK  status: ('A' for Active; 'I' for Inactive)
REMARK    1  A    between atoms: C_1  and  O_2
REMARK    2  A    between atoms: O_2  and  C_3
REMARK    3  A    between atoms: C_7  and  C_8
REMARK    4  A    between atoms: C_8  and  C_9
REMARK    5  A    between atoms: C_9  and  C_10
REMARK    6  A    between atoms: C_12  and  O_13
REMARK    7  A    between atoms: C_14  and  O_15
REMARK    8  A    between atoms: C_16  and  O_17
REMARK    9  A    between atoms: O_17  and  C_18
REMARK                            x       y       z     vdW  Elec       q    Type
REMARK                         _______ _______ _______ _____ _____    ______ ____
ROOT
ATOM      1  C   UNL     1       4.945   6.313  17.608  0.00  0.00    +0.000 A 
ATOM      2  C   UNL     1       5.581   6.092  18.836  0.00  0.00    +0.000 A 
ATOM      3  C   UNL     1       6.757   5.349  18.869  0.00  0.00    +0.000 A 
ATOM      4  C   UNL     1       7.302   4.825  17.698  0.00  0.00    +0.000 A 
ATOM      5  C   UNL     1       6.696   5.046  16.459  0.00  0.00    +0.000 A 
ATOM      6  C   UNL     1       5.512   5.795  16.428  0.00  0.00    +0.000 A 
ENDROOT
BRANCH   3   7
ATOM      7  O   UNL     1       7.423   5.117  20.042  0.00  0.00    +0.000 OA
ATOM      8  H   UNL     1       6.879   4.525  20.589  0.00  0.00    +0.000 HD
ENDBRANCH   3   7
BRANCH   4   9
ATOM      9  O   UNL     1       8.454   4.083  17.789  0.00  0.00    +0.000 OA
ATOM     10  H   UNL     1       9.159   4.741  17.934  0.00  0.00    +0.000 HD
ENDBRANCH   4   9
BRANCH   5  11
ATOM     11  O   UNL     1       7.315   4.513  15.363  0.00  0.00    +0.000 OA
ATOM     12  C   UNL     1       6.503   4.206  14.238  0.00  0.00    +0.000 C 
ENDBRANCH   5  11
BRANCH   1  13
ATOM     13  C   UNL     1       3.677   7.133  17.535  0.00  0.00    +0.000 C 
BRANCH  13  14
ATOM     14  C   UNL     1       2.814   6.948  18.784  0.00  0.00    +0.000 C 
BRANCH  14  19
ATOM     15  C   UNL     1       1.329   3.695  20.113  0.00  0.00    +0.000 A 
ATOM     16  C   UNL     1       1.084   3.009  18.922  0.00  0.00    +0.000 A 
ATOM     17  C   UNL     1       1.382   3.592  17.691  0.00  0.00    +0.000 A 
ATOM     18  C   UNL     1       1.935   4.871  17.645  0.00  0.00    +0.000 A 
ATOM     19  C   UNL     1       2.186   5.576  18.828  0.00  0.00    +0.000 A 
ATOM     20  C   UNL     1       1.877   4.978  20.060  0.00  0.00    +0.000 A 
BRANCH  15  22
ATOM     21  C   UNL     1       2.090   2.491  22.012  0.00  0.00    +0.000 C 
ATOM     22  O   UNL     1       1.006   3.011  21.251  0.00  0.00    +0.000 OA
ENDBRANCH  15  22
ENDBRANCH  14  19
ENDBRANCH  13  14
ENDBRANCH   1  13
TORSDOF 7
ENDMDL
MODEL 2
REMARK VINA RESULT:      -7.0      1.240      1.781
REMARK  Name = 
REMARK  9 active torsions:
REMARK  status: ('A' for Active; 'I' for Inactive)
REMARK    1  A    between atoms: C_1  and  O_2
REMARK    2  A    between atoms: O_2  and  C_3
REMARK    3  A    between atoms: C_7  and  C_8
REMARK    4  A    between atoms: C_8  and  C_9
REMARK    5  A    between atoms: C_9  and  C_10
REMARK    6  A    between atoms: C_12  and  O_13
REMARK    7  A    between atoms: C_14  and  O_15
REMARK    8  A    between atoms: C_16  and  O_17
REMARK    9  A    between atoms: O_17  and  C_18
REMARK                            x       y       z     vdW  Elec       q    Type
REMARK                         _______ _______ _______ _____ _____    ______ ____
ROOT
ATOM      1  C   UNL     1       4.725   6.582  17.479  0.00  0.00    +0.000 A 
ATOM      2  C   UNL     1       5.508   6.106  18.537  0.00  0.00    +0.000 A 
ATOM      3  C   UNL     1       6.634   5.336  18.259  0.00  0.00    +0.000 A 
ATOM      4  C   UNL     1       6.982   5.034  16.944  0.00  0.00    +0.000 A 
ATOM      5  C   UNL     1       6.228   5.511  15.870  0.00  0.00    +0.000 A 
ATOM      6  C   UNL     1       5.096   6.288  16.152  0.00  0.00    +0.000 A 
ENDROOT
BRANCH   3   7
ATOM      7  O   UNL     1       7.438   4.859  19.258  0.00  0.00    +0.000 OA
ATOM      8  H   UNL     1       7.331   3.894  19.301  0.00  0.00    +0.000 HD
ENDBRANCH   3   7
BRANCH   4   9
ATOM      9  O   UNL     1       8.092   4.255  16.726  0.00  0.00    +0.000 OA
ATOM     10  H   UNL     1       7.801   3.349  16.936  0.00  0.00    +0.000 HD
ENDBRANCH   4   9
BRANCH   5  11
ATOM     11  O   UNL     1       6.660   5.185  14.615  0.00  0.00    +0.000 OA
ATOM     12  C   UNL     1       6.087   4.037  14.003  0.00  0.00    +0.000 C 
ENDBRANCH   5  11
BRANCH   1  13
ATOM     13  C   UNL     1       3.509   7.438  17.746  0.00  0.00    +0.000 C 
BRANCH  13  14
ATOM     14  C   UNL     1       2.220   6.614  17.704  0.00  0.00    +0.000 C 
BRANCH  14  19
ATOM     15  C   UNL     1       2.297   3.143  19.282  0.00  0.00    +0.000 A 
ATOM     16  C   UNL     1       2.181   3.463  20.635  0.00  0.00    +0.000 A 
ATOM     17  C   UNL     1       2.090   4.793  21.046  0.00  0.00    +0.000 A 
ATOM     18  C   UNL     1       2.111   5.815  20.098  0.00  0.00    +0.000 A 
ATOM     19  C   UNL     1       2.229   5.513  18.736  0.00  0.00    +0.000 A 
ATOM     20  C   UNL     1       2.323   4.171  18.338  0.00  0.00    +0.000 A 
BRANCH  15  22
ATOM     21  C   UNL     1       3.545   1.346  18.358  0.00  0.00    +0.000 C 
ATOM     22  O   UNL     1       2.365   1.805  19.008  0.00  0.00    +0.000 OA
ENDBRANCH  15  22
ENDBRANCH  14  19
ENDBRANCH  13  14
ENDBRANCH   1  13
TORSDOF 7
ENDMDL
MODEL 3
REMARK VINA RESULT:      -7.0      2.065      3.762
REMARK  Name = 
REMARK  9 active torsions:
REMARK  status: ('A' for Active; 'I' for Inactive)
REMARK    1  A    between atoms: C_1  and  O_2
REMARK    2  A    between atoms: O_2  and  C_3
REMARK    3  A    between atoms: C_7  and  C_8
REMARK    4  A    between atoms: C_8  and  C_9
REMARK    5  A    between atoms: C_9  and  C_10
REMARK    6  A    between atoms: C_12  and  O_13
REMARK    7  A    between atoms: C_14  and  O_15
REMARK    8  A    between atoms: C_16  and  O_17
REMARK    9  A    between atoms: O_17  and  C_18
REMARK                            x       y       z     vdW  Elec       q    Type
REMARK                         _______ _______ _______ _____ _____    ______ ____
ROOT
ATOM      1  C   UNL     1       5.180   3.749  16.495  0.00  0.00    +0.000 A 
ATOM      2  C   UNL     1       5.362   3.311  15.178  0.00  0.00    +0.000 A 
ATOM      3  C   UNL     1       6.303   3.945  14.373  0.00  0.00    +0.000 A 
ATOM      4  C   UNL     1       7.059   5.009  14.864  0.00  0.00    +0.000 A 
ATOM      5  C   UNL     1       6.909   5.453  16.179  0.00  0.00    +0.000 A 
ATOM      6  C   UNL     1       5.962   4.812  16.988  0.00  0.00    +0.000 A 
ENDROOT
BRANCH   3   7
ATOM      7  O   UNL     1       6.526   3.546  13.083  0.00  0.00    +0.000 OA
ATOM      8  H   UNL     1       5.884   3.997  12.509  0.00  0.00    +0.000 HD
ENDBRANCH   3   7
BRANCH   4   9
ATOM      9  O   UNL     1       7.960   5.611  14.021  0.00  0.00    +0.000 OA
ATOM     10  H   UNL     1       8.379   6.305  14.564  0.00  0.00    +0.000 HD
ENDBRANCH   4   9
BRANCH   5  11
ATOM     11  O   UNL     1       7.711   6.486  16.579  0.00  0.00    +0.000 OA
ATOM     12  C   UNL     1       7.104   7.537  17.318  0.00  0.00    +0.000 C 
ENDBRANCH   5  11
BRANCH   1  13
ATOM     13  C   UNL     1       4.181   3.068  17.402  0.00  0.00    +0.000 C 
BRANCH  13  14
ATOM     14  C   UNL     1       2.775   3.646  17.225  0.00  0.00    +0.000 C 
BRANCH  14  19
ATOM     15  C   UNL     1       2.086   6.363  19.812  0.00  0.00    +0.000 A 
ATOM     16  C   UNL     1       1.475   5.619  20.823  0.00  0.00    +0.000 A 
ATOM     17  C   UNL     1       1.272   4.247  20.672  0.00  0.00    +0.000 A 
ATOM     18  C   UNL     1       1.685   3.609  19.504  0.00  0.00    +0.000 A 
ATOM     19  C   UNL     1       2.297   4.338  18.478  0.00  0.00    +0.000 A 
ATOM     20  C   UNL     1       2.492   5.719  18.642  0.00  0.00    +0.000 A 
BRANCH  15  22
ATOM     21  C   UNL     1       1.388   8.240  21.086  0.00  0.00    +0.000 C 
ATOM     22  O   UNL     1       2.239   7.693  20.086  0.00  0.00    +0.000 OA
ENDBRANCH  15  22
ENDBRANCH  14  19
ENDBRANCH  13  14
ENDBRANCH   1  13
TORSDOF 7
ENDMDL
MODEL 4
REMARK VINA RESULT:      -7.0      2.968      4.202
REMARK  Name = 
REMARK  9 active torsions:
REMARK  status: ('A' for Active; 'I' for Inactive)
REMARK    1  A    between atoms: C_1  and  O_2
REMARK    2  A    between atoms: O_2  and  C_3
REMARK    3  A    between atoms: C_7  and  C_8
REMARK    4  A    between atoms: C_8  and  C_9
REMARK    5  A    between atoms: C_9  and  C_10
REMARK    6  A    between atoms: C_12  and  O_13
REMARK    7  A    between atoms: C_14  and  O_15
REMARK    8  A    between atoms: C_16  and  O_17
REMARK    9  A    between atoms: O_17  and  C_18
REMARK                            x       y       z     vdW  Elec       q    Type
REMARK                         _______ _______ _______ _____ _____    ______ ____
ROOT
ATOM      1  C   UNL     1       4.414   5.651  17.885  0.00  0.00    +0.000 A 
ATOM      2  C   UNL     1       5.252   5.723  19.005  0.00  0.00    +0.000 A 
ATOM      3  C   UNL     1       6.539   5.201  18.927  0.00  0.00    +0.000 A 
ATOM      4  C   UNL     1       6.997   4.607  17.752  0.00  0.00    +0.000 A 
ATOM      5  C   UNL     1       6.188   4.538  16.617  0.00  0.00    +0.000 A 
ATOM      6  C   UNL     1       4.892   5.065  16.696  0.00  0.00    +0.000 A 
ENDROOT
BRANCH   3   7
ATOM      7  O   UNL     1       7.400   5.260  19.990  0.00  0.00    +0.000 OA
ATOM      8  H   UNL     1       8.262   4.912  19.703  0.00  0.00    +0.000 HD
ENDBRANCH   3   7
BRANCH   4   9
ATOM      9  O   UNL     1       8.269   4.091  17.736  0.00  0.00    +0.000 OA
ATOM     10  H   UNL     1       8.406   3.744  18.637  0.00  0.00    +0.000 HD
ENDBRANCH   4   9
BRANCH   5  11
ATOM     11  O   UNL     1       6.731   3.960  15.503  0.00  0.00    +0.000 OA
ATOM     12  C   UNL     1       6.800   4.749  14.324  0.00  0.00    +0.000 C 
ENDBRANCH   5  11
BRANCH   1  13
ATOM     13  C   UNL     1       3.018   6.227  17.930  0.00  0.00    +0.000 C 
BRANCH  13  14
ATOM     14  C   UNL     1       3.032   7.750  17.787  0.00  0.00    +0.000 C 
BRANCH  14  19
ATOM     15  C   UNL     1       0.259  10.065  19.010  0.00  0.00    +0.000 A 
ATOM     16  C   UNL     1       0.143   9.662  20.341  0.00  0.00    +0.000 A 
ATOM     17  C   UNL     1       0.946   8.639  20.846  0.00  0.00    +0.000 A 
ATOM     18  C   UNL     1       1.876   8.014  20.017  0.00  0.00    +0.000 A 
ATOM     19  C   UNL     1       2.004   8.402  18.679  0.00  0.00    +0.000 A 
ATOM     20  C   UNL     1       1.188   9.431  18.183  0.00  0.00    +0.000 A 
BRANCH  15  22
ATOM     21  C   UNL     1      -1.825  10.715  18.075  0.00  0.00    +0.000 C 
ATOM     22  O   UNL     1      -0.573  11.086  18.641  0.00  0.00    +0.000 OA
ENDBRANCH  15  22
ENDBRANCH  14  19
ENDBRANCH  13  14
ENDBRANCH   1  13
TORSDOF 7
ENDMDL
MODEL 5
REMARK VINA RESULT:      -7.0      2.196      4.073
REMARK  Name = 
REMARK  9 active torsions:
REMARK  status: ('A' for Active; 'I' for Inactive)
REMARK    1  A    between atoms: C_1  and  O_2
REMARK    2  A    between atoms: O_2  and  C_3
REMARK    3  A    between atoms: C_7  and  C_8
REMARK    4  A    between atoms: C_8  and  C_9
REMARK    5  A    between atoms: C_9  and  C_10
REMARK    6  A    between atoms: C_12  and  O_13
REMARK    7  A    between atoms: C_14  and  O_15
REMARK    8  A    between atoms: C_16  and  O_17
REMARK    9  A    between atoms: O_17  and  C_18
REMARK                            x       y       z     vdW  Elec       q    Type
REMARK                         _______ _______ _______ _____ _____    ______ ____
ROOT
ATOM      1  C   UNL     1       4.950   3.832  16.650  0.00  0.00    +0.000 A 
ATOM      2  C   UNL     1       5.221   3.355  15.362  0.00  0.00    +0.000 A 
ATOM      3  C   UNL     1       6.219   3.961  14.607  0.00  0.00    +0.000 A 
ATOM      4  C   UNL     1       6.946   5.036  15.118  0.00  0.00    +0.000 A 
ATOM      5  C   UNL     1       6.707   5.519  16.406  0.00  0.00    +0.000 A 
ATOM      6  C   UNL     1       5.702   4.906  17.166  0.00  0.00    +0.000 A 
ENDROOT
BRANCH   3   7
ATOM      7  O   UNL     1       6.530   3.523  13.348  0.00  0.00    +0.000 OA
ATOM      8  H   UNL     1       5.731   3.129  12.957  0.00  0.00    +0.000 HD
ENDBRANCH   3   7
BRANCH   4   9
ATOM      9  O   UNL     1       7.907   5.610  14.324  0.00  0.00    +0.000 OA
ATOM     10  H   UNL     1       7.787   6.570  14.447  0.00  0.00    +0.000 HD
ENDBRANCH   4   9
BRANCH   5  11
ATOM     11  O   UNL     1       7.485   6.560  16.831  0.00  0.00    +0.000 OA
ATOM     12  C   UNL     1       7.671   6.708  18.232  0.00  0.00    +0.000 C 
ENDBRANCH   5  11
BRANCH   1  13
ATOM     13  C   UNL     1       3.887   3.182  17.504  0.00  0.00    +0.000 C 
BRANCH  13  14
ATOM     14  C   UNL     1       2.531   3.871  17.337  0.00  0.00    +0.000 C 
BRANCH  14  19
ATOM     15  C   UNL     1       2.212   7.233  19.108  0.00  0.00    +0.000 A 
ATOM     16  C   UNL     1       1.924   6.822  20.410  0.00  0.00    +0.000 A 
ATOM     17  C   UNL     1       1.819   5.466  20.721  0.00  0.00    +0.000 A 
ATOM     18  C   UNL     1       2.007   4.510  19.724  0.00  0.00    +0.000 A 
ATOM     19  C   UNL     1       2.294   4.903  18.412  0.00  0.00    +0.000 A 
ATOM     20  C   UNL     1       2.394   6.271  18.113  0.00  0.00    +0.000 A 
BRANCH  15  22
ATOM     21  C   UNL     1       2.016   9.084  17.634  0.00  0.00    +0.000 C 
ATOM     22  O   UNL     1       2.302   8.587  18.936  0.00  0.00    +0.000 OA
ENDBRANCH  15  22
ENDBRANCH  14  19
ENDBRANCH  13  14
ENDBRANCH   1  13
TORSDOF 7
ENDMDL
MODEL 6
REMARK VINA RESULT:      -7.0      2.074      3.277
REMARK  Name = 
REMARK  9 active torsions:
REMARK  status: ('A' for Active; 'I' for Inactive)
REMARK    1  A    between atoms: C_1  and  O_2
REMARK    2  A    between atoms: O_2  and  C_3
REMARK    3  A    between atoms: C_7  and  C_8
REMARK    4  A    between atoms: C_8  and  C_9
REMARK    5  A    between atoms: C_9  and  C_10
REMARK    6  A    between atoms: C_12  and  O_13
REMARK    7  A    between atoms: C_14  and  O_15
REMARK    8  A    between atoms: C_16  and  O_17
REMARK    9  A    between atoms: O_17  and  C_18
REMARK                            x       y       z     vdW  Elec       q    Type
REMARK                         _______ _______ _______ _____ _____    ______ ____
ROOT
ATOM      1  C   UNL     1       5.145   3.796  16.382  0.00  0.00    +0.000 A 
ATOM      2  C   UNL     1       5.929   4.831  16.905  0.00  0.00    +0.000 A 
ATOM      3  C   UNL     1       6.884   5.438  16.095  0.00  0.00    +0.000 A 
ATOM      4  C   UNL     1       7.068   5.022  14.777  0.00  0.00    +0.000 A 
ATOM      5  C   UNL     1       6.287   4.003  14.227  0.00  0.00    +0.000 A 
ATOM      6  C   UNL     1       5.325   3.395  15.043  0.00  0.00    +0.000 A 
ENDROOT
BRANCH   3   7
ATOM      7  O   UNL     1       7.666   6.462  16.555  0.00  0.00    +0.000 OA
ATOM      8  H   UNL     1       8.572   6.126  16.671  0.00  0.00    +0.000 HD
ENDBRANCH   3   7
BRANCH   4   9
ATOM      9  O   UNL     1       8.037   5.641  14.027  0.00  0.00    +0.000 OA
ATOM     10  H   UNL     1       7.884   6.594  14.164  0.00  0.00    +0.000 HD
ENDBRANCH   4   9
BRANCH   5  11
ATOM     11  O   UNL     1       6.522   3.680  12.919  0.00  0.00    +0.000 OA
ATOM     12  C   UNL     1       5.443   3.127  12.178  0.00  0.00    +0.000 C 
ENDBRANCH   5  11
BRANCH   1  13
ATOM     13  C   UNL     1       4.084   3.131  17.228  0.00  0.00    +0.000 C 
BRANCH  13  14
ATOM     14  C   UNL     1       2.726   3.819  17.073  0.00  0.00    +0.000 C 
BRANCH  14  19
ATOM     15  C   UNL     1       2.071   6.432  19.773  0.00  0.00    +0.000 A 
ATOM     16  C   UNL     1       1.508   5.642  20.777  0.00  0.00    +0.000 A 
ATOM     17  C   UNL     1       1.326   4.272  20.586  0.00  0.00    +0.000 A 
ATOM     18  C   UNL     1       1.712   3.682  19.383  0.00  0.00    +0.000 A 
ATOM     19  C   UNL     1       2.276   4.459  18.364  0.00  0.00    +0.000 A 
ATOM     20  C   UNL     1       2.451   5.836  18.569  0.00  0.00    +0.000 A 
BRANCH  15  22
ATOM     21  C   UNL     1       1.251   8.298  20.990  0.00  0.00    +0.000 C 
ATOM     22  O   UNL     1       2.208   7.755  20.088  0.00  0.00    +0.000 OA
ENDBRANCH  15  22
ENDBRANCH  14  19
ENDBRANCH  13  14
ENDBRANCH   1  13
TORSDOF 7
ENDMDL
MODEL 7
REMARK VINA RESULT:      -6.9      2.346      3.874
REMARK  Name = 
REMARK  9 active torsions:
REMARK  status: ('A' for Active; 'I' for Inactive)
REMARK    1  A    between atoms: C_1  and  O_2
REMARK    2  A    between atoms: O_2  and  C_3
REMARK    3  A    between atoms: C_7  and  C_8
REMARK    4  A    between atoms: C_8  and  C_9
REMARK    5  A    between atoms: C_9  and  C_10
REMARK    6  A    between atoms: C_12  and  O_13
REMARK    7  A    between atoms: C_14  and  O_15
REMARK    8  A    between atoms: C_16  and  O_17
REMARK    9  A    between atoms: O_17  and  C_18
REMARK                            x       y       z     vdW  Elec       q    Type
REMARK                         _______ _______ _______ _____ _____    ______ ____
ROOT
ATOM      1  C   UNL     1       5.177   4.702  17.575  0.00  0.00    +0.000 A 
ATOM      2  C   UNL     1       5.203   3.866  16.452  0.00  0.00    +0.000 A 
ATOM      3  C   UNL     1       6.092   4.144  15.418  0.00  0.00    +0.000 A 
ATOM      4  C   UNL     1       6.947   5.242  15.489  0.00  0.00    +0.000 A 
ATOM      5  C   UNL     1       6.952   6.081  16.605  0.00  0.00    +0.000 A 
ATOM      6  C   UNL     1       6.057   5.799  17.647  0.00  0.00    +0.000 A 
ENDROOT
BRANCH   3   7
ATOM      7  O   UNL     1       6.165   3.349  14.306  0.00  0.00    +0.000 OA
ATOM      8  H   UNL     1       6.655   2.542  14.540  0.00  0.00    +0.000 HD
ENDBRANCH   3   7
BRANCH   4   9
ATOM      9  O   UNL     1       7.791   5.481  14.432  0.00  0.00    +0.000 OA
ATOM     10  H   UNL     1       7.490   4.871  13.734  0.00  0.00    +0.000 HD
ENDBRANCH   4   9
BRANCH   5  11
ATOM     11  O   UNL     1       7.842   7.119  16.597  0.00  0.00    +0.000 OA
ATOM     12  C   UNL     1       7.808   8.019  17.696  0.00  0.00    +0.000 C 
ENDBRANCH   5  11
BRANCH   1  13
ATOM     13  C   UNL     1       4.238   4.417  18.725  0.00  0.00    +0.000 C 
BRANCH  13  14
ATOM     14  C   UNL     1       2.788   4.743  18.363  0.00  0.00    +0.000 C 
BRANCH  14  19
ATOM     15  C   UNL     1       1.680   7.787  20.377  0.00  0.00    +0.000 A 
ATOM     16  C   UNL     1       1.701   8.778  19.395  0.00  0.00    +0.000 A 
ATOM     17  C   UNL     1       2.083   8.476  18.088  0.00  0.00    +0.000 A 
ATOM     18  C   UNL     1       2.443   7.171  17.755  0.00  0.00    +0.000 A 
ATOM     19  C   UNL     1       2.430   6.164  18.726  0.00  0.00    +0.000 A 
ATOM     20  C   UNL     1       2.047   6.483  20.039  0.00  0.00    +0.000 A 
BRANCH  15  22
ATOM     21  C   UNL     1       1.016   9.598  21.761  0.00  0.00    +0.000 C 
ATOM     22  O   UNL     1       1.276   8.207  21.614  0.00  0.00    +0.000 OA
ENDBRANCH  15  22
ENDBRANCH  14  19
ENDBRANCH  13  14
ENDBRANCH   1  13
TORSDOF 7
ENDMDL
MODEL 8
REMARK VINA RESULT:      -6.9      2.696      3.946
REMARK  Name = 
REMARK  9 active torsions:
REMARK  status: ('A' for Active; 'I' for Inactive)
REMARK    1  A    between atoms: C_1  and  O_2
REMARK    2  A    between atoms: O_2  and  C_3
REMARK    3  A    between atoms: C_7  and  C_8
REMARK    4  A    between atoms: C_8  and  C_9
REMARK    5  A    between atoms: C_9  and  C_10
REMARK    6  A    between atoms: C_12  and  O_13
REMARK    7  A    between atoms: C_14  and  O_15
REMARK    8  A    between atoms: C_16  and  O_17
REMARK    9  A    between atoms: O_17  and  C_18
REMARK                            x       y       z     vdW  Elec       q    Type
REMARK                         _______ _______ _______ _____ _____    ______ ____
ROOT
ATOM      1  C   UNL     1       4.318   5.246  18.030  0.00  0.00    +0.000 A 
ATOM      2  C   UNL     1       5.172   5.385  19.131  0.00  0.00    +0.000 A 
ATOM      3  C   UNL     1       6.518   5.058  18.994  0.00  0.00    +0.000 A 
ATOM      4  C   UNL     1       7.017   4.593  17.778  0.00  0.00    +0.000 A 
ATOM      5  C   UNL     1       6.189   4.462  16.661  0.00  0.00    +0.000 A 
ATOM      6  C   UNL     1       4.835   4.793  16.801  0.00  0.00    +0.000 A 
ENDROOT
BRANCH   3   7
ATOM      7  O   UNL     1       7.395   5.189  20.036  0.00  0.00    +0.000 OA
ATOM      8  H   UNL     1       7.360   6.109  20.350  0.00  0.00    +0.000 HD
ENDBRANCH   3   7
BRANCH   4   9
ATOM      9  O   UNL     1       8.348   4.266  17.702  0.00  0.00    +0.000 OA
ATOM     10  H   UNL     1       8.359   3.355  17.356  0.00  0.00    +0.000 HD
ENDBRANCH   4   9
BRANCH   5  11
ATOM     11  O   UNL     1       6.772   4.022  15.506  0.00  0.00    +0.000 OA
ATOM     12  C   UNL     1       5.976   4.024  14.329  0.00  0.00    +0.000 C 
ENDBRANCH   5  11
BRANCH   1  13
ATOM     13  C   UNL     1       2.855   5.613  18.140  0.00  0.00    +0.000 C 
BRANCH  13  14
ATOM     14  C   UNL     1       2.543   6.289  19.477  0.00  0.00    +0.000 C 
BRANCH  14  19
ATOM     15  C   UNL     1       0.912   9.669  20.160  0.00  0.00    +0.000 A 
ATOM     16  C   UNL     1       1.045  10.285  18.915  0.00  0.00    +0.000 A 
ATOM     17  C   UNL     1       1.669   9.623  17.857  0.00  0.00    +0.000 A 
ATOM     18  C   UNL     1       2.162   8.332  18.041  0.00  0.00    +0.000 A 
ATOM     19  C   UNL     1       2.040   7.699  19.283  0.00  0.00    +0.000 A 
ATOM     20  C   UNL     1       1.413   8.378  20.339  0.00  0.00    +0.000 A 
BRANCH  15  22
ATOM     21  C   UNL     1       0.240  11.822  20.898  0.00  0.00    +0.000 C 
ATOM     22  O   UNL     1       0.271  10.416  21.109  0.00  0.00    +0.000 OA
ENDBRANCH  15  22
ENDBRANCH  14  19
ENDBRANCH  13  14
ENDBRANCH   1  13
TORSDOF 7
ENDMDL
MODEL 9
REMARK VINA RESULT:      -6.9      3.417      4.479
REMARK  Name = 
REMARK  9 active torsions:
REMARK  status: ('A' for Active; 'I' for Inactive)
REMARK    1  A    between atoms: C_1  and  O_2
REMARK    2  A    between atoms: O_2  and  C_3
REMARK    3  A    between atoms: C_7  and  C_8
REMARK    4  A    between atoms: C_8  and  C_9
REMARK    5  A    between atoms: C_9  and  C_10
REMARK    6  A    between atoms: C_12  and  O_13
REMARK    7  A    between atoms: C_14  and  O_15
REMARK    8  A    between atoms: C_16  and  O_17
REMARK    9  A    between atoms: O_17  and  C_18
REMARK                            x       y       z     vdW  Elec       q    Type
REMARK                         _______ _______ _______ _____ _____    ______ ____
ROOT
ATOM      1  C   UNL     1       3.896   6.208  18.167  0.00  0.00    +0.000 A 
ATOM      2  C   UNL     1       4.047   4.928  18.713  0.00  0.00    +0.000 A 
ATOM      3  C   UNL     1       5.286   4.298  18.640  0.00  0.00    +0.000 A 
ATOM      4  C   UNL     1       6.369   4.926  18.028  0.00  0.00    +0.000 A 
ATOM      5  C   UNL     1       6.249   6.209  17.491  0.00  0.00    +0.000 A 
ATOM      6  C   UNL     1       5.001   6.843  17.567  0.00  0.00    +0.000 A 
ENDROOT
BRANCH   3   7
ATOM      7  O   UNL     1       5.487   3.052  19.170  0.00  0.00    +0.000 OA
ATOM      8  H   UNL     1       4.794   2.460  18.829  0.00  0.00    +0.000 HD
ENDBRANCH   3   7
BRANCH   4   9
ATOM      9  O   UNL     1       7.564   4.252  17.966  0.00  0.00    +0.000 OA
ATOM     10  H   UNL     1       8.214   4.928  17.698  0.00  0.00    +0.000 HD
ENDBRANCH   4   9
BRANCH   5  11
ATOM     11  O   UNL     1       7.371   6.755  16.933  0.00  0.00    +0.000 OA
ATOM     12  C   UNL     1       7.863   7.962  17.499  0.00  0.00    +0.000 C 
ENDBRANCH   5  11
BRANCH   1  13
ATOM     13  C   UNL     1       2.570   6.928  18.249  0.00  0.00    +0.000 C 
BRANCH  13  14
ATOM     14  C   UNL     1       2.043   6.976  19.684  0.00  0.00    +0.000 C 
BRANCH  14  19
ATOM     15  C   UNL     1       0.673   9.910  21.701  0.00  0.00    +0.000 A 
ATOM     16  C   UNL     1       0.476  10.856  20.694  0.00  0.00    +0.000 A 
ATOM     17  C   UNL     1       0.794  10.560  19.368  0.00  0.00    +0.000 A 
ATOM     18  C   UNL     1       1.309   9.306  19.041  0.00  0.00    +0.000 A 
ATOM     19  C   UNL     1       1.516   8.346  20.038  0.00  0.00    +0.000 A 
ATOM     20  C   UNL     1       1.195   8.658  21.368  0.00  0.00    +0.000 A 
BRANCH  15  22
ATOM     21  C   UNL     1      -1.067  10.607  23.157  0.00  0.00    +0.000 C 
ATOM     22  O   UNL     1       0.311  10.317  22.955  0.00  0.00    +0.000 OA
ENDBRANCH  15  22
ENDBRANCH  14  19
ENDBRANCH  13  14
ENDBRANCH   1  13
TORSDOF 7
ENDMDL
