MODEL 1
REMARK VINA RESULT:      -7.5      0.000      0.000
REMARK  Name = 
REMARK  4 active torsions:
REMARK  status: ('A' for Active; 'I' for Inactive)
REMARK    1  A    between atoms: C_1  and  C_10
REMARK    2  A    between atoms: N_2  and  N_3
REMARK    3  A    between atoms: C_17  and  C_18
REMARK    4  A    between atoms: N_19  and  N_20
REMARK                            x       y       z     vdW  Elec       q    Type
REMARK                         _______ _______ _______ _____ _____    ______ ____
ROOT
ATOM      1  C   UNL     1      -1.856  13.003  19.991  0.00  0.00    +0.000 A 
ATOM      2  C   UNL     1      -0.435  13.051  20.169  0.00  0.00    +0.000 A 
ATOM      3  C   UNL     1       0.224  13.964  21.041  0.00  0.00    +0.000 A 
ATOM      4  C   UNL     1       1.610  14.046  21.159  0.00  0.00    +0.000 A 
ATOM      5  C   UNL     1       2.398  13.204  20.409  0.00  0.00    +0.000 A 
ATOM      6  C   UNL     1       1.785  12.273  19.573  0.00  0.00    +0.000 A 
ATOM      7  C   UNL     1       0.372  12.133  19.452  0.00  0.00    +0.000 A 
ATOM      8  C   UNL     1      -0.265  11.136  18.644  0.00  0.00    +0.000 A 
ATOM      9  C   UNL     1      -1.684  11.066  18.494  0.00  0.00    +0.000 A 
ATOM     10  C   UNL     1      -2.342  10.076  17.713  0.00  0.00    +0.000 A 
ATOM     11  C   UNL     1      -3.728  10.036  17.556  0.00  0.00    +0.000 A 
ATOM     12  C   UNL     1      -4.508  10.989  18.180  0.00  0.00    +0.000 A 
ATOM     13  C   UNL     1      -3.900  11.965  18.969  0.00  0.00    +0.000 A 
ATOM     14  C   UNL     1      -2.491  12.025  19.166  0.00  0.00    +0.000 A 
ENDROOT
BRANCH   1  15
ATOM     15  C   UNL     1      -2.716  14.010  20.697  0.00  0.00    +0.000 C 
ATOM     16  N   UNL     1      -3.026  13.873  21.947  0.00  0.00    +0.000 NA
BRANCH  16  17
ATOM     17  N   UNL     1      -3.898  14.782  22.471  0.00  0.00    +0.000 N 
ATOM     18  C   UNL     1      -5.085  14.274  23.050  0.00  0.00    +0.000 A 
ATOM     19  C   UNL     1      -5.100  13.017  23.655  0.00  0.00    +0.000 A 
ATOM     20  C   UNL     1      -6.281  12.530  24.214  0.00  0.00    +0.000 A 
ATOM     21  C   UNL     1      -7.423  13.317  24.173  0.00  0.00    +0.000 A 
ATOM     22  C   UNL     1      -7.325  14.557  23.563  0.00  0.00    +0.000 A 
ATOM     23  N   UNL     1      -6.191  15.053  23.007  0.00  0.00    +0.000 NA
ATOM     24  H   UNL     1      -4.140  15.629  21.956  0.00  0.00    +0.000 HD
ENDBRANCH  16  17
ENDBRANCH   1  15
BRANCH   8  25
ATOM     25  C   UNL     1       0.579  10.135  17.910  0.00  0.00    +0.000 C 
ATOM     26  N   UNL     1       1.283   9.251  18.544  0.00  0.00    +0.000 NA
BRANCH  26  27
ATOM     27  N   UNL     1       2.101   8.458  17.795  0.00  0.00    +0.000 N 
ATOM     28  C   UNL     1       2.650   7.322  18.438  0.00  0.00    +0.000 A 
ATOM     29  C   UNL     1       1.949   6.676  19.457  0.00  0.00    +0.000 A 
ATOM     30  C   UNL     1       2.502   5.559  20.081  0.00  0.00    +0.000 A 
ATOM     31  C   UNL     1       3.742   5.102  19.665  0.00  0.00    +0.000 A 
ATOM     32  C   UNL     1       4.371   5.786  18.637  0.00  0.00    +0.000 A 
ATOM     33  N   UNL     1       3.857   6.878  18.019  0.00  0.00    +0.000 NA
ATOM     34  H   UNL     1       2.827   8.865  17.206  0.00  0.00    +0.000 HD
ENDBRANCH  26  27
ENDBRANCH   8  25
TORSDOF 4
ENDMDL
MODEL 2
REMARK VINA RESULT:      -7.5      1.244      1.283
REMARK  Name = 
REMARK  4 active torsions:
REMARK  status: ('A' for Active; 'I' for Inactive)
REMARK    1  A    between atoms: C_1  and  C_10
REMARK    2  A    between atoms: N_2  and  N_3
REMARK    3  A    between atoms: C_17  and  C_18
REMARK    4  A    between atoms: N_19  and  N_20
REMARK                            x       y       z     vdW  Elec       q    Type
REMARK                         _______ _______ _______ _____ _____    ______ ____
ROOT
ATOM      1  C   UNL     1      -1.524  12.781  19.921  0.00  0.00    +0.000 A 
ATOM      2  C   UNL     1      -0.138  13.010  20.203  0.00  0.00    +0.000 A 
ATOM      3  C   UNL     1       0.331  13.946  21.169  0.00  0.00    +0.000 A 
ATOM      4  C   UNL     1       1.681  14.208  21.390  0.00  0.00    +0.000 A 
ATOM      5  C   UNL     1       2.625  13.530  20.655  0.00  0.00    +0.000 A 
ATOM      6  C   UNL     1       2.203  12.581  19.726  0.00  0.00    +0.000 A 
ATOM      7  C   UNL     1       0.834  12.258  19.497  0.00  0.00    +0.000 A 
ATOM      8  C   UNL     1       0.395  11.238  18.591  0.00  0.00    +0.000 A 
ATOM      9  C   UNL     1      -0.987  10.986  18.337  0.00  0.00    +0.000 A 
ATOM     10  C   UNL     1      -1.449   9.967  17.457  0.00  0.00    +0.000 A 
ATOM     11  C   UNL     1      -2.803   9.750  17.199  0.00  0.00    +0.000 A 
ATOM     12  C   UNL     1      -3.747  10.546  17.816  0.00  0.00    +0.000 A 
ATOM     13  C   UNL     1      -3.333  11.543  18.699  0.00  0.00    +0.000 A 
ATOM     14  C   UNL     1      -1.962  11.781  19.000  0.00  0.00    +0.000 A 
ENDROOT
BRANCH   1  15
ATOM     15  C   UNL     1      -2.559  13.614  20.617  0.00  0.00    +0.000 C 
ATOM     16  N   UNL     1      -3.044  13.266  21.767  0.00  0.00    +0.000 NA
BRANCH  16  17
ATOM     17  N   UNL     1      -4.055  14.031  22.269  0.00  0.00    +0.000 N 
ATOM     18  C   UNL     1      -5.358  13.772  21.783  0.00  0.00    +0.000 A 
ATOM     19  C   UNL     1      -5.726  12.487  21.381  0.00  0.00    +0.000 A 
ATOM     20  C   UNL     1      -7.013  12.253  20.898  0.00  0.00    +0.000 A 
ATOM     21  C   UNL     1      -7.916  13.305  20.841  0.00  0.00    +0.000 A 
ATOM     22  C   UNL     1      -7.478  14.548  21.267  0.00  0.00    +0.000 A 
ATOM     23  N   UNL     1      -6.231  14.805  21.736  0.00  0.00    +0.000 NA
ATOM     24  H   UNL     1      -3.950  15.042  22.356  0.00  0.00    +0.000 HD
ENDBRANCH  16  17
ENDBRANCH   1  15
BRANCH   8  25
ATOM     25  C   UNL     1       1.417  10.410  17.867  0.00  0.00    +0.000 C 
ATOM     26  N   UNL     1       1.806   9.263  18.327  0.00  0.00    +0.000 NA
BRANCH  26  27
ATOM     27  N   UNL     1       2.816   8.638  17.657  0.00  0.00    +0.000 N 
ATOM     28  C   UNL     1       3.031   7.272  17.960  0.00  0.00    +0.000 A 
ATOM     29  C   UNL     1       1.969   6.455  18.350  0.00  0.00    +0.000 A 
ATOM     30  C   UNL     1       2.196   5.113  18.646  0.00  0.00    +0.000 A 
ATOM     31  C   UNL     1       3.482   4.608  18.533  0.00  0.00    +0.000 A 
ATOM     32  C   UNL     1       4.482   5.476  18.125  0.00  0.00    +0.000 A 
ATOM     33  N   UNL     1       4.288   6.786  17.838  0.00  0.00    +0.000 NA
ATOM     34  H   UNL     1       3.728   9.082  17.552  0.00  0.00    +0.000 HD
ENDBRANCH  26  27
ENDBRANCH   8  25
TORSDOF 4
ENDMDL
MODEL 3
REMARK VINA RESULT:      -7.5      1.004      3.459
REMARK  Name = 
REMARK  4 active torsions:
REMARK  status: ('A' for Active; 'I' for Inactive)
REMARK    1  A    between atoms: C_1  and  C_10
REMARK    2  A    between atoms: N_2  and  N_3
REMARK    3  A    between atoms: C_17  and  C_18
REMARK    4  A    between atoms: N_19  and  N_20
REMARK                            x       y       z     vdW  Elec       q    Type
REMARK                         _______ _______ _______ _____ _____    ______ ____
ROOT
ATOM      1  C   UNL     1      -1.618  12.793  19.918  0.00  0.00    +0.000 A 
ATOM      2  C   UNL     1      -2.151  11.814  19.018  0.00  0.00    +0.000 A 
ATOM      3  C   UNL     1      -3.540  11.665  18.740  0.00  0.00    +0.000 A 
ATOM      4  C   UNL     1      -4.053  10.669  17.913  0.00  0.00    +0.000 A 
ATOM      5  C   UNL     1      -3.189   9.779  17.318  0.00  0.00    +0.000 A 
ATOM      6  C   UNL     1      -1.820   9.917  17.540  0.00  0.00    +0.000 A 
ATOM      7  C   UNL     1      -1.253  10.945  18.348  0.00  0.00    +0.000 A 
ATOM      8  C   UNL     1       0.155  11.133  18.529  0.00  0.00    +0.000 A 
ATOM      9  C   UNL     1       0.687  12.132  19.399  0.00  0.00    +0.000 A 
ATOM     10  C   UNL     1       2.081  12.352  19.581  0.00  0.00    +0.000 A 
ATOM     11  C   UNL     1       2.586  13.316  20.455  0.00  0.00    +0.000 A 
ATOM     12  C   UNL     1       1.709  14.100  21.179  0.00  0.00    +0.000 A 
ATOM     13  C   UNL     1       0.335  13.925  21.013  0.00  0.00    +0.000 A 
ATOM     14  C   UNL     1      -0.214  12.965  20.118  0.00  0.00    +0.000 A 
ENDROOT
BRANCH   1  15
ATOM     15  C   UNL     1      -2.562  13.676  20.680  0.00  0.00    +0.000 C 
ATOM     16  N   UNL     1      -3.008  13.338  21.848  0.00  0.00    +0.000 NA
BRANCH  16  17
ATOM     17  N   UNL     1      -3.942  14.155  22.414  0.00  0.00    +0.000 N 
ATOM     18  C   UNL     1      -5.283  13.984  21.996  0.00  0.00    +0.000 A 
ATOM     19  C   UNL     1      -5.750  12.730  21.598  0.00  0.00    +0.000 A 
ATOM     20  C   UNL     1      -7.073  12.583  21.183  0.00  0.00    +0.000 A 
ATOM     21  C   UNL     1      -7.911  13.689  21.189  0.00  0.00    +0.000 A 
ATOM     22  C   UNL     1      -7.375  14.896  21.606  0.00  0.00    +0.000 A 
ATOM     23  N   UNL     1      -6.091  15.068  22.010  0.00  0.00    +0.000 NA
ATOM     24  H   UNL     1      -3.770  15.156  22.508  0.00  0.00    +0.000 HD
ENDBRANCH  16  17
ENDBRANCH   1  15
BRANCH   8  25
ATOM     25  C   UNL     1       1.115  10.243  17.795  0.00  0.00    +0.000 C 
ATOM     26  N   UNL     1       1.500   9.109  18.291  0.00  0.00    +0.000 NA
BRANCH  26  27
ATOM     27  N   UNL     1       2.456   8.424  17.601  0.00  0.00    +0.000 N 
ATOM     28  C   UNL     1       2.987   7.269  18.226  0.00  0.00    +0.000 A 
ATOM     29  C   UNL     1       2.204   6.506  19.092  0.00  0.00    +0.000 A 
ATOM     30  C   UNL     1       2.740   5.373  19.700  0.00  0.00    +0.000 A 
ATOM     31  C   UNL     1       4.050   5.018  19.420  0.00  0.00    +0.000 A 
ATOM     32  C   UNL     1       4.762   5.816  18.539  0.00  0.00    +0.000 A 
ATOM     33  N   UNL     1       4.264   6.925  17.940  0.00  0.00    +0.000 NA
ATOM     34  H   UNL     1       3.224   8.915  17.146  0.00  0.00    +0.000 HD
ENDBRANCH  26  27
ENDBRANCH   8  25
TORSDOF 4
ENDMDL
MODEL 4
REMARK VINA RESULT:      -7.4      1.657      9.412
REMARK  Name = 
REMARK  4 active torsions:
REMARK  status: ('A' for Active; 'I' for Inactive)
REMARK    1  A    between atoms: C_1  and  C_10
REMARK    2  A    between atoms: N_2  and  N_3
REMARK    3  A    between atoms: C_17  and  C_18
REMARK    4  A    between atoms: N_19  and  N_20
REMARK                            x       y       z     vdW  Elec       q    Type
REMARK                         _______ _______ _______ _____ _____    ______ ____
ROOT
ATOM      1  C   UNL     1      -0.761  10.011  18.212  0.00  0.00    +0.000 A 
ATOM      2  C   UNL     1      -1.889  10.305  17.379  0.00  0.00    +0.000 A 
ATOM      3  C   UNL     1      -2.112   9.708  16.105  0.00  0.00    +0.000 A 
ATOM      4  C   UNL     1      -3.177  10.048  15.275  0.00  0.00    +0.000 A 
ATOM      5  C   UNL     1      -4.076  11.002  15.693  0.00  0.00    +0.000 A 
ATOM      6  C   UNL     1      -3.909  11.581  16.949  0.00  0.00    +0.000 A 
ATOM      7  C   UNL     1      -2.855  11.233  17.843  0.00  0.00    +0.000 A 
ATOM      8  C   UNL     1      -2.713  11.777  19.161  0.00  0.00    +0.000 A 
ATOM      9  C   UNL     1      -1.607  11.456  20.005  0.00  0.00    +0.000 A 
ATOM     10  C   UNL     1      -1.454  11.967  21.324  0.00  0.00    +0.000 A 
ATOM     11  C   UNL     1      -0.354  11.664  22.128  0.00  0.00    +0.000 A 
ATOM     12  C   UNL     1       0.634  10.833  21.639  0.00  0.00    +0.000 A 
ATOM     13  C   UNL     1       0.510  10.299  20.356  0.00  0.00    +0.000 A 
ATOM     14  C   UNL     1      -0.607  10.571  19.517  0.00  0.00    +0.000 A 
ENDROOT
BRANCH   1  15
ATOM     15  C   UNL     1       0.298   9.078  17.705  0.00  0.00    +0.000 C 
ATOM     16  N   UNL     1       1.553   9.282  17.956  0.00  0.00    +0.000 NA
BRANCH  16  17
ATOM     17  N   UNL     1       2.448   8.440  17.364  0.00  0.00    +0.000 N 
ATOM     18  C   UNL     1       2.921   7.357  18.141  0.00  0.00    +0.000 A 
ATOM     19  C   UNL     1       2.113   6.775  19.119  0.00  0.00    +0.000 A 
ATOM     20  C   UNL     1       2.600   5.712  19.879  0.00  0.00    +0.000 A 
ATOM     21  C   UNL     1       3.882   5.238  19.636  0.00  0.00    +0.000 A 
ATOM     22  C   UNL     1       4.618   5.862  18.643  0.00  0.00    +0.000 A 
ATOM     23  N   UNL     1       4.171   6.901  17.892  0.00  0.00    +0.000 NA
ATOM     24  H   UNL     1       3.235   8.808  16.830  0.00  0.00    +0.000 HD
ENDBRANCH  16  17
ENDBRANCH   1  15
BRANCH   8  25
ATOM     25  C   UNL     1      -3.751  12.732  19.677  0.00  0.00    +0.000 C 
ATOM     26  N   UNL     1      -4.938  12.327  20.004  0.00  0.00    +0.000 NA
BRANCH  26  27
ATOM     27  N   UNL     1      -5.842  13.284  20.357  0.00  0.00    +0.000 N 
ATOM     28  C   UNL     1      -6.270  13.289  21.707  0.00  0.00    +0.000 A 
ATOM     29  C   UNL     1      -5.417  12.860  22.724  0.00  0.00    +0.000 A 
ATOM     30  C   UNL     1      -5.852  12.870  24.047  0.00  0.00    +0.000 A 
ATOM     31  C   UNL     1      -7.132  13.321  24.331  0.00  0.00    +0.000 A 
ATOM     32  C   UNL     1      -7.916  13.746  23.270  0.00  0.00    +0.000 A 
ATOM     33  N   UNL     1      -7.517  13.740  21.974  0.00  0.00    +0.000 NA
ATOM     34  H   UNL     1      -6.653  13.479  19.771  0.00  0.00    +0.000 HD
ENDBRANCH  26  27
ENDBRANCH   8  25
TORSDOF 4
ENDMDL
MODEL 5
REMARK VINA RESULT:      -7.4      0.241      9.475
REMARK  Name = 
REMARK  4 active torsions:
REMARK  status: ('A' for Active; 'I' for Inactive)
REMARK    1  A    between atoms: C_1  and  C_10
REMARK    2  A    between atoms: N_2  and  N_3
REMARK    3  A    between atoms: C_17  and  C_18
REMARK    4  A    between atoms: N_19  and  N_20
REMARK                            x       y       z     vdW  Elec       q    Type
REMARK                         _______ _______ _______ _____ _____    ______ ____
ROOT
ATOM      1  C   UNL     1      -0.426  11.035  18.620  0.00  0.00    +0.000 A 
ATOM      2  C   UNL     1      -1.855  11.001  18.523  0.00  0.00    +0.000 A 
ATOM      3  C   UNL     1      -2.577  10.006  17.804  0.00  0.00    +0.000 A 
ATOM      4  C   UNL     1      -3.963  10.017  17.662  0.00  0.00    +0.000 A 
ATOM      5  C   UNL     1      -4.689  11.028  18.247  0.00  0.00    +0.000 A 
ATOM      6  C   UNL     1      -4.018  11.999  18.988  0.00  0.00    +0.000 A 
ATOM      7  C   UNL     1      -2.607  12.002  19.187  0.00  0.00    +0.000 A 
ATOM      8  C   UNL     1      -1.918  12.959  20.000  0.00  0.00    +0.000 A 
ATOM      9  C   UNL     1      -0.495  12.971  20.126  0.00  0.00    +0.000 A 
ATOM     10  C   UNL     1       0.212  13.899  20.941  0.00  0.00    +0.000 A 
ATOM     11  C   UNL     1       1.604  13.914  21.033  0.00  0.00    +0.000 A 
ATOM     12  C   UNL     1       2.342  12.998  20.311  0.00  0.00    +0.000 A 
ATOM     13  C   UNL     1       1.683  12.062  19.514  0.00  0.00    +0.000 A 
ATOM     14  C   UNL     1       0.264  12.004  19.411  0.00  0.00    +0.000 A 
ENDROOT
BRANCH   1  15
ATOM     15  C   UNL     1       0.383  10.018  17.870  0.00  0.00    +0.000 C 
ATOM     16  N   UNL     1       1.381   9.408  18.426  0.00  0.00    +0.000 NA
BRANCH  16  17
ATOM     17  N   UNL     1       2.120   8.580  17.632  0.00  0.00    +0.000 N 
ATOM     18  C   UNL     1       2.733   7.469  18.258  0.00  0.00    +0.000 A 
ATOM     19  C   UNL     1       2.142   6.860  19.366  0.00  0.00    +0.000 A 
ATOM     20  C   UNL     1       2.765   5.770  19.973  0.00  0.00    +0.000 A 
ATOM     21  C   UNL     1       3.960   5.297  19.450  0.00  0.00    +0.000 A 
ATOM     22  C   UNL     1       4.477   5.949  18.343  0.00  0.00    +0.000 A 
ATOM     23  N   UNL     1       3.896   7.014  17.736  0.00  0.00    +0.000 NA
ATOM     24  H   UNL     1       2.782   8.961  16.956  0.00  0.00    +0.000 HD
ENDBRANCH  16  17
ENDBRANCH   1  15
BRANCH   8  25
ATOM     25  C   UNL     1      -2.708  14.000  20.739  0.00  0.00    +0.000 C 
ATOM     26  N   UNL     1      -3.314  13.725  21.851  0.00  0.00    +0.000 NA
BRANCH  26  27
ATOM     27  N   UNL     1      -4.095  14.705  22.389  0.00  0.00    +0.000 N 
ATOM     28  C   UNL     1      -5.300  14.292  23.006  0.00  0.00    +0.000 A 
ATOM     29  C   UNL     1      -5.392  13.042  23.619  0.00  0.00    +0.000 A 
ATOM     30  C   UNL     1      -6.585  12.649  24.221  0.00  0.00    +0.000 A 
ATOM     31  C   UNL     1      -7.663  13.520  24.209  0.00  0.00    +0.000 A 
ATOM     32  C   UNL     1      -7.492  14.750  23.595  0.00  0.00    +0.000 A 
ATOM     33  N   UNL     1      -6.344  15.153  22.997  0.00  0.00    +0.000 NA
ATOM     34  H   UNL     1      -4.286  15.563  21.873  0.00  0.00    +0.000 HD
ENDBRANCH  26  27
ENDBRANCH   8  25
TORSDOF 4
ENDMDL
MODEL 6
REMARK VINA RESULT:      -7.3      0.529      8.777
REMARK  Name = 
REMARK  4 active torsions:
REMARK  status: ('A' for Active; 'I' for Inactive)
REMARK    1  A    between atoms: C_1  and  C_10
REMARK    2  A    between atoms: N_2  and  N_3
REMARK    3  A    between atoms: C_17  and  C_18
REMARK    4  A    between atoms: N_19  and  N_20
REMARK                            x       y       z     vdW  Elec       q    Type
REMARK                         _______ _______ _______ _____ _____    ______ ____
ROOT
ATOM      1  C   UNL     1      -0.017  11.110  18.827  0.00  0.00    +0.000 A 
ATOM      2  C   UNL     1       0.533  12.170  19.619  0.00  0.00    +0.000 A 
ATOM      3  C   UNL     1       1.928  12.356  19.835  0.00  0.00    +0.000 A 
ATOM      4  C   UNL     1       2.450  13.351  20.658  0.00  0.00    +0.000 A 
ATOM      5  C   UNL     1       1.590  14.213  21.297  0.00  0.00    +0.000 A 
ATOM      6  C   UNL     1       0.220  14.082  21.080  0.00  0.00    +0.000 A 
ATOM      7  C   UNL     1      -0.351  13.102  20.217  0.00  0.00    +0.000 A 
ATOM      8  C   UNL     1      -1.753  13.002  19.939  0.00  0.00    +0.000 A 
ATOM      9  C   UNL     1      -2.297  11.967  19.120  0.00  0.00    +0.000 A 
ATOM     10  C   UNL     1      -3.683  11.857  18.813  0.00  0.00    +0.000 A 
ATOM     11  C   UNL     1      -4.203  10.824  18.032  0.00  0.00    +0.000 A 
ATOM     12  C   UNL     1      -3.352   9.861  17.527  0.00  0.00    +0.000 A 
ATOM     13  C   UNL     1      -1.985   9.946  17.792  0.00  0.00    +0.000 A 
ATOM     14  C   UNL     1      -1.418  10.995  18.569  0.00  0.00    +0.000 A 
ENDROOT
BRANCH   1  15
ATOM     15  C   UNL     1       0.904  10.081  18.240  0.00  0.00    +0.000 C 
ATOM     16  N   UNL     1       1.285   9.049  18.924  0.00  0.00    +0.000 NA
BRANCH  16  17
ATOM     17  N   UNL     1       2.205   8.227  18.343  0.00  0.00    +0.000 N 
ATOM     18  C   UNL     1       2.506   7.021  19.019  0.00  0.00    +0.000 A 
ATOM     19  C   UNL     1       1.540   6.379  19.794  0.00  0.00    +0.000 A 
ATOM     20  C   UNL     1       1.857   5.194  20.458  0.00  0.00    +0.000 A 
ATOM     21  C   UNL     1       3.131   4.663  20.321  0.00  0.00    +0.000 A 
ATOM     22  C   UNL     1       4.031   5.354  19.527  0.00  0.00    +0.000 A 
ATOM     23  N   UNL     1       3.751   6.510  18.874  0.00  0.00    +0.000 NA
ATOM     24  H   UNL     1       3.078   8.602  17.972  0.00  0.00    +0.000 HD
ENDBRANCH  16  17
ENDBRANCH   1  15
BRANCH   8  25
ATOM     25  C   UNL     1      -2.694  14.008  20.537  0.00  0.00    +0.000 C 
ATOM     26  N   UNL     1      -3.601  13.658  21.393  0.00  0.00    +0.000 NA
BRANCH  26  27
ATOM     27  N   UNL     1      -4.477  14.622  21.796  0.00  0.00    +0.000 N 
ATOM     28  C   UNL     1      -5.588  14.193  22.563  0.00  0.00    +0.000 A 
ATOM     29  C   UNL     1      -5.486  13.082  23.400  0.00  0.00    +0.000 A 
ATOM     30  C   UNL     1      -6.587  12.672  24.148  0.00  0.00    +0.000 A 
ATOM     31  C   UNL     1      -7.769  13.390  24.053  0.00  0.00    +0.000 A 
ATOM     32  C   UNL     1      -7.790  14.491  23.212  0.00  0.00    +0.000 A 
ATOM     33  N   UNL     1      -6.734  14.906  22.470  0.00  0.00    +0.000 NA
ATOM     34  H   UNL     1      -4.803  15.336  21.146  0.00  0.00    +0.000 HD
ENDBRANCH  26  27
ENDBRANCH   8  25
TORSDOF 4
ENDMDL
MODEL 7
REMARK VINA RESULT:      -7.3      2.264      9.395
REMARK  Name = 
REMARK  4 active torsions:
REMARK  status: ('A' for Active; 'I' for Inactive)
REMARK    1  A    between atoms: C_1  and  C_10
REMARK    2  A    between atoms: N_2  and  N_3
REMARK    3  A    between atoms: C_17  and  C_18
REMARK    4  A    between atoms: N_19  and  N_20
REMARK                            x       y       z     vdW  Elec       q    Type
REMARK                         _______ _______ _______ _____ _____    ______ ____
ROOT
ATOM      1  C   UNL     1       1.232  11.227  19.748  0.00  0.00    +0.000 A 
ATOM      2  C   UNL     1       0.607  10.615  20.883  0.00  0.00    +0.000 A 
ATOM      3  C   UNL     1       0.690   9.225  21.180  0.00  0.00    +0.000 A 
ATOM      4  C   UNL     1       0.027   8.628  22.250  0.00  0.00    +0.000 A 
ATOM      5  C   UNL     1      -0.746   9.408  23.078  0.00  0.00    +0.000 A 
ATOM      6  C   UNL     1      -0.821  10.779  22.839  0.00  0.00    +0.000 A 
ATOM      7  C   UNL     1      -0.129  11.432  21.778  0.00  0.00    +0.000 A 
ATOM      8  C   UNL     1      -0.149  12.848  21.564  0.00  0.00    +0.000 A 
ATOM      9  C   UNL     1       0.503  13.462  20.452  0.00  0.00    +0.000 A 
ATOM     10  C   UNL     1       0.513  14.867  20.227  0.00  0.00    +0.000 A 
ATOM     11  C   UNL     1       1.134  15.450  19.122  0.00  0.00    +0.000 A 
ATOM     12  C   UNL     1       1.771  14.645  18.199  0.00  0.00    +0.000 A 
ATOM     13  C   UNL     1       1.797  13.264  18.395  0.00  0.00    +0.000 A 
ATOM     14  C   UNL     1       1.191  12.637  19.520  0.00  0.00    +0.000 A 
ENDROOT
BRANCH   1  15
ATOM     15  C   UNL     1       1.960  10.365  18.760  0.00  0.00    +0.000 C 
ATOM     16  N   UNL     1       1.403   9.317  18.240  0.00  0.00    +0.000 NA
BRANCH  16  17
ATOM     17  N   UNL     1       2.180   8.538  17.435  0.00  0.00    +0.000 N 
ATOM     18  C   UNL     1       2.865   7.463  18.049  0.00  0.00    +0.000 A 
ATOM     19  C   UNL     1       2.324   6.816  19.161  0.00  0.00    +0.000 A 
ATOM     20  C   UNL     1       3.018   5.763  19.756  0.00  0.00    +0.000 A 
ATOM     21  C   UNL     1       4.232   5.363  19.218  0.00  0.00    +0.000 A 
ATOM     22  C   UNL     1       4.698   6.049  18.109  0.00  0.00    +0.000 A 
ATOM     23  N   UNL     1       4.047   7.080  17.513  0.00  0.00    +0.000 NA
ATOM     24  H   UNL     1       2.811   8.960  16.753  0.00  0.00    +0.000 HD
ENDBRANCH  16  17
ENDBRANCH   1  15
BRANCH   8  25
ATOM     25  C   UNL     1      -0.894  13.726  22.528  0.00  0.00    +0.000 C 
ATOM     26  N   UNL     1      -2.149  13.999  22.360  0.00  0.00    +0.000 NA
BRANCH  26  27
ATOM     27  N   UNL     1      -2.709  14.892  23.226  0.00  0.00    +0.000 N 
ATOM     28  C   UNL     1      -4.102  14.775  23.450  0.00  0.00    +0.000 A 
ATOM     29  C   UNL     1      -4.731  13.532  23.374  0.00  0.00    +0.000 A 
ATOM     30  C   UNL     1      -6.103  13.432  23.595  0.00  0.00    +0.000 A 
ATOM     31  C   UNL     1      -6.819  14.579  23.902  0.00  0.00    +0.000 A 
ATOM     32  C   UNL     1      -6.123  15.775  23.974  0.00  0.00    +0.000 A 
ATOM     33  N   UNL     1      -4.791  15.898  23.757  0.00  0.00    +0.000 NA
ATOM     34  H   UNL     1      -2.483  15.885  23.171  0.00  0.00    +0.000 HD
ENDBRANCH  26  27
ENDBRANCH   8  25
TORSDOF 4
ENDMDL
MODEL 8
REMARK VINA RESULT:      -7.3      0.330      3.317
REMARK  Name = 
REMARK  4 active torsions:
REMARK  status: ('A' for Active; 'I' for Inactive)
REMARK    1  A    between atoms: C_1  and  C_10
REMARK    2  A    between atoms: N_2  and  N_3
REMARK    3  A    between atoms: C_17  and  C_18
REMARK    4  A    between atoms: N_19  and  N_20
REMARK                            x       y       z     vdW  Elec       q    Type
REMARK                         _______ _______ _______ _____ _____    ______ ____
ROOT
ATOM      1  C   UNL     1      -1.710  13.063  20.035  0.00  0.00    +0.000 A 
ATOM      2  C   UNL     1      -2.280  12.076  19.167  0.00  0.00    +0.000 A 
ATOM      3  C   UNL     1      -3.666  12.010  18.845  0.00  0.00    +0.000 A 
ATOM      4  C   UNL     1      -4.222  11.008  18.052  0.00  0.00    +0.000 A 
ATOM      5  C   UNL     1      -3.404  10.030  17.537  0.00  0.00    +0.000 A 
ATOM      6  C   UNL     1      -2.037  10.084  17.802  0.00  0.00    +0.000 A 
ATOM      7  C   UNL     1      -1.426  11.112  18.577  0.00  0.00    +0.000 A 
ATOM      8  C   UNL     1      -0.014  11.211  18.800  0.00  0.00    +0.000 A 
ATOM      9  C   UNL     1       0.558  12.216  19.637  0.00  0.00    +0.000 A 
ATOM     10  C   UNL     1       1.958  12.347  19.860  0.00  0.00    +0.000 A 
ATOM     11  C   UNL     1       2.500  13.320  20.701  0.00  0.00    +0.000 A 
ATOM     12  C   UNL     1       1.658  14.201  21.350  0.00  0.00    +0.000 A 
ATOM     13  C   UNL     1       0.282  14.114  21.142  0.00  0.00    +0.000 A 
ATOM     14  C   UNL     1      -0.304  13.148  20.278  0.00  0.00    +0.000 A 
ENDROOT
BRANCH   1  15
ATOM     15  C   UNL     1      -2.613  14.050  20.714  0.00  0.00    +0.000 C 
ATOM     16  N   UNL     1      -3.100  13.819  21.891  0.00  0.00    +0.000 NA
BRANCH  16  17
ATOM     17  N   UNL     1      -3.994  14.725  22.380  0.00  0.00    +0.000 N 
ATOM     18  C   UNL     1      -5.172  14.211  22.973  0.00  0.00    +0.000 A 
ATOM     19  C   UNL     1      -5.161  12.976  23.622  0.00  0.00    +0.000 A 
ATOM     20  C   UNL     1      -6.333  12.483  24.194  0.00  0.00    +0.000 A 
ATOM     21  C   UNL     1      -7.492  13.241  24.122  0.00  0.00    +0.000 A 
ATOM     22  C   UNL     1      -7.419  14.461  23.469  0.00  0.00    +0.000 A 
ATOM     23  N   UNL     1      -6.295  14.962  22.900  0.00  0.00    +0.000 NA
ATOM     24  H   UNL     1      -4.254  15.547  21.835  0.00  0.00    +0.000 HD
ENDBRANCH  16  17
ENDBRANCH   1  15
BRANCH   8  25
ATOM     25  C   UNL     1       0.904  10.217  18.150  0.00  0.00    +0.000 C 
ATOM     26  N   UNL     1       1.234   9.113  18.742  0.00  0.00    +0.000 NA
BRANCH  26  27
ATOM     27  N   UNL     1       2.158   8.328  18.119  0.00  0.00    +0.000 N 
ATOM     28  C   UNL     1       2.537   7.138  18.787  0.00  0.00    +0.000 A 
ATOM     29  C   UNL     1       1.634   6.468  19.612  0.00  0.00    +0.000 A 
ATOM     30  C   UNL     1       2.021   5.299  20.264  0.00  0.00    +0.000 A 
ATOM     31  C   UNL     1       3.305   4.815  20.066  0.00  0.00    +0.000 A 
ATOM     32  C   UNL     1       4.141   5.526  19.220  0.00  0.00    +0.000 A 
ATOM     33  N   UNL     1       3.789   6.668  18.581  0.00  0.00    +0.000 NA
ATOM     34  H   UNL     1       2.995   8.735  17.705  0.00  0.00    +0.000 HD
ENDBRANCH  26  27
ENDBRANCH   8  25
TORSDOF 4
ENDMDL
MODEL 9
REMARK VINA RESULT:      -7.2      2.267      9.208
REMARK  Name = 
REMARK  4 active torsions:
REMARK  status: ('A' for Active; 'I' for Inactive)
REMARK    1  A    between atoms: C_1  and  C_10
REMARK    2  A    between atoms: N_2  and  N_3
REMARK    3  A    between atoms: C_17  and  C_18
REMARK    4  A    between atoms: N_19  and  N_20
REMARK                            x       y       z     vdW  Elec       q    Type
REMARK                         _______ _______ _______ _____ _____    ______ ____
ROOT
ATOM      1  C   UNL     1       1.219  11.208  19.722  0.00  0.00    +0.000 A 
ATOM      2  C   UNL     1       1.180  12.625  19.507  0.00  0.00    +0.000 A 
ATOM      3  C   UNL     1       1.746  13.271  18.371  0.00  0.00    +0.000 A 
ATOM      4  C   UNL     1       1.759  14.653  18.203  0.00  0.00    +0.000 A 
ATOM      5  C   UNL     1       1.193  15.452  19.169  0.00  0.00    +0.000 A 
ATOM      6  C   UNL     1       0.598  14.852  20.277  0.00  0.00    +0.000 A 
ATOM      7  C   UNL     1       0.531  13.441  20.467  0.00  0.00    +0.000 A 
ATOM      8  C   UNL     1      -0.135  12.815  21.570  0.00  0.00    +0.000 A 
ATOM      9  C   UNL     1      -0.126  11.400  21.765  0.00  0.00    +0.000 A 
ATOM     10  C   UNL     1      -0.795  10.753  22.841  0.00  0.00    +0.000 A 
ATOM     11  C   UNL     1      -0.756   9.371  23.032  0.00  0.00    +0.000 A 
ATOM     12  C   UNL     1      -0.045   8.585  22.148  0.00  0.00    +0.000 A 
ATOM     13  C   UNL     1       0.610   9.182  21.071  0.00  0.00    +0.000 A 
ATOM     14  C   UNL     1       0.576  10.585  20.835  0.00  0.00    +0.000 A 
ENDROOT
BRANCH   1  15
ATOM     15  C   UNL     1       1.956  10.341  18.745  0.00  0.00    +0.000 C 
ATOM     16  N   UNL     1       1.407   9.286  18.232  0.00  0.00    +0.000 NA
BRANCH  16  17
ATOM     17  N   UNL     1       2.192   8.504  17.437  0.00  0.00    +0.000 N 
ATOM     18  C   UNL     1       2.861   7.423  18.059  0.00  0.00    +0.000 A 
ATOM     19  C   UNL     1       2.299   6.777  19.161  0.00  0.00    +0.000 A 
ATOM     20  C   UNL     1       2.977   5.718  19.764  0.00  0.00    +0.000 A 
ATOM     21  C   UNL     1       4.198   5.312  19.244  0.00  0.00    +0.000 A 
ATOM     22  C   UNL     1       4.684   5.998  18.143  0.00  0.00    +0.000 A 
ATOM     23  N   UNL     1       4.049   7.034  17.540  0.00  0.00    +0.000 NA
ATOM     24  H   UNL     1       2.836   8.923  16.766  0.00  0.00    +0.000 HD
ENDBRANCH  16  17
ENDBRANCH   1  15
BRANCH   8  25
ATOM     25  C   UNL     1      -0.857  13.668  22.573  0.00  0.00    +0.000 C 
ATOM     26  N   UNL     1      -2.119  13.935  22.448  0.00  0.00    +0.000 NA
BRANCH  26  27
ATOM     27  N   UNL     1      -2.659  14.806  23.346  0.00  0.00    +0.000 N 
ATOM     28  C   UNL     1      -4.066  14.770  23.503  0.00  0.00    +0.000 A 
ATOM     29  C   UNL     1      -4.770  13.579  23.318  0.00  0.00    +0.000 A 
ATOM     30  C   UNL     1      -6.154  13.558  23.474  0.00  0.00    +0.000 A 
ATOM     31  C   UNL     1      -6.808  14.729  23.825  0.00  0.00    +0.000 A 
ATOM     32  C   UNL     1      -6.041  15.868  24.007  0.00  0.00    +0.000 A 
ATOM     33  N   UNL     1      -4.695  15.915  23.855  0.00  0.00    +0.000 NA
ATOM     34  H   UNL     1      -2.368  15.783  23.368  0.00  0.00    +0.000 HD
ENDBRANCH  26  27
ENDBRANCH   8  25
TORSDOF 4
ENDMDL
