MODEL 1
REMARK VINA RESULT:      -7.8      0.000      0.000
REMARK  Name = 
REMARK  15 active torsions:
REMARK  status: ('A' for Active; 'I' for Inactive)
REMARK    1  A    between atoms: C_1  and  C_2
REMARK    2  A    between atoms: C_6  and  C_7
REMARK    3  A    between atoms: C_7  and  C_27
REMARK    4  A    between atoms: C_8  and  C_9
REMARK    5  A    between atoms: C_9  and  C_10
REMARK    6  A    between atoms: C_10  and  N_11
REMARK    7  A    between atoms: N_11  and  C_12
REMARK    8  A    between atoms: N_11  and  C_13
REMARK    9  A    between atoms: C_13  and  C_14
REMARK   10  A    between atoms: C_13  and  C_17
REMARK   11  A    between atoms: C_14  and  C_15
REMARK   12  A    between atoms: C_15  and  N_16
REMARK   13  A    between atoms: N_19  and  C_20
REMARK   14  A    between atoms: C_20  and  C_21
REMARK   15  A    between atoms: C_31  and  C_32
REMARK                            x       y       z     vdW  Elec       q    Type
REMARK                         _______ _______ _______ _____ _____    ______ ____
ROOT
ATOM      1  N   UNL     1       1.373  10.308  18.957  0.00  0.00    +0.000 NA
ATOM      2  C   UNL     1       1.516  11.738  18.647  0.00  0.00    +0.000 C 
ENDROOT
BRANCH   1   3
ATOM      3  C   UNL     1       1.874   9.507  17.808  0.00  0.00    +0.000 C 
BRANCH   3   4
ATOM      4  C   UNL     1       1.967   7.990  18.072  0.00  0.00    +0.000 C 
BRANCH   4   6
ATOM      5  C   UNL     1       3.742   6.168  18.221  0.00  0.00    +0.000 C 
ATOM      6  C   UNL     1       3.360   7.424  17.898  0.00  0.00    +0.000 C 
BRANCH   5  12
ATOM      7  C   UNL     1       2.562   3.483  16.976  0.00  0.00    +0.000 C 
ATOM      8  C   UNL     1       2.242   4.088  18.305  0.00  0.00    +0.000 A 
ATOM      9  C   UNL     1       1.291   3.515  19.215  0.00  0.00    +0.000 A 
ATOM     10  C   UNL     1       1.159   4.239  20.375  0.00  0.00    +0.000 A 
ATOM     11  S   UNL     1       2.178   5.600  20.392  0.00  0.00    +0.000 S 
ATOM     12  C   UNL     1       2.797   5.260  18.816  0.00  0.00    +0.000 A 
ENDBRANCH   5  12
BRANCH   5  13
ATOM     13  C   UNL     1       5.098   5.785  17.934  0.00  0.00    +0.000 A 
ATOM     14  S   UNL     1       6.157   5.369  19.231  0.00  0.00    +0.000 S 
ATOM     15  C   UNL     1       7.429   4.969  18.172  0.00  0.00    +0.000 A 
ATOM     16  C   UNL     1       7.083   5.169  16.858  0.00  0.00    +0.000 A 
ATOM     17  C   UNL     1       5.746   5.667  16.705  0.00  0.00    +0.000 A 
ATOM     18  C   UNL     1       5.151   5.999  15.373  0.00  0.00    +0.000 C 
ENDBRANCH   5  13
ENDBRANCH   4   6
ENDBRANCH   3   4
ENDBRANCH   1   3
BRANCH   1  19
ATOM     19  C   UNL     1      -0.008   9.940  19.398  0.00  0.00    +0.000 C 
BRANCH  19  20
ATOM     20  C   UNL     1      -1.106  10.336  18.365  0.00  0.00    +0.000 C 
ATOM     21  O   UNL     1      -1.212   9.854  17.239  0.00  0.00    +0.000 OA
ATOM     22  N   UNL     1      -2.008  11.280  18.811  0.00  0.00    +0.000 N 
ATOM     23  H   UNL     1      -1.788  11.849  19.617  0.00  0.00    +0.000 HD
BRANCH  22  24
ATOM     24  C   UNL     1      -3.049  11.745  17.925  0.00  0.00    +0.000 C 
BRANCH  24  25
ATOM     25  C   UNL     1      -4.397  11.661  18.581  0.00  0.00    +0.000 A 
ATOM     26  C   UNL     1      -4.656  12.349  19.773  0.00  0.00    +0.000 A 
ATOM     27  C   UNL     1      -5.915  12.274  20.369  0.00  0.00    +0.000 A 
ATOM     28  C   UNL     1      -6.925  11.514  19.782  0.00  0.00    +0.000 A 
ATOM     29  C   UNL     1      -6.679  10.830  18.592  0.00  0.00    +0.000 A 
ATOM     30  C   UNL     1      -5.424  10.906  17.991  0.00  0.00    +0.000 A 
ENDBRANCH  24  25
ENDBRANCH  22  24
ENDBRANCH  19  20
BRANCH  19  31
ATOM     31  C   UNL     1      -0.412  10.470  20.795  0.00  0.00    +0.000 C 
BRANCH  31  32
ATOM     32  C   UNL     1       0.598  10.171  21.902  0.00  0.00    +0.000 C 
BRANCH  32  33
ATOM     33  N   UNL     1      -0.104  10.117  23.186  0.00  0.00    +0.000 NA
ATOM     34  H   UNL     1       0.567   9.951  23.935  0.00  0.00    +0.000 HD
ATOM     35  H   UNL     1      -0.736   9.317  23.193  0.00  0.00    +0.000 HD
ENDBRANCH  32  33
ENDBRANCH  31  32
ENDBRANCH  19  31
ENDBRANCH   1  19
TORSDOF 12
ENDMDL
MODEL 2
REMARK VINA RESULT:      -7.3      1.146      1.471
REMARK  Name = 
REMARK  15 active torsions:
REMARK  status: ('A' for Active; 'I' for Inactive)
REMARK    1  A    between atoms: C_1  and  C_2
REMARK    2  A    between atoms: C_6  and  C_7
REMARK    3  A    between atoms: C_7  and  C_27
REMARK    4  A    between atoms: C_8  and  C_9
REMARK    5  A    between atoms: C_9  and  C_10
REMARK    6  A    between atoms: C_10  and  N_11
REMARK    7  A    between atoms: N_11  and  C_12
REMARK    8  A    between atoms: N_11  and  C_13
REMARK    9  A    between atoms: C_13  and  C_14
REMARK   10  A    between atoms: C_13  and  C_17
REMARK   11  A    between atoms: C_14  and  C_15
REMARK   12  A    between atoms: C_15  and  N_16
REMARK   13  A    between atoms: N_19  and  C_20
REMARK   14  A    between atoms: C_20  and  C_21
REMARK   15  A    between atoms: C_31  and  C_32
REMARK                            x       y       z     vdW  Elec       q    Type
REMARK                         _______ _______ _______ _____ _____    ______ ____
ROOT
ATOM      1  N   UNL     1       1.129   9.673  19.052  0.00  0.00    +0.000 NA
ATOM      2  C   UNL     1       0.531   9.664  17.710  0.00  0.00    +0.000 C 
ENDROOT
BRANCH   1   3
ATOM      3  C   UNL     1       1.993   8.472  19.209  0.00  0.00    +0.000 C 
BRANCH   3   4
ATOM      4  C   UNL     1       2.182   7.640  17.924  0.00  0.00    +0.000 C 
BRANCH   4   6
ATOM      5  C   UNL     1       3.947   5.819  18.167  0.00  0.00    +0.000 C 
ATOM      6  C   UNL     1       3.571   7.057  17.773  0.00  0.00    +0.000 C 
BRANCH   5  12
ATOM      7  C   UNL     1       2.346   3.369  16.910  0.00  0.00    +0.000 C 
ATOM      8  C   UNL     1       2.268   3.886  18.311  0.00  0.00    +0.000 A 
ATOM      9  C   UNL     1       1.392   3.327  19.301  0.00  0.00    +0.000 A 
ATOM     10  C   UNL     1       1.490   3.957  20.517  0.00  0.00    +0.000 A 
ATOM     11  S   UNL     1       2.636   5.213  20.489  0.00  0.00    +0.000 S 
ATOM     12  C   UNL     1       3.002   4.954  18.822  0.00  0.00    +0.000 A 
ENDBRANCH   5  12
BRANCH   5  13
ATOM     13  C   UNL     1       5.299   5.412  17.893  0.00  0.00    +0.000 A 
ATOM     14  S   UNL     1       6.456   5.390  19.173  0.00  0.00    +0.000 S 
ATOM     15  C   UNL     1       7.676   4.757  18.168  0.00  0.00    +0.000 A 
ATOM     16  C   UNL     1       7.239   4.586  16.877  0.00  0.00    +0.000 A 
ATOM     17  C   UNL     1       5.873   4.987  16.695  0.00  0.00    +0.000 A 
ATOM     18  C   UNL     1       5.180   4.932  15.371  0.00  0.00    +0.000 C 
ENDBRANCH   5  13
ENDBRANCH   4   6
ENDBRANCH   3   4
ENDBRANCH   1   3
BRANCH   1  19
ATOM     19  C   UNL     1       0.119   9.842  20.142  0.00  0.00    +0.000 C 
BRANCH  19  20
ATOM     20  C   UNL     1      -0.601  11.224  20.100  0.00  0.00    +0.000 C 
ATOM     21  O   UNL     1      -0.122  12.274  20.521  0.00  0.00    +0.000 OA
ATOM     22  N   UNL     1      -1.850  11.208  19.515  0.00  0.00    +0.000 N 
ATOM     23  H   UNL     1      -2.343  10.333  19.396  0.00  0.00    +0.000 HD
BRANCH  22  24
ATOM     24  C   UNL     1      -2.622  12.427  19.450  0.00  0.00    +0.000 C 
BRANCH  24  25
ATOM     25  C   UNL     1      -4.086  12.135  19.291  0.00  0.00    +0.000 A 
ATOM     26  C   UNL     1      -4.560  11.456  18.161  0.00  0.00    +0.000 A 
ATOM     27  C   UNL     1      -5.921  11.179  18.027  0.00  0.00    +0.000 A 
ATOM     28  C   UNL     1      -6.818  11.576  19.016  0.00  0.00    +0.000 A 
ATOM     29  C   UNL     1      -6.356  12.247  20.148  0.00  0.00    +0.000 A 
ATOM     30  C   UNL     1      -4.996  12.521  20.287  0.00  0.00    +0.000 A 
ENDBRANCH  24  25
ENDBRANCH  22  24
ENDBRANCH  19  20
BRANCH  19  31
ATOM     31  C   UNL     1       0.653   9.592  21.573  0.00  0.00    +0.000 C 
BRANCH  31  32
ATOM     32  C   UNL     1      -0.423   9.228  22.596  0.00  0.00    +0.000 C 
BRANCH  32  33
ATOM     33  N   UNL     1       0.024   9.644  23.927  0.00  0.00    +0.000 NA
ATOM     34  H   UNL     1       0.875  10.200  23.842  0.00  0.00    +0.000 HD
ATOM     35  H   UNL     1       0.278   8.822  24.471  0.00  0.00    +0.000 HD
ENDBRANCH  32  33
ENDBRANCH  31  32
ENDBRANCH  19  31
ENDBRANCH   1  19
TORSDOF 12
ENDMDL
MODEL 3
REMARK VINA RESULT:      -7.2      2.762      4.238
REMARK  Name = 
REMARK  15 active torsions:
REMARK  status: ('A' for Active; 'I' for Inactive)
REMARK    1  A    between atoms: C_1  and  C_2
REMARK    2  A    between atoms: C_6  and  C_7
REMARK    3  A    between atoms: C_7  and  C_27
REMARK    4  A    between atoms: C_8  and  C_9
REMARK    5  A    between atoms: C_9  and  C_10
REMARK    6  A    between atoms: C_10  and  N_11
REMARK    7  A    between atoms: N_11  and  C_12
REMARK    8  A    between atoms: N_11  and  C_13
REMARK    9  A    between atoms: C_13  and  C_14
REMARK   10  A    between atoms: C_13  and  C_17
REMARK   11  A    between atoms: C_14  and  C_15
REMARK   12  A    between atoms: C_15  and  N_16
REMARK   13  A    between atoms: N_19  and  C_20
REMARK   14  A    between atoms: C_20  and  C_21
REMARK   15  A    between atoms: C_31  and  C_32
REMARK                            x       y       z     vdW  Elec       q    Type
REMARK                         _______ _______ _______ _____ _____    ______ ____
ROOT
ATOM      1  N   UNL     1       1.166   9.721  19.105  0.00  0.00    +0.000 NA
ATOM      2  C   UNL     1       0.454   9.660  17.821  0.00  0.00    +0.000 C 
ENDROOT
BRANCH   1   3
ATOM      3  C   UNL     1       1.922   8.455  19.306  0.00  0.00    +0.000 C 
BRANCH   3   4
ATOM      4  C   UNL     1       2.104   7.604  18.031  0.00  0.00    +0.000 C 
BRANCH   4   6
ATOM      5  C   UNL     1       3.891   5.798  18.222  0.00  0.00    +0.000 C 
ATOM      6  C   UNL     1       3.500   7.043  17.867  0.00  0.00    +0.000 C 
BRANCH   5  12
ATOM      7  C   UNL     1       2.401   3.308  16.906  0.00  0.00    +0.000 C 
ATOM      8  C   UNL     1       2.267   3.813  18.307  0.00  0.00    +0.000 A 
ATOM      9  C   UNL     1       1.381   3.222  19.269  0.00  0.00    +0.000 A 
ATOM     10  C   UNL     1       1.425   3.848  20.491  0.00  0.00    +0.000 A 
ATOM     11  S   UNL     1       2.533   5.138  20.502  0.00  0.00    +0.000 S 
ATOM     12  C   UNL     1       2.954   4.900  18.844  0.00  0.00    +0.000 A 
ENDBRANCH   5  12
BRANCH   5  13
ATOM     13  C   UNL     1       5.248   5.416  17.940  0.00  0.00    +0.000 A 
ATOM     14  S   UNL     1       6.408   5.394  19.217  0.00  0.00    +0.000 S 
ATOM     15  C   UNL     1       7.636   4.795  18.201  0.00  0.00    +0.000 A 
ATOM     16  C   UNL     1       7.199   4.636  16.908  0.00  0.00    +0.000 A 
ATOM     17  C   UNL     1       5.826   5.017  16.735  0.00  0.00    +0.000 A 
ATOM     18  C   UNL     1       5.132   4.971  15.411  0.00  0.00    +0.000 C 
ENDBRANCH   5  13
ENDBRANCH   4   6
ENDBRANCH   3   4
ENDBRANCH   1   3
BRANCH   1  19
ATOM     19  C   UNL     1       0.276  10.085  20.252  0.00  0.00    +0.000 C 
BRANCH  19  20
ATOM     20  C   UNL     1      -0.291  11.533  20.150  0.00  0.00    +0.000 C 
ATOM     21  O   UNL     1      -1.428  11.863  20.482  0.00  0.00    +0.000 OA
ATOM     22  N   UNL     1       0.599  12.471  19.668  0.00  0.00    +0.000 N 
ATOM     23  H   UNL     1       1.428  12.174  19.172  0.00  0.00    +0.000 HD
BRANCH  22  24
ATOM     24  C   UNL     1       0.170  13.839  19.502  0.00  0.00    +0.000 C 
BRANCH  24  25
ATOM     25  C   UNL     1       1.248  14.673  18.872  0.00  0.00    +0.000 A 
ATOM     26  C   UNL     1       2.400  14.074  18.348  0.00  0.00    +0.000 A 
ATOM     27  C   UNL     1       3.392  14.855  17.754  0.00  0.00    +0.000 A 
ATOM     28  C   UNL     1       3.243  16.238  17.677  0.00  0.00    +0.000 A 
ATOM     29  C   UNL     1       2.096  16.845  18.190  0.00  0.00    +0.000 A 
ATOM     30  C   UNL     1       1.102  16.066  18.780  0.00  0.00    +0.000 A 
ENDBRANCH  24  25
ENDBRANCH  22  24
ENDBRANCH  19  20
BRANCH  19  31
ATOM     31  C   UNL     1       0.899   9.882  21.654  0.00  0.00    +0.000 C 
BRANCH  31  32
ATOM     32  C   UNL     1      -0.084   9.395  22.719  0.00  0.00    +0.000 C 
BRANCH  32  33
ATOM     33  N   UNL     1      -0.725  10.554  23.342  0.00  0.00    +0.000 NA
ATOM     34  H   UNL     1      -0.015  11.143  23.778  0.00  0.00    +0.000 HD
ATOM     35  H   UNL     1      -1.332  10.241  24.097  0.00  0.00    +0.000 HD
ENDBRANCH  32  33
ENDBRANCH  31  32
ENDBRANCH  19  31
ENDBRANCH   1  19
TORSDOF 12
ENDMDL
MODEL 4
REMARK VINA RESULT:      -7.2      3.004      4.339
REMARK  Name = 
REMARK  15 active torsions:
REMARK  status: ('A' for Active; 'I' for Inactive)
REMARK    1  A    between atoms: C_1  and  C_2
REMARK    2  A    between atoms: C_6  and  C_7
REMARK    3  A    between atoms: C_7  and  C_27
REMARK    4  A    between atoms: C_8  and  C_9
REMARK    5  A    between atoms: C_9  and  C_10
REMARK    6  A    between atoms: C_10  and  N_11
REMARK    7  A    between atoms: N_11  and  C_12
REMARK    8  A    between atoms: N_11  and  C_13
REMARK    9  A    between atoms: C_13  and  C_14
REMARK   10  A    between atoms: C_13  and  C_17
REMARK   11  A    between atoms: C_14  and  C_15
REMARK   12  A    between atoms: C_15  and  N_16
REMARK   13  A    between atoms: N_19  and  C_20
REMARK   14  A    between atoms: C_20  and  C_21
REMARK   15  A    between atoms: C_31  and  C_32
REMARK                            x       y       z     vdW  Elec       q    Type
REMARK                         _______ _______ _______ _____ _____    ______ ____
ROOT
ATOM      1  N   UNL     1       1.225   9.405  19.448  0.00  0.00    +0.000 NA
ATOM      2  C   UNL     1       1.062   9.738  18.026  0.00  0.00    +0.000 C 
ENDROOT
BRANCH   1   3
ATOM      3  C   UNL     1       1.793   8.036  19.568  0.00  0.00    +0.000 C 
BRANCH   3   4
ATOM      4  C   UNL     1       2.041   7.320  18.223  0.00  0.00    +0.000 C 
BRANCH   4   6
ATOM      5  C   UNL     1       3.866   5.544  18.158  0.00  0.00    +0.000 C 
ATOM      6  C   UNL     1       3.462   6.830  18.046  0.00  0.00    +0.000 C 
BRANCH   5  12
ATOM      7  C   UNL     1       2.572   4.971  21.012  0.00  0.00    +0.000 C 
ATOM      8  C   UNL     1       2.340   4.221  19.740  0.00  0.00    +0.000 A 
ATOM      9  C   UNL     1       1.483   3.073  19.656  0.00  0.00    +0.000 A 
ATOM     10  C   UNL     1       1.418   2.547  18.389  0.00  0.00    +0.000 A 
ATOM     11  S   UNL     1       2.370   3.426  17.288  0.00  0.00    +0.000 S 
ATOM     12  C   UNL     1       2.918   4.519  18.508  0.00  0.00    +0.000 A 
ENDBRANCH   5  12
BRANCH   5  13
ATOM     13  C   UNL     1       5.251   5.253  17.902  0.00  0.00    +0.000 A 
ATOM     14  S   UNL     1       6.386   5.307  19.200  0.00  0.00    +0.000 S 
ATOM     15  C   UNL     1       7.669   4.791  18.207  0.00  0.00    +0.000 A 
ATOM     16  C   UNL     1       7.268   4.603  16.907  0.00  0.00    +0.000 A 
ATOM     17  C   UNL     1       5.876   4.893  16.708  0.00  0.00    +0.000 A 
ATOM     18  C   UNL     1       5.210   4.801  15.372  0.00  0.00    +0.000 C 
ENDBRANCH   5  13
ENDBRANCH   4   6
ENDBRANCH   3   4
ENDBRANCH   1   3
BRANCH   1  19
ATOM     19  C   UNL     1      -0.023   9.618  20.245  0.00  0.00    +0.000 C 
BRANCH  19  20
ATOM     20  C   UNL     1      -0.258  11.110  20.628  0.00  0.00    +0.000 C 
ATOM     21  O   UNL     1      -1.362  11.619  20.810  0.00  0.00    +0.000 OA
ATOM     22  N   UNL     1       0.892  11.856  20.782  0.00  0.00    +0.000 N 
ATOM     23  H   UNL     1       1.767  11.523  20.401  0.00  0.00    +0.000 HD
BRANCH  22  24
ATOM     24  C   UNL     1       0.792  13.260  21.105  0.00  0.00    +0.000 C 
BRANCH  24  25
ATOM     25  C   UNL     1       1.587  14.096  20.144  0.00  0.00    +0.000 A 
ATOM     26  C   UNL     1       1.841  15.447  20.413  0.00  0.00    +0.000 A 
ATOM     27  C   UNL     1       2.591  16.213  19.520  0.00  0.00    +0.000 A 
ATOM     28  C   UNL     1       3.093  15.640  18.354  0.00  0.00    +0.000 A 
ATOM     29  C   UNL     1       2.851  14.294  18.079  0.00  0.00    +0.000 A 
ATOM     30  C   UNL     1       2.106  13.525  18.971  0.00  0.00    +0.000 A 
ENDBRANCH  24  25
ENDBRANCH  22  24
ENDBRANCH  19  20
BRANCH  19  31
ATOM     31  C   UNL     1      -0.144   8.744  21.517  0.00  0.00    +0.000 C 
BRANCH  31  32
ATOM     32  C   UNL     1       0.397   9.397  22.788  0.00  0.00    +0.000 C 
BRANCH  32  33
ATOM     33  N   UNL     1       1.860   9.372  22.752  0.00  0.00    +0.000 NA
ATOM     34  H   UNL     1       2.226   9.436  23.702  0.00  0.00    +0.000 HD
ATOM     35  H   UNL     1       2.201  10.199  22.264  0.00  0.00    +0.000 HD
ENDBRANCH  32  33
ENDBRANCH  31  32
ENDBRANCH  19  31
ENDBRANCH   1  19
TORSDOF 12
ENDMDL
MODEL 5
REMARK VINA RESULT:      -7.2      2.387      2.813
REMARK  Name = 
REMARK  15 active torsions:
REMARK  status: ('A' for Active; 'I' for Inactive)
REMARK    1  A    between atoms: C_1  and  C_2
REMARK    2  A    between atoms: C_6  and  C_7
REMARK    3  A    between atoms: C_7  and  C_27
REMARK    4  A    between atoms: C_8  and  C_9
REMARK    5  A    between atoms: C_9  and  C_10
REMARK    6  A    between atoms: C_10  and  N_11
REMARK    7  A    between atoms: N_11  and  C_12
REMARK    8  A    between atoms: N_11  and  C_13
REMARK    9  A    between atoms: C_13  and  C_14
REMARK   10  A    between atoms: C_13  and  C_17
REMARK   11  A    between atoms: C_14  and  C_15
REMARK   12  A    between atoms: C_15  and  N_16
REMARK   13  A    between atoms: N_19  and  C_20
REMARK   14  A    between atoms: C_20  and  C_21
REMARK   15  A    between atoms: C_31  and  C_32
REMARK                            x       y       z     vdW  Elec       q    Type
REMARK                         _______ _______ _______ _____ _____    ______ ____
ROOT
ATOM      1  N   UNL     1       1.442   9.548  19.413  0.00  0.00    +0.000 NA
ATOM      2  C   UNL     1       1.341   9.937  17.999  0.00  0.00    +0.000 C 
ENDROOT
BRANCH   1   3
ATOM      3  C   UNL     1       1.848   8.120  19.499  0.00  0.00    +0.000 C 
BRANCH   3   4
ATOM      4  C   UNL     1       2.078   7.431  18.137  0.00  0.00    +0.000 C 
BRANCH   4   6
ATOM      5  C   UNL     1       3.913   5.670  18.285  0.00  0.00    +0.000 C 
ATOM      6  C   UNL     1       3.485   6.908  17.948  0.00  0.00    +0.000 C 
BRANCH   5  12
ATOM      7  C   UNL     1       2.361   3.239  16.931  0.00  0.00    +0.000 C 
ATOM      8  C   UNL     1       2.296   3.679  18.358  0.00  0.00    +0.000 A 
ATOM      9  C   UNL     1       1.459   3.042  19.334  0.00  0.00    +0.000 A 
ATOM     10  C   UNL     1       1.563   3.611  20.580  0.00  0.00    +0.000 A 
ATOM     11  S   UNL     1       2.670   4.902  20.597  0.00  0.00    +0.000 S 
ATOM     12  C   UNL     1       3.009   4.742  18.911  0.00  0.00    +0.000 A 
ENDBRANCH   5  12
BRANCH   5  13
ATOM     13  C   UNL     1       5.276   5.326  17.981  0.00  0.00    +0.000 A 
ATOM     14  S   UNL     1       6.464   5.372  19.231  0.00  0.00    +0.000 S 
ATOM     15  C   UNL     1       7.688   4.790  18.201  0.00  0.00    +0.000 A 
ATOM     16  C   UNL     1       7.228   4.587  16.923  0.00  0.00    +0.000 A 
ATOM     17  C   UNL     1       5.840   4.919  16.772  0.00  0.00    +0.000 A 
ATOM     18  C   UNL     1       5.119   4.819  15.466  0.00  0.00    +0.000 C 
ENDBRANCH   5  13
ENDBRANCH   4   6
ENDBRANCH   3   4
ENDBRANCH   1   3
BRANCH   1  19
ATOM     19  C   UNL     1       0.213   9.879  20.200  0.00  0.00    +0.000 C 
BRANCH  19  20
ATOM     20  C   UNL     1       0.155  11.372  20.643  0.00  0.00    +0.000 C 
ATOM     21  O   UNL     1       1.116  12.015  21.062  0.00  0.00    +0.000 OA
ATOM     22  N   UNL     1      -1.082  11.968  20.510  0.00  0.00    +0.000 N 
ATOM     23  H   UNL     1      -1.911  11.398  20.407  0.00  0.00    +0.000 HD
BRANCH  22  24
ATOM     24  C   UNL     1      -1.259  13.341  20.920  0.00  0.00    +0.000 C 
BRANCH  24  25
ATOM     25  C   UNL     1      -2.046  13.429  22.196  0.00  0.00    +0.000 A 
ATOM     26  C   UNL     1      -1.719  14.377  23.173  0.00  0.00    +0.000 A 
ATOM     27  C   UNL     1      -2.463  14.459  24.351  0.00  0.00    +0.000 A 
ATOM     28  C   UNL     1      -3.538  13.598  24.563  0.00  0.00    +0.000 A 
ATOM     29  C   UNL     1      -3.875  12.654  23.593  0.00  0.00    +0.000 A 
ATOM     30  C   UNL     1      -3.137  12.573  22.414  0.00  0.00    +0.000 A 
ENDBRANCH  24  25
ENDBRANCH  22  24
ENDBRANCH  19  20
BRANCH  19  31
ATOM     31  C   UNL     1      -0.039   8.975  21.430  0.00  0.00    +0.000 C 
BRANCH  31  32
ATOM     32  C   UNL     1       0.883   9.249  22.617  0.00  0.00    +0.000 C 
BRANCH  32  33
ATOM     33  N   UNL     1       0.071   9.636  23.772  0.00  0.00    +0.000 NA
ATOM     34  H   UNL     1      -0.876   9.857  23.465  0.00  0.00    +0.000 HD
ATOM     35  H   UNL     1       0.443  10.494  24.177  0.00  0.00    +0.000 HD
ENDBRANCH  32  33
ENDBRANCH  31  32
ENDBRANCH  19  31
ENDBRANCH   1  19
TORSDOF 12
ENDMDL
MODEL 6
REMARK VINA RESULT:      -7.2      1.305      1.626
REMARK  Name = 
REMARK  15 active torsions:
REMARK  status: ('A' for Active; 'I' for Inactive)
REMARK    1  A    between atoms: C_1  and  C_2
REMARK    2  A    between atoms: C_6  and  C_7
REMARK    3  A    between atoms: C_7  and  C_27
REMARK    4  A    between atoms: C_8  and  C_9
REMARK    5  A    between atoms: C_9  and  C_10
REMARK    6  A    between atoms: C_10  and  N_11
REMARK    7  A    between atoms: N_11  and  C_12
REMARK    8  A    between atoms: N_11  and  C_13
REMARK    9  A    between atoms: C_13  and  C_14
REMARK   10  A    between atoms: C_13  and  C_17
REMARK   11  A    between atoms: C_14  and  C_15
REMARK   12  A    between atoms: C_15  and  N_16
REMARK   13  A    between atoms: N_19  and  C_20
REMARK   14  A    between atoms: C_20  and  C_21
REMARK   15  A    between atoms: C_31  and  C_32
REMARK                            x       y       z     vdW  Elec       q    Type
REMARK                         _______ _______ _______ _____ _____    ______ ____
ROOT
ATOM      1  N   UNL     1       1.626   9.493  19.238  0.00  0.00    +0.000 NA
ATOM      2  C   UNL     1       1.790   9.799  17.810  0.00  0.00    +0.000 C 
ENDROOT
BRANCH   1   3
ATOM      3  C   UNL     1       1.799   8.031  19.448  0.00  0.00    +0.000 C 
BRANCH   3   4
ATOM      4  C   UNL     1       2.037   7.218  18.158  0.00  0.00    +0.000 C 
BRANCH   4   6
ATOM      5  C   UNL     1       3.885   5.464  18.132  0.00  0.00    +0.000 C 
ATOM      6  C   UNL     1       3.464   6.742  17.991  0.00  0.00    +0.000 C 
BRANCH   5  12
ATOM      7  C   UNL     1       2.593   4.942  20.997  0.00  0.00    +0.000 C 
ATOM      8  C   UNL     1       2.374   4.158  19.742  0.00  0.00    +0.000 A 
ATOM      9  C   UNL     1       1.532   2.997  19.684  0.00  0.00    +0.000 A 
ATOM     10  C   UNL     1       1.477   2.440  18.430  0.00  0.00    +0.000 A 
ATOM     11  S   UNL     1       2.419   3.306  17.310  0.00  0.00    +0.000 S 
ATOM     12  C   UNL     1       2.950   4.435  18.504  0.00  0.00    +0.000 A 
ENDBRANCH   5  12
BRANCH   5  13
ATOM     13  C   UNL     1       5.273   5.185  17.881  0.00  0.00    +0.000 A 
ATOM     14  S   UNL     1       6.411   5.308  19.171  0.00  0.00    +0.000 S 
ATOM     15  C   UNL     1       7.699   4.773  18.195  0.00  0.00    +0.000 A 
ATOM     16  C   UNL     1       7.296   4.530  16.904  0.00  0.00    +0.000 A 
ATOM     17  C   UNL     1       5.900   4.789  16.700  0.00  0.00    +0.000 A 
ATOM     18  C   UNL     1       5.231   4.635  15.371  0.00  0.00    +0.000 C 
ENDBRANCH   5  13
ENDBRANCH   4   6
ENDBRANCH   3   4
ENDBRANCH   1   3
BRANCH   1  19
ATOM     19  C   UNL     1       0.359  10.044  19.813  0.00  0.00    +0.000 C 
BRANCH  19  20
ATOM     20  C   UNL     1      -0.392  10.998  18.836  0.00  0.00    +0.000 C 
ATOM     21  O   UNL     1      -0.079  12.167  18.623  0.00  0.00    +0.000 OA
ATOM     22  N   UNL     1      -1.458  10.426  18.173  0.00  0.00    +0.000 N 
ATOM     23  H   UNL     1      -1.866   9.566  18.516  0.00  0.00    +0.000 HD
BRANCH  22  24
ATOM     24  C   UNL     1      -2.246  11.227  17.266  0.00  0.00    +0.000 C 
BRANCH  24  25
ATOM     25  C   UNL     1      -3.575  11.582  17.869  0.00  0.00    +0.000 A 
ATOM     26  C   UNL     1      -3.661  12.032  19.193  0.00  0.00    +0.000 A 
ATOM     27  C   UNL     1      -4.899  12.369  19.741  0.00  0.00    +0.000 A 
ATOM     28  C   UNL     1      -6.058  12.262  18.976  0.00  0.00    +0.000 A 
ATOM     29  C   UNL     1      -5.982  11.820  17.655  0.00  0.00    +0.000 A 
ATOM     30  C   UNL     1      -4.747  11.486  17.103  0.00  0.00    +0.000 A 
ENDBRANCH  24  25
ENDBRANCH  22  24
ENDBRANCH  19  20
BRANCH  19  31
ATOM     31  C   UNL     1       0.513  10.743  21.185  0.00  0.00    +0.000 C 
BRANCH  31  32
ATOM     32  C   UNL     1      -0.512  10.311  22.234  0.00  0.00    +0.000 C 
BRANCH  32  33
ATOM     33  N   UNL     1       0.195   9.841  23.426  0.00  0.00    +0.000 NA
ATOM     34  H   UNL     1       1.117  10.275  23.469  0.00  0.00    +0.000 HD
ATOM     35  H   UNL     1       0.361   8.838  23.349  0.00  0.00    +0.000 HD
ENDBRANCH  32  33
ENDBRANCH  31  32
ENDBRANCH  19  31
ENDBRANCH   1  19
TORSDOF 12
ENDMDL
MODEL 7
REMARK VINA RESULT:      -7.2      2.174      2.541
REMARK  Name = 
REMARK  15 active torsions:
REMARK  status: ('A' for Active; 'I' for Inactive)
REMARK    1  A    between atoms: C_1  and  C_2
REMARK    2  A    between atoms: C_6  and  C_7
REMARK    3  A    between atoms: C_7  and  C_27
REMARK    4  A    between atoms: C_8  and  C_9
REMARK    5  A    between atoms: C_9  and  C_10
REMARK    6  A    between atoms: C_10  and  N_11
REMARK    7  A    between atoms: N_11  and  C_12
REMARK    8  A    between atoms: N_11  and  C_13
REMARK    9  A    between atoms: C_13  and  C_14
REMARK   10  A    between atoms: C_13  and  C_17
REMARK   11  A    between atoms: C_14  and  C_15
REMARK   12  A    between atoms: C_15  and  N_16
REMARK   13  A    between atoms: N_19  and  C_20
REMARK   14  A    between atoms: C_20  and  C_21
REMARK   15  A    between atoms: C_31  and  C_32
REMARK                            x       y       z     vdW  Elec       q    Type
REMARK                         _______ _______ _______ _____ _____    ______ ____
ROOT
ATOM      1  N   UNL     1       1.365  10.017  18.952  0.00  0.00    +0.000 NA
ATOM      2  C   UNL     1       1.781  11.389  18.626  0.00  0.00    +0.000 C 
ENDROOT
BRANCH   1   3
ATOM      3  C   UNL     1       1.650   9.131  17.791  0.00  0.00    +0.000 C 
BRANCH   3   4
ATOM      4  C   UNL     1       1.865   7.646  18.151  0.00  0.00    +0.000 C 
BRANCH   4   6
ATOM      5  C   UNL     1       3.723   5.903  18.121  0.00  0.00    +0.000 C 
ATOM      6  C   UNL     1       3.296   7.180  17.993  0.00  0.00    +0.000 C 
BRANCH   5  12
ATOM      7  C   UNL     1       2.313   5.407  20.934  0.00  0.00    +0.000 C 
ATOM      8  C   UNL     1       2.164   4.598  19.685  0.00  0.00    +0.000 A 
ATOM      9  C   UNL     1       1.346   3.421  19.611  0.00  0.00    +0.000 A 
ATOM     10  C   UNL     1       1.357   2.842  18.365  0.00  0.00    +0.000 A 
ATOM     11  S   UNL     1       2.333   3.706  17.273  0.00  0.00    +0.000 S 
ATOM     12  C   UNL     1       2.790   4.865  18.469  0.00  0.00    +0.000 A 
ENDBRANCH   5  12
BRANCH   5  13
ATOM     13  C   UNL     1       5.116   5.635  17.881  0.00  0.00    +0.000 A 
ATOM     14  S   UNL     1       6.152   5.272  19.211  0.00  0.00    +0.000 S 
ATOM     15  C   UNL     1       7.492   5.000  18.197  0.00  0.00    +0.000 A 
ATOM     16  C   UNL     1       7.184   5.205  16.875  0.00  0.00    +0.000 A 
ATOM     17  C   UNL     1       5.818   5.600  16.677  0.00  0.00    +0.000 A 
ATOM     18  C   UNL     1       5.251   5.918  15.331  0.00  0.00    +0.000 C 
ENDBRANCH   5  13
ENDBRANCH   4   6
ENDBRANCH   3   4
ENDBRANCH   1   3
BRANCH   1  19
ATOM     19  C   UNL     1      -0.045   9.936  19.446  0.00  0.00    +0.000 C 
BRANCH  19  20
ATOM     20  C   UNL     1      -0.712  11.333  19.626  0.00  0.00    +0.000 C 
ATOM     21  O   UNL     1      -1.447  11.868  18.800  0.00  0.00    +0.000 OA
ATOM     22  N   UNL     1      -0.440  11.953  20.828  0.00  0.00    +0.000 N 
ATOM     23  H   UNL     1       0.341  11.645  21.392  0.00  0.00    +0.000 HD
BRANCH  22  24
ATOM     24  C   UNL     1      -0.980  13.267  21.089  0.00  0.00    +0.000 C 
BRANCH  24  25
ATOM     25  C   UNL     1      -2.251  13.182  21.884  0.00  0.00    +0.000 A 
ATOM     26  C   UNL     1      -2.327  12.375  23.026  0.00  0.00    +0.000 A 
ATOM     27  C   UNL     1      -3.509  12.312  23.765  0.00  0.00    +0.000 A 
ATOM     28  C   UNL     1      -4.622  13.052  23.373  0.00  0.00    +0.000 A 
ATOM     29  C   UNL     1      -4.555  13.863  22.241  0.00  0.00    +0.000 A 
ATOM     30  C   UNL     1      -3.375  13.932  21.502  0.00  0.00    +0.000 A 
ENDBRANCH  24  25
ENDBRANCH  22  24
ENDBRANCH  19  20
BRANCH  19  31
ATOM     31  C   UNL     1      -0.237   9.111  20.741  0.00  0.00    +0.000 C 
BRANCH  31  32
ATOM     32  C   UNL     1       1.054   8.830  21.510  0.00  0.00    +0.000 C 
BRANCH  32  33
ATOM     33  N   UNL     1       1.407  10.012  22.298  0.00  0.00    +0.000 NA
ATOM     34  H   UNL     1       0.830  10.801  22.006  0.00  0.00    +0.000 HD
ATOM     35  H   UNL     1       2.369  10.279  22.096  0.00  0.00    +0.000 HD
ENDBRANCH  32  33
ENDBRANCH  31  32
ENDBRANCH  19  31
ENDBRANCH   1  19
TORSDOF 12
ENDMDL
MODEL 8
REMARK VINA RESULT:      -7.2      2.505      3.717
REMARK  Name = 
REMARK  15 active torsions:
REMARK  status: ('A' for Active; 'I' for Inactive)
REMARK    1  A    between atoms: C_1  and  C_2
REMARK    2  A    between atoms: C_6  and  C_7
REMARK    3  A    between atoms: C_7  and  C_27
REMARK    4  A    between atoms: C_8  and  C_9
REMARK    5  A    between atoms: C_9  and  C_10
REMARK    6  A    between atoms: C_10  and  N_11
REMARK    7  A    between atoms: N_11  and  C_12
REMARK    8  A    between atoms: N_11  and  C_13
REMARK    9  A    between atoms: C_13  and  C_14
REMARK   10  A    between atoms: C_13  and  C_17
REMARK   11  A    between atoms: C_14  and  C_15
REMARK   12  A    between atoms: C_15  and  N_16
REMARK   13  A    between atoms: N_19  and  C_20
REMARK   14  A    between atoms: C_20  and  C_21
REMARK   15  A    between atoms: C_31  and  C_32
REMARK                            x       y       z     vdW  Elec       q    Type
REMARK                         _______ _______ _______ _____ _____    ______ ____
ROOT
ATOM      1  N   UNL     1       1.398   9.492  19.305  0.00  0.00    +0.000 NA
ATOM      2  C   UNL     1       1.183   9.732  17.871  0.00  0.00    +0.000 C 
ENDROOT
BRANCH   1   3
ATOM      3  C   UNL     1       1.867   8.094  19.501  0.00  0.00    +0.000 C 
BRANCH   3   4
ATOM      4  C   UNL     1       2.060   7.289  18.198  0.00  0.00    +0.000 C 
BRANCH   4   6
ATOM      5  C   UNL     1       3.934   5.568  18.328  0.00  0.00    +0.000 C 
ATOM      6  C   UNL     1       3.475   6.795  17.990  0.00  0.00    +0.000 C 
BRANCH   5  12
ATOM      7  C   UNL     1       2.340   3.152  16.998  0.00  0.00    +0.000 C 
ATOM      8  C   UNL     1       2.330   3.568  18.433  0.00  0.00    +0.000 A 
ATOM      9  C   UNL     1       1.535   2.911  19.431  0.00  0.00    +0.000 A 
ATOM     10  C   UNL     1       1.686   3.461  20.681  0.00  0.00    +0.000 A 
ATOM     11  S   UNL     1       2.786   4.757  20.675  0.00  0.00    +0.000 S 
ATOM     12  C   UNL     1       3.059   4.626  18.974  0.00  0.00    +0.000 A 
ENDBRANCH   5  12
BRANCH   5  13
ATOM     13  C   UNL     1       5.299   5.251  18.005  0.00  0.00    +0.000 A 
ATOM     14  S   UNL     1       6.507   5.341  19.233  0.00  0.00    +0.000 S 
ATOM     15  C   UNL     1       7.726   4.772  18.190  0.00  0.00    +0.000 A 
ATOM     16  C   UNL     1       7.249   4.541  16.923  0.00  0.00    +0.000 A 
ATOM     17  C   UNL     1       5.851   4.839  16.792  0.00  0.00    +0.000 A 
ATOM     18  C   UNL     1       5.110   4.705  15.501  0.00  0.00    +0.000 C 
ENDBRANCH   5  13
ENDBRANCH   4   6
ENDBRANCH   3   4
ENDBRANCH   1   3
BRANCH   1  19
ATOM     19  C   UNL     1       0.215   9.858  20.144  0.00  0.00    +0.000 C 
BRANCH  19  20
ATOM     20  C   UNL     1      -0.621  11.029  19.544  0.00  0.00    +0.000 C 
ATOM     21  O   UNL     1      -1.632  10.887  18.860  0.00  0.00    +0.000 OA
ATOM     22  N   UNL     1      -0.159  12.291  19.857  0.00  0.00    +0.000 N 
ATOM     23  H   UNL     1       0.785  12.414  20.198  0.00  0.00    +0.000 HD
BRANCH  22  24
ATOM     24  C   UNL     1      -0.838  13.450  19.328  0.00  0.00    +0.000 C 
BRANCH  24  25
ATOM     25  C   UNL     1       0.138  14.530  18.958  0.00  0.00    +0.000 A 
ATOM     26  C   UNL     1      -0.291  15.852  18.788  0.00  0.00    +0.000 A 
ATOM     27  C   UNL     1       0.625  16.851  18.456  0.00  0.00    +0.000 A 
ATOM     28  C   UNL     1       1.973  16.540  18.292  0.00  0.00    +0.000 A 
ATOM     29  C   UNL     1       2.411  15.227  18.465  0.00  0.00    +0.000 A 
ATOM     30  C   UNL     1       1.500  14.228  18.801  0.00  0.00    +0.000 A 
ENDBRANCH  24  25
ENDBRANCH  22  24
ENDBRANCH  19  20
BRANCH  19  31
ATOM     31  C   UNL     1       0.535  10.171  21.625  0.00  0.00    +0.000 C 
BRANCH  31  32
ATOM     32  C   UNL     1      -0.455   9.576  22.627  0.00  0.00    +0.000 C 
BRANCH  32  33
ATOM     33  N   UNL     1       0.172   9.534  23.949  0.00  0.00    +0.000 NA
ATOM     34  H   UNL     1      -0.547   9.432  24.664  0.00  0.00    +0.000 HD
ATOM     35  H   UNL     1       0.629  10.425  24.135  0.00  0.00    +0.000 HD
ENDBRANCH  32  33
ENDBRANCH  31  32
ENDBRANCH  19  31
ENDBRANCH   1  19
TORSDOF 12
ENDMDL
MODEL 9
REMARK VINA RESULT:      -7.1      1.483      3.526
REMARK  Name = 
REMARK  15 active torsions:
REMARK  status: ('A' for Active; 'I' for Inactive)
REMARK    1  A    between atoms: C_1  and  C_2
REMARK    2  A    between atoms: C_6  and  C_7
REMARK    3  A    between atoms: C_7  and  C_27
REMARK    4  A    between atoms: C_8  and  C_9
REMARK    5  A    between atoms: C_9  and  C_10
REMARK    6  A    between atoms: C_10  and  N_11
REMARK    7  A    between atoms: N_11  and  C_12
REMARK    8  A    between atoms: N_11  and  C_13
REMARK    9  A    between atoms: C_13  and  C_14
REMARK   10  A    between atoms: C_13  and  C_17
REMARK   11  A    between atoms: C_14  and  C_15
REMARK   12  A    between atoms: C_15  and  N_16
REMARK   13  A    between atoms: N_19  and  C_20
REMARK   14  A    between atoms: C_20  and  C_21
REMARK   15  A    between atoms: C_31  and  C_32
REMARK                            x       y       z     vdW  Elec       q    Type
REMARK                         _______ _______ _______ _____ _____    ______ ____
ROOT
ATOM      1  N   UNL     1       1.474  10.045  18.930  0.00  0.00    +0.000 NA
ATOM      2  C   UNL     1       1.781  11.441  18.586  0.00  0.00    +0.000 C 
ENDROOT
BRANCH   1   3
ATOM      3  C   UNL     1       1.768   9.177  17.758  0.00  0.00    +0.000 C 
BRANCH   3   4
ATOM      4  C   UNL     1       2.931   8.185  17.965  0.00  0.00    +0.000 C 
BRANCH   4   6
ATOM      5  C   UNL     1       3.309   5.671  18.131  0.00  0.00    +0.000 C 
ATOM      6  C   UNL     1       2.487   6.745  18.108  0.00  0.00    +0.000 C 
BRANCH   5  12
ATOM      7  C   UNL     1       4.887   6.603  15.526  0.00  0.00    +0.000 C 
ATOM      8  C   UNL     1       5.462   6.234  16.856  0.00  0.00    +0.000 A 
ATOM      9  C   UNL     1       6.872   6.228  17.121  0.00  0.00    +0.000 A 
ATOM     10  C   UNL     1       7.171   5.859  18.411  0.00  0.00    +0.000 A 
ATOM     11  S   UNL     1       5.769   5.531  19.316  0.00  0.00    +0.000 S 
ATOM     12  C   UNL     1       4.728   5.847  17.975  0.00  0.00    +0.000 A 
ENDBRANCH   5  12
BRANCH   5  13
ATOM     13  C   UNL     1       2.713   4.377  18.330  0.00  0.00    +0.000 A 
ATOM     14  S   UNL     1       2.945   3.143  17.148  0.00  0.00    +0.000 S 
ATOM     15  C   UNL     1       2.098   1.988  18.068  0.00  0.00    +0.000 A 
ATOM     16  C   UNL     1       1.618   2.519  19.240  0.00  0.00    +0.000 A 
ATOM     17  C   UNL     1       1.942   3.909  19.394  0.00  0.00    +0.000 A 
ATOM     18  C   UNL     1       1.498   4.721  20.569  0.00  0.00    +0.000 C 
ENDBRANCH   5  13
ENDBRANCH   4   6
ENDBRANCH   3   4
ENDBRANCH   1   3
BRANCH   1  19
ATOM     19  C   UNL     1       0.096   9.868  19.487  0.00  0.00    +0.000 C 
BRANCH  19  20
ATOM     20  C   UNL     1      -0.899  10.972  19.019  0.00  0.00    +0.000 C 
ATOM     21  O   UNL     1      -1.384  11.043  17.892  0.00  0.00    +0.000 OA
ATOM     22  N   UNL     1      -1.241  11.893  19.988  0.00  0.00    +0.000 N 
ATOM     23  H   UNL     1      -0.673  11.989  20.819  0.00  0.00    +0.000 HD
BRANCH  22  24
ATOM     24  C   UNL     1      -2.132  12.979  19.655  0.00  0.00    +0.000 C 
BRANCH  24  25
ATOM     25  C   UNL     1      -3.442  12.846  20.377  0.00  0.00    +0.000 A 
ATOM     26  C   UNL     1      -4.606  12.489  19.684  0.00  0.00    +0.000 A 
ATOM     27  C   UNL     1      -5.817  12.357  20.365  0.00  0.00    +0.000 A 
ATOM     28  C   UNL     1      -5.877  12.579  21.738  0.00  0.00    +0.000 A 
ATOM     29  C   UNL     1      -4.723  12.930  22.439  0.00  0.00    +0.000 A 
ATOM     30  C   UNL     1      -3.511  13.058  21.762  0.00  0.00    +0.000 A 
ENDBRANCH  24  25
ENDBRANCH  22  24
ENDBRANCH  19  20
BRANCH  19  31
ATOM     31  C   UNL     1       0.025   9.742  21.028  0.00  0.00    +0.000 C 
BRANCH  31  32
ATOM     32  C   UNL     1       0.378   8.356  21.567  0.00  0.00    +0.000 C 
BRANCH  32  33
ATOM     33  N   UNL     1       1.831   8.183  21.521  0.00  0.00    +0.000 NA
ATOM     34  H   UNL     1       2.052   7.219  21.270  0.00  0.00    +0.000 HD
ATOM     35  H   UNL     1       2.219   8.326  22.453  0.00  0.00    +0.000 HD
ENDBRANCH  32  33
ENDBRANCH  31  32
ENDBRANCH  19  31
ENDBRANCH   1  19
TORSDOF 12
ENDMDL
