MODEL 1
REMARK VINA RESULT:      -7.4      0.000      0.000
REMARK  Name = 
REMARK  18 active torsions:
REMARK  status: ('A' for Active; 'I' for Inactive)
REMARK    1  A    between atoms: C_1  and  C_2
REMARK    2  A    between atoms: C_2  and  O_3
REMARK    3  A    between atoms: O_3  and  C_4
REMARK    4  A    between atoms: C_4  and  C_6
REMARK    5  A    between atoms: C_7  and  N_8
REMARK    6  A    between atoms: C_9  and  C_11
REMARK    7  A    between atoms: C_11  and  O_12
REMARK    8  A    between atoms: O_12  and  C_13
REMARK    9  A    between atoms: C_13  and  C_15
REMARK   10  A    between atoms: C_20  and  O_21
REMARK   11  A    between atoms: O_21  and  C_22
REMARK   12  A    between atoms: C_22  and  C_23
REMARK   13  A    between atoms: C_25  and  C_26
REMARK   14  A    between atoms: N_28  and  C_29
REMARK   15  A    between atoms: N_28  and  C_31
REMARK   16  A    between atoms: C_29  and  C_30
REMARK   17  A    between atoms: C_31  and  C_32
REMARK   18  A    between atoms: C_33  and  C_34
REMARK                            x       y       z     vdW  Elec       q    Type
REMARK                         _______ _______ _______ _____ _____    ______ ____
ROOT
ATOM      1  C   UNL     1       6.214   5.100  16.374  0.00  0.00    +0.000 A 
ATOM      2  C   UNL     1       6.388   6.161  17.263  0.00  0.00    +0.000 A 
ATOM      3  S   UNL     1       5.767   5.793  18.797  0.00  0.00    +0.000 S 
ATOM      4  C   UNL     1       5.062   4.324  18.314  0.00  0.00    +0.000 A 
ATOM      5  C   UNL     1       5.415   4.015  17.003  0.00  0.00    +0.000 A 
ATOM      6  C   UNL     1       5.059   2.729  16.319  0.00  0.00    +0.000 C 
ENDROOT
BRANCH   2   7
ATOM      7  N   UNL     1       6.981   7.416  17.051  0.00  0.00    +0.000 N 
ATOM      8  C   UNL     1       7.939   8.000  17.883  0.00  0.00    +0.000 C 
ATOM      9  O   UNL     1       8.528   7.467  18.825  0.00  0.00    +0.000 OA
ATOM     10  H   UNL     1       6.573   7.974  16.303  0.00  0.00    +0.000 HD
BRANCH   8  11
ATOM     11  C   UNL     1       8.229   9.479  17.602  0.00  0.00    +0.000 C 
BRANCH  11  12
ATOM     12  O   UNL     1       8.742  10.091  18.802  0.00  0.00    +0.000 OA
BRANCH  12  13
ATOM     13  C   UNL     1       9.701  11.038  18.599  0.00  0.00    +0.000 C 
ATOM     14  O   UNL     1      10.429  11.097  17.626  0.00  0.00    +0.000 OA
BRANCH  13  15
ATOM     15  C   UNL     1       9.626  12.031  19.692  0.00  0.00    +0.000 A 
ATOM     16  C   UNL     1       9.473  11.580  21.014  0.00  0.00    +0.000 A 
ATOM     17  C   UNL     1       9.358  12.486  22.066  0.00  0.00    +0.000 A 
ATOM     18  C   UNL     1       9.390  13.830  21.764  0.00  0.00    +0.000 A 
ATOM     19  N   UNL     1       9.516  14.308  20.510  0.00  0.00    +0.000 NA
ATOM     20  C   UNL     1       9.626  13.414  19.486  0.00  0.00    +0.000 A 
BRANCH  20  21
ATOM     21  O   UNL     1       9.721  13.939  18.210  0.00  0.00    +0.000 OA
BRANCH  21  22
ATOM     22  C   UNL     1      10.382  15.215  18.196  0.00  0.00    +0.000 C 
ATOM     23  C   UNL     1      11.195  15.371  16.924  0.00  0.00    +0.000 C 
ENDBRANCH  21  22
ENDBRANCH  20  21
ENDBRANCH  13  15
ENDBRANCH  12  13
ENDBRANCH  11  12
ENDBRANCH   8  11
ENDBRANCH   2   7
BRANCH   4  24
ATOM     24  C   UNL     1       4.359   3.592  19.370  0.00  0.00    +0.000 C 
ATOM     25  O   UNL     1       4.922   2.652  19.946  0.00  0.00    +0.000 OA
ATOM     26  N   UNL     1       3.047   3.932  19.762  0.00  0.00    +0.000 N 
BRANCH  26  27
ATOM     27  C   UNL     1       2.250   5.049  19.245  0.00  0.00    +0.000 C 
ATOM     28  C   UNL     1       1.723   4.871  17.827  0.00  0.00    +0.000 C 
ENDBRANCH  26  27
BRANCH  26  29
ATOM     29  C   UNL     1       2.397   3.011  20.703  0.00  0.00    +0.000 C 
ATOM     30  C   UNL     1       1.378   2.081  20.058  0.00  0.00    +0.000 C 
ENDBRANCH  26  29
ENDBRANCH   4  24
BRANCH   1  31
ATOM     31  C   UNL     1       6.748   5.090  14.994  0.00  0.00    +0.000 C 
ATOM     32  O   UNL     1       7.848   5.532  14.689  0.00  0.00    +0.000 OA
BRANCH  31  33
ATOM     33  O   UNL     1       5.870   4.534  14.116  0.00  0.00    +0.000 OA
BRANCH  33  35
ATOM     34  C   UNL     1       5.153   3.319  12.139  0.00  0.00    +0.000 C 
ATOM     35  C   UNL     1       6.323   3.747  13.003  0.00  0.00    +0.000 C 
ENDBRANCH  33  35
ENDBRANCH  31  33
ENDBRANCH   1  31
TORSDOF 13
ENDMDL
MODEL 2
REMARK VINA RESULT:      -7.1      5.826      8.434
REMARK  Name = 
REMARK  18 active torsions:
REMARK  status: ('A' for Active; 'I' for Inactive)
REMARK    1  A    between atoms: C_1  and  C_2
REMARK    2  A    between atoms: C_2  and  O_3
REMARK    3  A    between atoms: O_3  and  C_4
REMARK    4  A    between atoms: C_4  and  C_6
REMARK    5  A    between atoms: C_7  and  N_8
REMARK    6  A    between atoms: C_9  and  C_11
REMARK    7  A    between atoms: C_11  and  O_12
REMARK    8  A    between atoms: O_12  and  C_13
REMARK    9  A    between atoms: C_13  and  C_15
REMARK   10  A    between atoms: C_20  and  O_21
REMARK   11  A    between atoms: O_21  and  C_22
REMARK   12  A    between atoms: C_22  and  C_23
REMARK   13  A    between atoms: C_25  and  C_26
REMARK   14  A    between atoms: N_28  and  C_29
REMARK   15  A    between atoms: N_28  and  C_31
REMARK   16  A    between atoms: C_29  and  C_30
REMARK   17  A    between atoms: C_31  and  C_32
REMARK   18  A    between atoms: C_33  and  C_34
REMARK                            x       y       z     vdW  Elec       q    Type
REMARK                         _______ _______ _______ _____ _____    ______ ____
ROOT
ATOM      1  C   UNL     1       2.937   4.301  20.473  0.00  0.00    +0.000 A 
ATOM      2  C   UNL     1       2.914   5.682  20.275  0.00  0.00    +0.000 A 
ATOM      3  S   UNL     1       4.137   6.177  19.211  0.00  0.00    +0.000 S 
ATOM      4  C   UNL     1       4.876   4.648  19.126  0.00  0.00    +0.000 A 
ATOM      5  C   UNL     1       4.114   3.694  19.795  0.00  0.00    +0.000 A 
ATOM      6  C   UNL     1       4.424   2.227  19.804  0.00  0.00    +0.000 C 
ENDROOT
BRANCH   2   7
ATOM      7  N   UNL     1       2.050   6.647  20.816  0.00  0.00    +0.000 N 
ATOM      8  C   UNL     1       1.710   7.853  20.200  0.00  0.00    +0.000 C 
ATOM      9  O   UNL     1       1.971   8.197  19.046  0.00  0.00    +0.000 OA
ATOM     10  H   UNL     1       1.767   6.492  21.782  0.00  0.00    +0.000 HD
BRANCH   8  11
ATOM     11  C   UNL     1       0.980   8.860  21.098  0.00  0.00    +0.000 C 
BRANCH  11  12
ATOM     12  O   UNL     1       0.203   9.748  20.270  0.00  0.00    +0.000 OA
BRANCH  12  13
ATOM     13  C   UNL     1       0.388  11.074  20.521  0.00  0.00    +0.000 C 
ATOM     14  O   UNL     1       1.385  11.709  20.229  0.00  0.00    +0.000 OA
BRANCH  13  15
ATOM     15  C   UNL     1      -0.858  11.626  21.095  0.00  0.00    +0.000 A 
ATOM     16  C   UNL     1      -1.060  11.554  22.484  0.00  0.00    +0.000 A 
ATOM     17  C   UNL     1      -2.237  12.026  23.057  0.00  0.00    +0.000 A 
ATOM     18  C   UNL     1      -3.195  12.555  22.219  0.00  0.00    +0.000 A 
ATOM     19  N   UNL     1      -3.053  12.627  20.880  0.00  0.00    +0.000 NA
ATOM     20  C   UNL     1      -1.897  12.161  20.326  0.00  0.00    +0.000 A 
BRANCH  20  21
ATOM     21  O   UNL     1      -1.799  12.222  18.948  0.00  0.00    +0.000 OA
BRANCH  21  22
ATOM     22  C   UNL     1      -2.846  11.484  18.297  0.00  0.00    +0.000 C 
ATOM     23  C   UNL     1      -2.328  10.135  17.836  0.00  0.00    +0.000 C 
ENDBRANCH  21  22
ENDBRANCH  20  21
ENDBRANCH  13  15
ENDBRANCH  12  13
ENDBRANCH  11  12
ENDBRANCH   8  11
ENDBRANCH   2   7
BRANCH   4  24
ATOM     24  C   UNL     1       6.061   4.575  18.270  0.00  0.00    +0.000 C 
ATOM     25  O   UNL     1       7.188   4.548  18.781  0.00  0.00    +0.000 OA
ATOM     26  N   UNL     1       5.959   4.526  16.864  0.00  0.00    +0.000 N 
BRANCH  26  27
ATOM     27  C   UNL     1       4.718   4.481  16.085  0.00  0.00    +0.000 C 
ATOM     28  C   UNL     1       3.798   3.306  16.394  0.00  0.00    +0.000 C 
ENDBRANCH  26  27
BRANCH  26  29
ATOM     29  C   UNL     1       7.223   4.633  16.122  0.00  0.00    +0.000 C 
ATOM     30  C   UNL     1       7.047   4.811  14.619  0.00  0.00    +0.000 C 
ENDBRANCH  26  29
ENDBRANCH   4  24
BRANCH   1  31
ATOM     31  C   UNL     1       1.926   3.569  21.267  0.00  0.00    +0.000 C 
ATOM     32  O   UNL     1       2.166   3.026  22.338  0.00  0.00    +0.000 OA
BRANCH  31  33
ATOM     33  O   UNL     1       0.706   3.575  20.662  0.00  0.00    +0.000 OA
BRANCH  33  35
ATOM     34  C   UNL     1       0.883   1.972  18.845  0.00  0.00    +0.000 C 
ATOM     35  C   UNL     1       0.576   3.404  19.242  0.00  0.00    +0.000 C 
ENDBRANCH  33  35
ENDBRANCH  31  33
ENDBRANCH   1  31
TORSDOF 13
ENDMDL
MODEL 3
REMARK VINA RESULT:      -7.1      7.632     10.962
REMARK  Name = 
REMARK  18 active torsions:
REMARK  status: ('A' for Active; 'I' for Inactive)
REMARK    1  A    between atoms: C_1  and  C_2
REMARK    2  A    between atoms: C_2  and  O_3
REMARK    3  A    between atoms: O_3  and  C_4
REMARK    4  A    between atoms: C_4  and  C_6
REMARK    5  A    between atoms: C_7  and  N_8
REMARK    6  A    between atoms: C_9  and  C_11
REMARK    7  A    between atoms: C_11  and  O_12
REMARK    8  A    between atoms: O_12  and  C_13
REMARK    9  A    between atoms: C_13  and  C_15
REMARK   10  A    between atoms: C_20  and  O_21
REMARK   11  A    between atoms: O_21  and  C_22
REMARK   12  A    between atoms: C_22  and  C_23
REMARK   13  A    between atoms: C_25  and  C_26
REMARK   14  A    between atoms: N_28  and  C_29
REMARK   15  A    between atoms: N_28  and  C_31
REMARK   16  A    between atoms: C_29  and  C_30
REMARK   17  A    between atoms: C_31  and  C_32
REMARK   18  A    between atoms: C_33  and  C_34
REMARK                            x       y       z     vdW  Elec       q    Type
REMARK                         _______ _______ _______ _____ _____    ______ ____
ROOT
ATOM      1  C   UNL     1      -2.225  11.309  18.595  0.00  0.00    +0.000 A 
ATOM      2  C   UNL     1      -0.856  11.313  18.863  0.00  0.00    +0.000 A 
ATOM      3  S   UNL     1      -0.479  12.351  20.150  0.00  0.00    +0.000 S 
ATOM      4  C   UNL     1      -2.047  12.993  20.276  0.00  0.00    +0.000 A 
ATOM      5  C   UNL     1      -2.926  12.319  19.432  0.00  0.00    +0.000 A 
ATOM      6  C   UNL     1      -4.405  12.560  19.395  0.00  0.00    +0.000 C 
ENDROOT
BRANCH   2   7
ATOM      7  N   UNL     1       0.180  10.604  18.235  0.00  0.00    +0.000 N 
ATOM      8  C   UNL     1       0.970   9.628  18.848  0.00  0.00    +0.000 C 
ATOM      9  O   UNL     1       0.797   9.124  19.959  0.00  0.00    +0.000 OA
ATOM     10  H   UNL     1       0.437  10.931  17.306  0.00  0.00    +0.000 HD
BRANCH   8  11
ATOM     11  C   UNL     1       2.207   9.197  18.051  0.00  0.00    +0.000 C 
BRANCH  11  12
ATOM     12  O   UNL     1       2.049   7.821  17.652  0.00  0.00    +0.000 OA
BRANCH  12  13
ATOM     13  C   UNL     1       3.125   7.024  17.901  0.00  0.00    +0.000 C 
ATOM     14  O   UNL     1       4.274   7.283  17.592  0.00  0.00    +0.000 OA
BRANCH  13  15
ATOM     15  C   UNL     1       2.681   5.863  18.702  0.00  0.00    +0.000 A 
ATOM     16  C   UNL     1       2.250   6.070  20.024  0.00  0.00    +0.000 A 
ATOM     17  C   UNL     1       1.862   4.998  20.822  0.00  0.00    +0.000 A 
ATOM     18  C   UNL     1       1.926   3.734  20.277  0.00  0.00    +0.000 A 
ATOM     19  N   UNL     1       2.351   3.486  19.022  0.00  0.00    +0.000 NA
ATOM     20  C   UNL     1       2.730   4.541  18.247  0.00  0.00    +0.000 A 
BRANCH  20  21
ATOM     21  O   UNL     1       3.191   4.247  16.977  0.00  0.00    +0.000 OA
BRANCH  21  22
ATOM     22  C   UNL     1       4.526   3.719  16.993  0.00  0.00    +0.000 C 
ATOM     23  C   UNL     1       5.287   4.177  15.763  0.00  0.00    +0.000 C 
ENDBRANCH  21  22
ENDBRANCH  20  21
ENDBRANCH  13  15
ENDBRANCH  12  13
ENDBRANCH  11  12
ENDBRANCH   8  11
ENDBRANCH   2   7
BRANCH   4  24
ATOM     24  C   UNL     1      -2.226  14.004  21.321  0.00  0.00    +0.000 C 
ATOM     25  O   UNL     1      -1.915  15.181  21.096  0.00  0.00    +0.000 OA
ATOM     26  N   UNL     1      -2.752  13.678  22.588  0.00  0.00    +0.000 N 
BRANCH  26  27
ATOM     27  C   UNL     1      -3.235  12.360  23.012  0.00  0.00    +0.000 C 
ATOM     28  C   UNL     1      -4.038  12.348  24.308  0.00  0.00    +0.000 C 
ENDBRANCH  26  27
BRANCH  26  29
ATOM     29  C   UNL     1      -2.713  14.744  23.597  0.00  0.00    +0.000 C 
ATOM     30  C   UNL     1      -1.402  14.821  24.369  0.00  0.00    +0.000 C 
ENDBRANCH  26  29
ENDBRANCH   4  24
BRANCH   1  31
ATOM     31  C   UNL     1      -2.862  10.422  17.597  0.00  0.00    +0.000 C 
ATOM     32  O   UNL     1      -3.455   9.390  17.886  0.00  0.00    +0.000 OA
BRANCH  31  33
ATOM     33  O   UNL     1      -2.707  10.893  16.330  0.00  0.00    +0.000 OA
BRANCH  33  35
ATOM     34  C   UNL     1      -2.991   9.887  14.137  0.00  0.00    +0.000 C 
ATOM     35  C   UNL     1      -3.662  10.593  15.300  0.00  0.00    +0.000 C 
ENDBRANCH  33  35
ENDBRANCH  31  33
ENDBRANCH   1  31
TORSDOF 13
ENDMDL
MODEL 4
REMARK VINA RESULT:      -7.0      6.021      8.866
REMARK  Name = 
REMARK  18 active torsions:
REMARK  status: ('A' for Active; 'I' for Inactive)
REMARK    1  A    between atoms: C_1  and  C_2
REMARK    2  A    between atoms: C_2  and  O_3
REMARK    3  A    between atoms: O_3  and  C_4
REMARK    4  A    between atoms: C_4  and  C_6
REMARK    5  A    between atoms: C_7  and  N_8
REMARK    6  A    between atoms: C_9  and  C_11
REMARK    7  A    between atoms: C_11  and  O_12
REMARK    8  A    between atoms: O_12  and  C_13
REMARK    9  A    between atoms: C_13  and  C_15
REMARK   10  A    between atoms: C_20  and  O_21
REMARK   11  A    between atoms: O_21  and  C_22
REMARK   12  A    between atoms: C_22  and  C_23
REMARK   13  A    between atoms: C_25  and  C_26
REMARK   14  A    between atoms: N_28  and  C_29
REMARK   15  A    between atoms: N_28  and  C_31
REMARK   16  A    between atoms: C_29  and  C_30
REMARK   17  A    between atoms: C_31  and  C_32
REMARK   18  A    between atoms: C_33  and  C_34
REMARK                            x       y       z     vdW  Elec       q    Type
REMARK                         _______ _______ _______ _____ _____    ______ ____
ROOT
ATOM      1  C   UNL     1       2.542   5.132  18.720  0.00  0.00    +0.000 A 
ATOM      2  C   UNL     1       2.790   6.441  19.132  0.00  0.00    +0.000 A 
ATOM      3  S   UNL     1       3.877   7.223  18.092  0.00  0.00    +0.000 S 
ATOM      4  C   UNL     1       4.228   5.830  17.183  0.00  0.00    +0.000 A 
ATOM      5  C   UNL     1       3.409   4.772  17.567  0.00  0.00    +0.000 A 
ATOM      6  C   UNL     1       3.381   3.440  16.879  0.00  0.00    +0.000 C 
ENDROOT
BRANCH   2   7
ATOM      7  N   UNL     1       2.278   7.143  20.235  0.00  0.00    +0.000 N 
ATOM      8  C   UNL     1       1.605   8.365  20.164  0.00  0.00    +0.000 C 
ATOM      9  O   UNL     1       1.216   8.940  19.146  0.00  0.00    +0.000 OA
ATOM     10  H   UNL     1       2.540   6.779  21.148  0.00  0.00    +0.000 HD
BRANCH   8  11
ATOM     11  C   UNL     1       1.388   9.067  21.510  0.00  0.00    +0.000 C 
BRANCH  11  12
ATOM     12  O   UNL     1       0.807  10.365  21.272  0.00  0.00    +0.000 OA
BRANCH  12  13
ATOM     13  C   UNL     1      -0.206  10.704  22.118  0.00  0.00    +0.000 C 
ATOM     14  O   UNL     1      -0.181  10.570  23.327  0.00  0.00    +0.000 OA
BRANCH  13  15
ATOM     15  C   UNL     1      -1.278  11.357  21.336  0.00  0.00    +0.000 A 
ATOM     16  C   UNL     1      -1.237  11.291  19.933  0.00  0.00    +0.000 A 
ATOM     17  C   UNL     1      -2.206  11.927  19.162  0.00  0.00    +0.000 A 
ATOM     18  C   UNL     1      -3.193  12.628  19.819  0.00  0.00    +0.000 A 
ATOM     19  N   UNL     1      -3.261  12.735  21.161  0.00  0.00    +0.000 NA
ATOM     20  C   UNL     1      -2.308  12.110  21.909  0.00  0.00    +0.000 A 
BRANCH  20  21
ATOM     21  O   UNL     1      -2.391  12.268  23.281  0.00  0.00    +0.000 OA
BRANCH  21  22
ATOM     22  C   UNL     1      -2.448  13.651  23.665  0.00  0.00    +0.000 C 
ATOM     23  C   UNL     1      -1.067  14.274  23.591  0.00  0.00    +0.000 C 
ENDBRANCH  21  22
ENDBRANCH  20  21
ENDBRANCH  13  15
ENDBRANCH  12  13
ENDBRANCH  11  12
ENDBRANCH   8  11
ENDBRANCH   2   7
BRANCH   4  24
ATOM     24  C   UNL     1       5.189   6.021  16.095  0.00  0.00    +0.000 C 
ATOM     25  O   UNL     1       4.936   6.821  15.186  0.00  0.00    +0.000 OA
ATOM     26  N   UNL     1       6.412   5.318  16.052  0.00  0.00    +0.000 N 
BRANCH  26  27
ATOM     27  C   UNL     1       6.911   4.386  17.066  0.00  0.00    +0.000 C 
ATOM     28  C   UNL     1       7.663   5.027  18.227  0.00  0.00    +0.000 C 
ENDBRANCH  26  27
BRANCH  26  29
ATOM     29  C   UNL     1       7.199   5.470  14.822  0.00  0.00    +0.000 C 
ATOM     30  C   UNL     1       6.867   4.448  13.742  0.00  0.00    +0.000 C 
ENDBRANCH  26  29
ENDBRANCH   4  24
BRANCH   1  31
ATOM     31  C   UNL     1       1.556   4.240  19.371  0.00  0.00    +0.000 C 
ATOM     32  O   UNL     1       0.835   3.464  18.758  0.00  0.00    +0.000 OA
BRANCH  31  33
ATOM     33  O   UNL     1       1.552   4.392  20.723  0.00  0.00    +0.000 OA
BRANCH  33  35
ATOM     34  C   UNL     1       1.388   2.381  22.076  0.00  0.00    +0.000 C 
ATOM     35  C   UNL     1       2.284   3.499  21.577  0.00  0.00    +0.000 C 
ENDBRANCH  33  35
ENDBRANCH  31  33
ENDBRANCH   1  31
TORSDOF 13
ENDMDL
MODEL 5
REMARK VINA RESULT:      -7.0      7.058     10.790
REMARK  Name = 
REMARK  18 active torsions:
REMARK  status: ('A' for Active; 'I' for Inactive)
REMARK    1  A    between atoms: C_1  and  C_2
REMARK    2  A    between atoms: C_2  and  O_3
REMARK    3  A    between atoms: O_3  and  C_4
REMARK    4  A    between atoms: C_4  and  C_6
REMARK    5  A    between atoms: C_7  and  N_8
REMARK    6  A    between atoms: C_9  and  C_11
REMARK    7  A    between atoms: C_11  and  O_12
REMARK    8  A    between atoms: O_12  and  C_13
REMARK    9  A    between atoms: C_13  and  C_15
REMARK   10  A    between atoms: C_20  and  O_21
REMARK   11  A    between atoms: O_21  and  C_22
REMARK   12  A    between atoms: C_22  and  C_23
REMARK   13  A    between atoms: C_25  and  C_26
REMARK   14  A    between atoms: N_28  and  C_29
REMARK   15  A    between atoms: N_28  and  C_31
REMARK   16  A    between atoms: C_29  and  C_30
REMARK   17  A    between atoms: C_31  and  C_32
REMARK   18  A    between atoms: C_33  and  C_34
REMARK                            x       y       z     vdW  Elec       q    Type
REMARK                         _______ _______ _______ _____ _____    ______ ____
ROOT
ATOM      1  C   UNL     1      -1.225  11.256  18.998  0.00  0.00    +0.000 A 
ATOM      2  C   UNL     1       0.144  11.004  19.086  0.00  0.00    +0.000 A 
ATOM      3  S   UNL     1       0.849  11.849  20.376  0.00  0.00    +0.000 S 
ATOM      4  C   UNL     1      -0.553  12.737  20.744  0.00  0.00    +0.000 A 
ATOM      5  C   UNL     1      -1.631  12.297  19.980  0.00  0.00    +0.000 A 
ATOM      6  C   UNL     1      -3.037  12.789  20.150  0.00  0.00    +0.000 C 
ENDROOT
BRANCH   2   7
ATOM      7  N   UNL     1       0.954  10.183  18.286  0.00  0.00    +0.000 N 
ATOM      8  C   UNL     1       1.593   9.020  18.721  0.00  0.00    +0.000 C 
ATOM      9  O   UNL     1       1.433   8.443  19.798  0.00  0.00    +0.000 OA
ATOM     10  H   UNL     1       1.180  10.553  17.365  0.00  0.00    +0.000 HD
BRANCH   8  11
ATOM     11  C   UNL     1       2.639   8.451  17.753  0.00  0.00    +0.000 C 
BRANCH  11  12
ATOM     12  O   UNL     1       3.174   7.233  18.307  0.00  0.00    +0.000 OA
BRANCH  12  13
ATOM     13  C   UNL     1       3.924   6.492  17.444  0.00  0.00    +0.000 C 
ATOM     14  O   UNL     1       4.856   6.916  16.786  0.00  0.00    +0.000 OA
BRANCH  13  15
ATOM     15  C   UNL     1       3.492   5.081  17.531  0.00  0.00    +0.000 A 
ATOM     16  C   UNL     1       2.167   4.794  17.902  0.00  0.00    +0.000 A 
ATOM     17  C   UNL     1       1.734   3.477  18.033  0.00  0.00    +0.000 A 
ATOM     18  C   UNL     1       2.648   2.473  17.800  0.00  0.00    +0.000 A 
ATOM     19  N   UNL     1       3.933   2.700  17.462  0.00  0.00    +0.000 NA
ATOM     20  C   UNL     1       4.349   3.992  17.336  0.00  0.00    +0.000 A 
BRANCH  20  21
ATOM     21  O   UNL     1       5.681   4.189  17.020  0.00  0.00    +0.000 OA
BRANCH  21  22
ATOM     22  C   UNL     1       5.998   3.728  15.697  0.00  0.00    +0.000 C 
ATOM     23  C   UNL     1       6.966   4.685  15.026  0.00  0.00    +0.000 C 
ENDBRANCH  21  22
ENDBRANCH  20  21
ENDBRANCH  13  15
ENDBRANCH  12  13
ENDBRANCH  11  12
ENDBRANCH   8  11
ENDBRANCH   2   7
BRANCH   4  24
ATOM     24  C   UNL     1      -0.424  13.672  21.864  0.00  0.00    +0.000 C 
ATOM     25  O   UNL     1      -0.312  13.237  23.017  0.00  0.00    +0.000 OA
ATOM     26  N   UNL     1      -0.417  15.069  21.669  0.00  0.00    +0.000 N 
BRANCH  26  27
ATOM     27  C   UNL     1      -0.472  15.764  20.379  0.00  0.00    +0.000 C 
ATOM     28  C   UNL     1       0.876  15.990  19.703  0.00  0.00    +0.000 C 
ENDBRANCH  26  27
BRANCH  26  29
ATOM     29  C   UNL     1      -0.459  15.890  22.885  0.00  0.00    +0.000 C 
ATOM     30  C   UNL     1      -1.219  17.201  22.724  0.00  0.00    +0.000 C 
ENDBRANCH  26  29
ENDBRANCH   4  24
BRANCH   1  31
ATOM     31  C   UNL     1      -2.124  10.578  18.038  0.00  0.00    +0.000 C 
ATOM     32  O   UNL     1      -2.697   9.523  18.274  0.00  0.00    +0.000 OA
BRANCH  31  33
ATOM     33  O   UNL     1      -2.230  11.269  16.870  0.00  0.00    +0.000 OA
BRANCH  33  35
ATOM     34  C   UNL     1      -3.016  10.309  14.782  0.00  0.00    +0.000 C 
ATOM     35  C   UNL     1      -3.373  11.118  16.014  0.00  0.00    +0.000 C 
ENDBRANCH  33  35
ENDBRANCH  31  33
ENDBRANCH   1  31
TORSDOF 13
ENDMDL
MODEL 6
REMARK VINA RESULT:      -7.0      1.516      1.909
REMARK  Name = 
REMARK  18 active torsions:
REMARK  status: ('A' for Active; 'I' for Inactive)
REMARK    1  A    between atoms: C_1  and  C_2
REMARK    2  A    between atoms: C_2  and  O_3
REMARK    3  A    between atoms: O_3  and  C_4
REMARK    4  A    between atoms: C_4  and  C_6
REMARK    5  A    between atoms: C_7  and  N_8
REMARK    6  A    between atoms: C_9  and  C_11
REMARK    7  A    between atoms: C_11  and  O_12
REMARK    8  A    between atoms: O_12  and  C_13
REMARK    9  A    between atoms: C_13  and  C_15
REMARK   10  A    between atoms: C_20  and  O_21
REMARK   11  A    between atoms: O_21  and  C_22
REMARK   12  A    between atoms: C_22  and  C_23
REMARK   13  A    between atoms: C_25  and  C_26
REMARK   14  A    between atoms: N_28  and  C_29
REMARK   15  A    between atoms: N_28  and  C_31
REMARK   16  A    between atoms: C_29  and  C_30
REMARK   17  A    between atoms: C_31  and  C_32
REMARK   18  A    between atoms: C_33  and  C_34
REMARK                            x       y       z     vdW  Elec       q    Type
REMARK                         _______ _______ _______ _____ _____    ______ ____
ROOT
ATOM      1  C   UNL     1       6.073   5.105  17.068  0.00  0.00    +0.000 A 
ATOM      2  C   UNL     1       5.800   6.454  17.296  0.00  0.00    +0.000 A 
ATOM      3  S   UNL     1       4.260   6.670  17.971  0.00  0.00    +0.000 S 
ATOM      4  C   UNL     1       3.803   5.041  17.802  0.00  0.00    +0.000 A 
ATOM      5  C   UNL     1       4.876   4.271  17.361  0.00  0.00    +0.000 A 
ATOM      6  C   UNL     1       4.840   2.778  17.228  0.00  0.00    +0.000 C 
ENDROOT
BRANCH   2   7
ATOM      7  N   UNL     1       6.601   7.581  17.051  0.00  0.00    +0.000 N 
ATOM      8  C   UNL     1       7.732   7.936  17.789  0.00  0.00    +0.000 C 
ATOM      9  O   UNL     1       8.298   7.261  18.651  0.00  0.00    +0.000 OA
ATOM     10  H   UNL     1       6.237   8.238  16.364  0.00  0.00    +0.000 HD
BRANCH   8  11
ATOM     11  C   UNL     1       8.274   9.343  17.513  0.00  0.00    +0.000 C 
BRANCH  11  12
ATOM     12  O   UNL     1       8.877   9.857  18.717  0.00  0.00    +0.000 OA
BRANCH  12  13
ATOM     13  C   UNL     1       9.700  10.927  18.535  0.00  0.00    +0.000 C 
ATOM     14  O   UNL     1      10.446  11.082  17.585  0.00  0.00    +0.000 OA
BRANCH  13  15
ATOM     15  C   UNL     1       9.450  11.907  19.613  0.00  0.00    +0.000 A 
ATOM     16  C   UNL     1       9.538  11.486  20.952  0.00  0.00    +0.000 A 
ATOM     17  C   UNL     1       9.270  12.369  21.994  0.00  0.00    +0.000 A 
ATOM     18  C   UNL     1       8.908  13.659  21.669  0.00  0.00    +0.000 A 
ATOM     19  N   UNL     1       8.792  14.101  20.400  0.00  0.00    +0.000 NA
ATOM     20  C   UNL     1       9.055  13.229  19.385  0.00  0.00    +0.000 A 
BRANCH  20  21
ATOM     21  O   UNL     1       8.895  13.708  18.098  0.00  0.00    +0.000 OA
BRANCH  21  22
ATOM     22  C   UNL     1       7.568  13.480  17.596  0.00  0.00    +0.000 C 
ATOM     23  C   UNL     1       6.733  14.739  17.733  0.00  0.00    +0.000 C 
ENDBRANCH  21  22
ENDBRANCH  20  21
ENDBRANCH  13  15
ENDBRANCH  12  13
ENDBRANCH  11  12
ENDBRANCH   8  11
ENDBRANCH   2   7
BRANCH   4  24
ATOM     24  C   UNL     1       2.456   4.718  18.276  0.00  0.00    +0.000 C 
ATOM     25  O   UNL     1       1.489   4.849  17.515  0.00  0.00    +0.000 OA
ATOM     26  N   UNL     1       2.222   4.251  19.586  0.00  0.00    +0.000 N 
BRANCH  26  27
ATOM     27  C   UNL     1       3.241   3.972  20.602  0.00  0.00    +0.000 C 
ATOM     28  C   UNL     1       3.217   2.561  21.177  0.00  0.00    +0.000 C 
ENDBRANCH  26  27
BRANCH  26  29
ATOM     29  C   UNL     1       0.814   4.135  19.987  0.00  0.00    +0.000 C 
ATOM     30  C   UNL     1       0.164   2.812  19.599  0.00  0.00    +0.000 C 
ENDBRANCH  26  29
ENDBRANCH   4  24
BRANCH   1  31
ATOM     31  C   UNL     1       7.378   4.602  16.585  0.00  0.00    +0.000 C 
ATOM     32  O   UNL     1       8.268   4.204  17.325  0.00  0.00    +0.000 OA
BRANCH  31  33
ATOM     33  O   UNL     1       7.463   4.639  15.227  0.00  0.00    +0.000 OA
BRANCH  33  35
ATOM     34  C   UNL     1       6.739   4.322  12.931  0.00  0.00    +0.000 C 
ATOM     35  C   UNL     1       6.414   4.117  14.398  0.00  0.00    +0.000 C 
ENDBRANCH  33  35
ENDBRANCH  31  33
ENDBRANCH   1  31
TORSDOF 13
ENDMDL
MODEL 7
REMARK VINA RESULT:      -6.9      7.682     10.804
REMARK  Name = 
REMARK  18 active torsions:
REMARK  status: ('A' for Active; 'I' for Inactive)
REMARK    1  A    between atoms: C_1  and  C_2
REMARK    2  A    between atoms: C_2  and  O_3
REMARK    3  A    between atoms: O_3  and  C_4
REMARK    4  A    between atoms: C_4  and  C_6
REMARK    5  A    between atoms: C_7  and  N_8
REMARK    6  A    between atoms: C_9  and  C_11
REMARK    7  A    between atoms: C_11  and  O_12
REMARK    8  A    between atoms: O_12  and  C_13
REMARK    9  A    between atoms: C_13  and  C_15
REMARK   10  A    between atoms: C_20  and  O_21
REMARK   11  A    between atoms: O_21  and  C_22
REMARK   12  A    between atoms: C_22  and  C_23
REMARK   13  A    between atoms: C_25  and  C_26
REMARK   14  A    between atoms: N_28  and  C_29
REMARK   15  A    between atoms: N_28  and  C_31
REMARK   16  A    between atoms: C_29  and  C_30
REMARK   17  A    between atoms: C_31  and  C_32
REMARK   18  A    between atoms: C_33  and  C_34
REMARK                            x       y       z     vdW  Elec       q    Type
REMARK                         _______ _______ _______ _____ _____    ______ ____
ROOT
ATOM      1  C   UNL     1      -0.248  11.973  20.328  0.00  0.00    +0.000 A 
ATOM      2  C   UNL     1      -0.434  10.887  21.183  0.00  0.00    +0.000 A 
ATOM      3  S   UNL     1      -1.120  11.368  22.657  0.00  0.00    +0.000 S 
ATOM      4  C   UNL     1      -1.012  13.032  22.325  0.00  0.00    +0.000 A 
ATOM      5  C   UNL     1      -0.584  13.247  21.018  0.00  0.00    +0.000 A 
ATOM      6  C   UNL     1      -0.502  14.598  20.373  0.00  0.00    +0.000 C 
ENDROOT
BRANCH   2   7
ATOM      7  N   UNL     1      -0.141   9.529  20.980  0.00  0.00    +0.000 N 
ATOM      8  C   UNL     1       1.009   8.880  21.438  0.00  0.00    +0.000 C 
ATOM      9  O   UNL     1       1.857   9.330  22.210  0.00  0.00    +0.000 OA
ATOM     10  H   UNL     1      -0.762   9.036  20.342  0.00  0.00    +0.000 HD
BRANCH   8  11
ATOM     11  C   UNL     1       1.239   7.479  20.859  0.00  0.00    +0.000 C 
BRANCH  11  12
ATOM     12  O   UNL     1       2.456   7.486  20.087  0.00  0.00    +0.000 OA
BRANCH  12  13
ATOM     13  C   UNL     1       2.279   7.523  18.737  0.00  0.00    +0.000 C 
ATOM     14  O   UNL     1       1.968   8.513  18.100  0.00  0.00    +0.000 OA
BRANCH  13  15
ATOM     15  C   UNL     1       2.637   6.204  18.175  0.00  0.00    +0.000 A 
ATOM     16  C   UNL     1       1.688   5.168  18.206  0.00  0.00    +0.000 A 
ATOM     17  C   UNL     1       2.001   3.900  17.723  0.00  0.00    +0.000 A 
ATOM     18  C   UNL     1       3.270   3.696  17.226  0.00  0.00    +0.000 A 
ATOM     19  N   UNL     1       4.219   4.654  17.194  0.00  0.00    +0.000 NA
ATOM     20  C   UNL     1       3.904   5.892  17.670  0.00  0.00    +0.000 A 
BRANCH  20  21
ATOM     21  O   UNL     1       4.911   6.840  17.651  0.00  0.00    +0.000 OA
BRANCH  21  22
ATOM     22  C   UNL     1       6.190   6.279  17.990  0.00  0.00    +0.000 C 
ATOM     23  C   UNL     1       7.305   7.119  17.395  0.00  0.00    +0.000 C 
ENDBRANCH  21  22
ENDBRANCH  20  21
ENDBRANCH  13  15
ENDBRANCH  12  13
ENDBRANCH  11  12
ENDBRANCH   8  11
ENDBRANCH   2   7
BRANCH   4  24
ATOM     24  C   UNL     1      -1.515  13.913  23.381  0.00  0.00    +0.000 C 
ATOM     25  O   UNL     1      -0.753  14.289  24.281  0.00  0.00    +0.000 OA
ATOM     26  N   UNL     1      -2.853  14.357  23.404  0.00  0.00    +0.000 N 
BRANCH  26  27
ATOM     27  C   UNL     1      -3.878  14.073  22.395  0.00  0.00    +0.000 C 
ATOM     28  C   UNL     1      -4.799  12.901  22.715  0.00  0.00    +0.000 C 
ENDBRANCH  26  27
BRANCH  26  29
ATOM     29  C   UNL     1      -3.270  15.088  24.608  0.00  0.00    +0.000 C 
ATOM     30  C   UNL     1      -3.569  16.562  24.367  0.00  0.00    +0.000 C 
ENDBRANCH  26  29
ENDBRANCH   4  24
BRANCH   1  31
ATOM     31  C   UNL     1       0.235  11.846  18.935  0.00  0.00    +0.000 C 
ATOM     32  O   UNL     1       1.201  12.456  18.493  0.00  0.00    +0.000 OA
BRANCH  31  33
ATOM     33  O   UNL     1      -0.523  10.977  18.214  0.00  0.00    +0.000 OA
BRANCH  33  35
ATOM     34  C   UNL     1      -2.713  10.044  17.732  0.00  0.00    +0.000 C 
ATOM     35  C   UNL     1      -1.869  11.299  17.829  0.00  0.00    +0.000 C 
ENDBRANCH  33  35
ENDBRANCH  31  33
ENDBRANCH   1  31
TORSDOF 13
ENDMDL
MODEL 8
REMARK VINA RESULT:      -6.9      5.480      8.555
REMARK  Name = 
REMARK  18 active torsions:
REMARK  status: ('A' for Active; 'I' for Inactive)
REMARK    1  A    between atoms: C_1  and  C_2
REMARK    2  A    between atoms: C_2  and  O_3
REMARK    3  A    between atoms: O_3  and  C_4
REMARK    4  A    between atoms: C_4  and  C_6
REMARK    5  A    between atoms: C_7  and  N_8
REMARK    6  A    between atoms: C_9  and  C_11
REMARK    7  A    between atoms: C_11  and  O_12
REMARK    8  A    between atoms: O_12  and  C_13
REMARK    9  A    between atoms: C_13  and  C_15
REMARK   10  A    between atoms: C_20  and  O_21
REMARK   11  A    between atoms: O_21  and  C_22
REMARK   12  A    between atoms: C_22  and  C_23
REMARK   13  A    between atoms: C_25  and  C_26
REMARK   14  A    between atoms: N_28  and  C_29
REMARK   15  A    between atoms: N_28  and  C_31
REMARK   16  A    between atoms: C_29  and  C_30
REMARK   17  A    between atoms: C_31  and  C_32
REMARK   18  A    between atoms: C_33  and  C_34
REMARK                            x       y       z     vdW  Elec       q    Type
REMARK                         _______ _______ _______ _____ _____    ______ ____
ROOT
ATOM      1  C   UNL     1       2.835   4.169  20.319  0.00  0.00    +0.000 A 
ATOM      2  C   UNL     1       2.696   5.543  20.122  0.00  0.00    +0.000 A 
ATOM      3  S   UNL     1       3.487   6.050  18.710  0.00  0.00    +0.000 S 
ATOM      4  C   UNL     1       4.215   4.544  18.409  0.00  0.00    +0.000 A 
ATOM      5  C   UNL     1       3.749   3.583  19.302  0.00  0.00    +0.000 A 
ATOM      6  C   UNL     1       4.101   2.127  19.229  0.00  0.00    +0.000 C 
ENDROOT
BRANCH   2   7
ATOM      7  N   UNL     1       2.021   6.494  20.903  0.00  0.00    +0.000 N 
ATOM      8  C   UNL     1       1.694   7.787  20.487  0.00  0.00    +0.000 C 
ATOM      9  O   UNL     1       1.795   8.248  19.348  0.00  0.00    +0.000 OA
ATOM     10  H   UNL     1       1.884   6.244  21.880  0.00  0.00    +0.000 HD
BRANCH   8  11
ATOM     11  C   UNL     1       1.211   8.726  21.599  0.00  0.00    +0.000 C 
BRANCH  11  12
ATOM     12  O   UNL     1       0.167   9.571  21.076  0.00  0.00    +0.000 OA
BRANCH  12  13
ATOM     13  C   UNL     1       0.372  10.907  21.244  0.00  0.00    +0.000 C 
ATOM     14  O   UNL     1       1.453  11.463  21.168  0.00  0.00    +0.000 OA
BRANCH  13  15
ATOM     15  C   UNL     1      -0.937  11.571  21.417  0.00  0.00    +0.000 A 
ATOM     16  C   UNL     1      -1.461  11.719  22.713  0.00  0.00    +0.000 A 
ATOM     17  C   UNL     1      -2.709  12.303  22.914  0.00  0.00    +0.000 A 
ATOM     18  C   UNL     1      -3.412  12.717  21.803  0.00  0.00    +0.000 A 
ATOM     19  N   UNL     1      -2.958  12.577  20.541  0.00  0.00    +0.000 NA
ATOM     20  C   UNL     1      -1.735  12.004  20.354  0.00  0.00    +0.000 A 
BRANCH  20  21
ATOM     21  O   UNL     1      -1.316  11.848  19.045  0.00  0.00    +0.000 OA
BRANCH  21  22
ATOM     22  C   UNL     1      -1.896  10.690  18.424  0.00  0.00    +0.000 C 
ATOM     23  C   UNL     1      -2.732  11.100  17.226  0.00  0.00    +0.000 C 
ENDBRANCH  21  22
ENDBRANCH  20  21
ENDBRANCH  13  15
ENDBRANCH  12  13
ENDBRANCH  11  12
ENDBRANCH   8  11
ENDBRANCH   2   7
BRANCH   4  24
ATOM     24  C   UNL     1       5.058   4.486  17.213  0.00  0.00    +0.000 C 
ATOM     25  O   UNL     1       4.590   4.056  16.152  0.00  0.00    +0.000 OA
ATOM     26  N   UNL     1       6.401   4.917  17.230  0.00  0.00    +0.000 N 
BRANCH  26  27
ATOM     27  C   UNL     1       7.106   5.515  18.368  0.00  0.00    +0.000 C 
ATOM     28  C   UNL     1       7.746   6.872  18.098  0.00  0.00    +0.000 C 
ENDBRANCH  26  27
BRANCH  26  29
ATOM     29  C   UNL     1       7.182   4.642  16.017  0.00  0.00    +0.000 C 
ATOM     30  C   UNL     1       6.572   5.213  14.743  0.00  0.00    +0.000 C 
ENDBRANCH  26  29
ENDBRANCH   4  24
BRANCH   1  31
ATOM     31  C   UNL     1       2.166   3.426  21.409  0.00  0.00    +0.000 C 
ATOM     32  O   UNL     1       2.458   3.546  22.592  0.00  0.00    +0.000 OA
BRANCH  31  33
ATOM     33  O   UNL     1       1.195   2.598  20.936  0.00  0.00    +0.000 OA
BRANCH  33  35
ATOM     34  C   UNL     1       0.505   2.149  18.651  0.00  0.00    +0.000 C 
ATOM     35  C   UNL     1       0.310   3.011  19.883  0.00  0.00    +0.000 C 
ENDBRANCH  33  35
ENDBRANCH  31  33
ENDBRANCH   1  31
TORSDOF 13
ENDMDL
MODEL 9
REMARK VINA RESULT:      -6.9      7.450     10.958
REMARK  Name = 
REMARK  18 active torsions:
REMARK  status: ('A' for Active; 'I' for Inactive)
REMARK    1  A    between atoms: C_1  and  C_2
REMARK    2  A    between atoms: C_2  and  O_3
REMARK    3  A    between atoms: O_3  and  C_4
REMARK    4  A    between atoms: C_4  and  C_6
REMARK    5  A    between atoms: C_7  and  N_8
REMARK    6  A    between atoms: C_9  and  C_11
REMARK    7  A    between atoms: C_11  and  O_12
REMARK    8  A    between atoms: O_12  and  C_13
REMARK    9  A    between atoms: C_13  and  C_15
REMARK   10  A    between atoms: C_20  and  O_21
REMARK   11  A    between atoms: O_21  and  C_22
REMARK   12  A    between atoms: C_22  and  C_23
REMARK   13  A    between atoms: C_25  and  C_26
REMARK   14  A    between atoms: N_28  and  C_29
REMARK   15  A    between atoms: N_28  and  C_31
REMARK   16  A    between atoms: C_29  and  C_30
REMARK   17  A    between atoms: C_31  and  C_32
REMARK   18  A    between atoms: C_33  and  C_34
REMARK                            x       y       z     vdW  Elec       q    Type
REMARK                         _______ _______ _______ _____ _____    ______ ____
ROOT
ATOM      1  C   UNL     1      -2.087  10.808  18.725  0.00  0.00    +0.000 A 
ATOM      2  C   UNL     1      -0.766  10.724  19.168  0.00  0.00    +0.000 A 
ATOM      3  S   UNL     1      -0.445  11.862  20.383  0.00  0.00    +0.000 S 
ATOM      4  C   UNL     1      -1.946  12.647  20.239  0.00  0.00    +0.000 A 
ATOM      5  C   UNL     1      -2.779  11.962  19.359  0.00  0.00    +0.000 A 
ATOM      6  C   UNL     1      -4.212  12.323  19.106  0.00  0.00    +0.000 C 
ENDROOT
BRANCH   2   7
ATOM      7  N   UNL     1       0.261   9.862  18.753  0.00  0.00    +0.000 N 
ATOM      8  C   UNL     1       1.528  10.271  18.329  0.00  0.00    +0.000 C 
ATOM      9  O   UNL     1       2.002  11.407  18.396  0.00  0.00    +0.000 OA
ATOM     10  H   UNL     1      -0.003   8.885  18.640  0.00  0.00    +0.000 HD
BRANCH   8  11
ATOM     11  C   UNL     1       2.377   9.179  17.666  0.00  0.00    +0.000 C 
BRANCH  11  12
ATOM     12  O   UNL     1       1.842   7.889  18.025  0.00  0.00    +0.000 OA
BRANCH  12  13
ATOM     13  C   UNL     1       2.343   7.361  19.176  0.00  0.00    +0.000 C 
ATOM     14  O   UNL     1       2.079   7.753  20.298  0.00  0.00    +0.000 OA
BRANCH  13  15
ATOM     15  C   UNL     1       3.159   6.175  18.839  0.00  0.00    +0.000 A 
ATOM     16  C   UNL     1       3.936   6.192  17.668  0.00  0.00    +0.000 A 
ATOM     17  C   UNL     1       4.686   5.079  17.296  0.00  0.00    +0.000 A 
ATOM     18  C   UNL     1       4.631   3.966  18.105  0.00  0.00    +0.000 A 
ATOM     19  N   UNL     1       3.885   3.897  19.226  0.00  0.00    +0.000 NA
ATOM     20  C   UNL     1       3.152   4.991  19.583  0.00  0.00    +0.000 A 
BRANCH  20  21
ATOM     21  O   UNL     1       2.374   4.874  20.720  0.00  0.00    +0.000 OA
BRANCH  21  22
ATOM     22  C   UNL     1       1.262   3.985  20.527  0.00  0.00    +0.000 C 
ATOM     23  C   UNL     1       1.375   2.794  21.461  0.00  0.00    +0.000 C 
ENDBRANCH  21  22
ENDBRANCH  20  21
ENDBRANCH  13  15
ENDBRANCH  12  13
ENDBRANCH  11  12
ENDBRANCH   8  11
ENDBRANCH   2   7
BRANCH   4  24
ATOM     24  C   UNL     1      -2.147  13.780  21.146  0.00  0.00    +0.000 C 
ATOM     25  O   UNL     1      -1.919  14.930  20.751  0.00  0.00    +0.000 OA
ATOM     26  N   UNL     1      -2.604  13.600  22.468  0.00  0.00    +0.000 N 
BRANCH  26  27
ATOM     27  C   UNL     1      -2.987  12.328  23.088  0.00  0.00    +0.000 C 
ATOM     28  C   UNL     1      -4.001  12.435  24.220  0.00  0.00    +0.000 C 
ENDBRANCH  26  27
BRANCH  26  29
ATOM     29  C   UNL     1      -2.593  14.795  23.322  0.00  0.00    +0.000 C 
ATOM     30  C   UNL     1      -1.341  14.935  24.179  0.00  0.00    +0.000 C 
ENDBRANCH  26  29
ENDBRANCH   4  24
BRANCH   1  31
ATOM     31  C   UNL     1      -2.685   9.874  17.746  0.00  0.00    +0.000 C 
ATOM     32  O   UNL     1      -3.656   9.169  17.987  0.00  0.00    +0.000 OA
BRANCH  31  33
ATOM     33  O   UNL     1      -2.024   9.896  16.557  0.00  0.00    +0.000 OA
BRANCH  33  35
ATOM     34  C   UNL     1      -3.674  10.974  15.138  0.00  0.00    +0.000 C 
ATOM     35  C   UNL     1      -2.729   9.801  15.309  0.00  0.00    +0.000 C 
ENDBRANCH  33  35
ENDBRANCH  31  33
ENDBRANCH   1  31
TORSDOF 13
ENDMDL
