MODEL 1
REMARK VINA RESULT:      -6.6      0.000      0.000
REMARK  Name = 
REMARK  22 active torsions:
REMARK  status: ('A' for Active; 'I' for Inactive)
REMARK    1  A    between atoms: C_1  and  C_2
REMARK    2  A    between atoms: C_3  and  C_4
REMARK    3  A    between atoms: C_7  and  C_8
REMARK    4  A    between atoms: C_9  and  O_10
REMARK    5  A    between atoms: C_13  and  C_14
REMARK    6  A    between atoms: C_13  and  C_15
REMARK    7  A    between atoms: C_15  and  C_16
REMARK    8  A    between atoms: C_16  and  C_17
REMARK    9  A    between atoms: C_17  and  C_18
REMARK   10  A    between atoms: C_18  and  C_19
REMARK   11  A    between atoms: C_19  and  C_20
REMARK   12  A    between atoms: C_20  and  C_21
REMARK   13  A    between atoms: C_21  and  C_22
REMARK   14  A    between atoms: C_22  and  C_23
REMARK   15  A    between atoms: C_23  and  C_24
REMARK   16  A    between atoms: C_24  and  C_25
REMARK   17  A    between atoms: C_25  and  C_26
REMARK   18  A    between atoms: C_26  and  C_27
REMARK   19  A    between atoms: C_27  and  C_28
REMARK   20  A    between atoms: C_28  and  C_29
REMARK   21  A    between atoms: C_29  and  C_30
REMARK   22  A    between atoms: C_30  and  O_31
REMARK                            x       y       z     vdW  Elec       q    Type
REMARK                         _______ _______ _______ _____ _____    ______ ____
ROOT
ATOM      1  C   UNL     1       2.007   8.343  17.835  0.00  0.00    +0.000 C 
ENDROOT
BRANCH   1  13
ATOM      2  C   UNL     1      -4.519  11.772  17.118  0.00  0.00    +0.000 C 
ATOM      3  C   UNL     1      -3.270  11.425  17.892  0.00  0.00    +0.000 A 
ATOM      4  C   UNL     1      -2.268  10.543  17.430  0.00  0.00    +0.000 A 
ATOM      5  C   UNL     1      -2.345   9.826  16.103  0.00  0.00    +0.000 C 
ATOM      6  C   UNL     1      -1.128  10.317  18.240  0.00  0.00    +0.000 A 
ATOM      7  C   UNL     1      -1.002  10.908  19.518  0.00  0.00    +0.000 A 
ATOM      8  C   UNL     1      -1.985  11.814  19.968  0.00  0.00    +0.000 A 
ATOM      9  C   UNL     1      -1.850  12.525  21.290  0.00  0.00    +0.000 C 
ATOM     10  C   UNL     1      -3.102  12.046  19.147  0.00  0.00    +0.000 A 
ATOM     11  C   UNL     1       0.193  10.607  20.381  0.00  0.00    +0.000 C 
ATOM     12  C   UNL     1       0.974   9.429  19.851  0.00  0.00    +0.000 C 
ATOM     13  C   UNL     1       1.149   9.541  18.335  0.00  0.00    +0.000 C 
ATOM     14  C   UNL     1       1.871  10.826  17.888  0.00  0.00    +0.000 C 
ATOM     15  O   UNL     1      -0.150   9.494  17.706  0.00  0.00    +0.000 OA
BRANCH  10  16
ATOM     16  O   UNL     1      -4.099  12.908  19.540  0.00  0.00    +0.000 OA
ATOM     17  H   UNL     1      -3.888  13.811  19.269  0.00  0.00    +0.000 HD
ENDBRANCH  10  16
ENDBRANCH   1  13
BRANCH   1  18
ATOM     18  C   UNL     1       2.532   7.481  18.974  0.00  0.00    +0.000 C 
BRANCH  18  19
ATOM     19  C   UNL     1       3.557   6.435  18.536  0.00  0.00    +0.000 C 
BRANCH  19  20
ATOM     20  C   UNL     1       4.071   5.645  19.744  0.00  0.00    +0.000 C 
BRANCH  20  21
ATOM     21  C   UNL     1       5.312   4.834  19.389  0.00  0.00    +0.000 C 
BRANCH  21  22
ATOM     22  C   UNL     1       6.323   5.636  18.592  0.00  0.00    +0.000 C 
BRANCH  22  23
ATOM     23  C   UNL     1       6.756   4.809  17.388  0.00  0.00    +0.000 C 
BRANCH  23  24
ATOM     24  C   UNL     1       6.328   5.486  16.099  0.00  0.00    +0.000 C 
BRANCH  24  25
ATOM     25  C   UNL     1       5.044   4.854  15.582  0.00  0.00    +0.000 C 
BRANCH  25  26
ATOM     26  C   UNL     1       4.809   3.523  16.277  0.00  0.00    +0.000 C 
BRANCH  26  27
ATOM     27  C   UNL     1       3.418   3.482  16.889  0.00  0.00    +0.000 C 
BRANCH  27  28
ATOM     28  C   UNL     1       3.150   2.110  17.491  0.00  0.00    +0.000 C 
BRANCH  28  29
ATOM     29  C   UNL     1       2.521   2.244  18.872  0.00  0.00    +0.000 C 
BRANCH  29  30
ATOM     30  C   UNL     1       1.415   3.292  18.852  0.00  0.00    +0.000 C 
BRANCH  30  31
ATOM     31  C   UNL     1       0.998   3.665  20.269  0.00  0.00    +0.000 C 
BRANCH  31  32
ATOM     32  C   UNL     1       2.009   3.164  21.288  0.00  0.00    +0.000 C 
BRANCH  32  33
ATOM     33  O   UNL     1       1.336   2.479  22.334  0.00  0.00    +0.000 OA
ATOM     34  H   UNL     1       1.918   2.491  23.112  0.00  0.00    +0.000 HD
ENDBRANCH  32  33
ENDBRANCH  31  32
ENDBRANCH  30  31
ENDBRANCH  29  30
ENDBRANCH  28  29
ENDBRANCH  27  28
ENDBRANCH  26  27
ENDBRANCH  25  26
ENDBRANCH  24  25
ENDBRANCH  23  24
ENDBRANCH  22  23
ENDBRANCH  21  22
ENDBRANCH  20  21
ENDBRANCH  19  20
ENDBRANCH  18  19
ENDBRANCH   1  18
TORSDOF 18
ENDMDL
MODEL 2
REMARK VINA RESULT:      -6.5      1.858      3.931
REMARK  Name = 
REMARK  22 active torsions:
REMARK  status: ('A' for Active; 'I' for Inactive)
REMARK    1  A    between atoms: C_1  and  C_2
REMARK    2  A    between atoms: C_3  and  C_4
REMARK    3  A    between atoms: C_7  and  C_8
REMARK    4  A    between atoms: C_9  and  O_10
REMARK    5  A    between atoms: C_13  and  C_14
REMARK    6  A    between atoms: C_13  and  C_15
REMARK    7  A    between atoms: C_15  and  C_16
REMARK    8  A    between atoms: C_16  and  C_17
REMARK    9  A    between atoms: C_17  and  C_18
REMARK   10  A    between atoms: C_18  and  C_19
REMARK   11  A    between atoms: C_19  and  C_20
REMARK   12  A    between atoms: C_20  and  C_21
REMARK   13  A    between atoms: C_21  and  C_22
REMARK   14  A    between atoms: C_22  and  C_23
REMARK   15  A    between atoms: C_23  and  C_24
REMARK   16  A    between atoms: C_24  and  C_25
REMARK   17  A    between atoms: C_25  and  C_26
REMARK   18  A    between atoms: C_26  and  C_27
REMARK   19  A    between atoms: C_27  and  C_28
REMARK   20  A    between atoms: C_28  and  C_29
REMARK   21  A    between atoms: C_29  and  C_30
REMARK   22  A    between atoms: C_30  and  O_31
REMARK                            x       y       z     vdW  Elec       q    Type
REMARK                         _______ _______ _______ _____ _____    ______ ____
ROOT
ATOM      1  C   UNL     1       2.106   8.385  17.651  0.00  0.00    +0.000 C 
ENDROOT
BRANCH   1  13
ATOM      2  C   UNL     1      -4.463  11.785  17.267  0.00  0.00    +0.000 C 
ATOM      3  C   UNL     1      -3.192  11.411  17.992  0.00  0.00    +0.000 A 
ATOM      4  C   UNL     1      -2.195  10.563  17.461  0.00  0.00    +0.000 A 
ATOM      5  C   UNL     1      -2.298   9.914  16.102  0.00  0.00    +0.000 C 
ATOM      6  C   UNL     1      -1.033  10.307  18.231  0.00  0.00    +0.000 A 
ATOM      7  C   UNL     1      -0.881  10.834  19.534  0.00  0.00    +0.000 A 
ATOM      8  C   UNL     1      -1.860  11.707  20.053  0.00  0.00    +0.000 A 
ATOM      9  C   UNL     1      -1.697  12.352  21.406  0.00  0.00    +0.000 C 
ATOM     10  C   UNL     1      -2.998  11.969  19.273  0.00  0.00    +0.000 A 
ATOM     11  C   UNL     1       0.337  10.501  20.352  0.00  0.00    +0.000 C 
ATOM     12  C   UNL     1       1.114   9.358  19.744  0.00  0.00    +0.000 C 
ATOM     13  C   UNL     1       1.252   9.548  18.232  0.00  0.00    +0.000 C 
ATOM     14  C   UNL     1       1.952  10.861  17.833  0.00  0.00    +0.000 C 
ATOM     15  O   UNL     1      -0.062   9.521  17.633  0.00  0.00    +0.000 OA
BRANCH  10  16
ATOM     16  O   UNL     1      -3.993  12.802  19.732  0.00  0.00    +0.000 OA
ATOM     17  H   UNL     1      -3.694  13.720  19.719  0.00  0.00    +0.000 HD
ENDBRANCH  10  16
ENDBRANCH   1  13
BRANCH   1  18
ATOM     18  C   UNL     1       2.449   7.331  18.694  0.00  0.00    +0.000 C 
BRANCH  18  19
ATOM     19  C   UNL     1       2.708   5.943  18.108  0.00  0.00    +0.000 C 
BRANCH  19  20
ATOM     20  C   UNL     1       1.387   5.220  17.830  0.00  0.00    +0.000 C 
BRANCH  20  21
ATOM     21  C   UNL     1       1.497   3.729  18.127  0.00  0.00    +0.000 C 
BRANCH  21  22
ATOM     22  C   UNL     1       0.814   3.342  19.425  0.00  0.00    +0.000 C 
BRANCH  22  23
ATOM     23  C   UNL     1       1.764   2.462  20.228  0.00  0.00    +0.000 C 
BRANCH  23  24
ATOM     24  C   UNL     1       3.064   3.196  20.497  0.00  0.00    +0.000 C 
BRANCH  24  25
ATOM     25  C   UNL     1       4.235   2.404  19.934  0.00  0.00    +0.000 C 
BRANCH  25  26
ATOM     26  C   UNL     1       5.046   3.282  18.995  0.00  0.00    +0.000 C 
BRANCH  26  27
ATOM     27  C   UNL     1       5.070   4.716  19.498  0.00  0.00    +0.000 C 
BRANCH  27  28
ATOM     28  C   UNL     1       6.404   5.367  19.164  0.00  0.00    +0.000 C 
BRANCH  28  29
ATOM     29  C   UNL     1       6.891   4.919  17.792  0.00  0.00    +0.000 C 
BRANCH  29  30
ATOM     30  C   UNL     1       6.317   5.818  16.705  0.00  0.00    +0.000 C 
BRANCH  30  31
ATOM     31  C   UNL     1       5.619   4.991  15.632  0.00  0.00    +0.000 C 
BRANCH  31  32
ATOM     32  C   UNL     1       6.594   4.570  14.544  0.00  0.00    +0.000 C 
BRANCH  32  33
ATOM     33  O   UNL     1       7.678   5.486  14.493  0.00  0.00    +0.000 OA
ATOM     34  H   UNL     1       7.353   6.299  14.073  0.00  0.00    +0.000 HD
ENDBRANCH  32  33
ENDBRANCH  31  32
ENDBRANCH  30  31
ENDBRANCH  29  30
ENDBRANCH  28  29
ENDBRANCH  27  28
ENDBRANCH  26  27
ENDBRANCH  25  26
ENDBRANCH  24  25
ENDBRANCH  23  24
ENDBRANCH  22  23
ENDBRANCH  21  22
ENDBRANCH  20  21
ENDBRANCH  19  20
ENDBRANCH  18  19
ENDBRANCH   1  18
TORSDOF 18
ENDMDL
MODEL 3
REMARK VINA RESULT:      -6.4      2.114      3.991
REMARK  Name = 
REMARK  22 active torsions:
REMARK  status: ('A' for Active; 'I' for Inactive)
REMARK    1  A    between atoms: C_1  and  C_2
REMARK    2  A    between atoms: C_3  and  C_4
REMARK    3  A    between atoms: C_7  and  C_8
REMARK    4  A    between atoms: C_9  and  O_10
REMARK    5  A    between atoms: C_13  and  C_14
REMARK    6  A    between atoms: C_13  and  C_15
REMARK    7  A    between atoms: C_15  and  C_16
REMARK    8  A    between atoms: C_16  and  C_17
REMARK    9  A    between atoms: C_17  and  C_18
REMARK   10  A    between atoms: C_18  and  C_19
REMARK   11  A    between atoms: C_19  and  C_20
REMARK   12  A    between atoms: C_20  and  C_21
REMARK   13  A    between atoms: C_21  and  C_22
REMARK   14  A    between atoms: C_22  and  C_23
REMARK   15  A    between atoms: C_23  and  C_24
REMARK   16  A    between atoms: C_24  and  C_25
REMARK   17  A    between atoms: C_25  and  C_26
REMARK   18  A    between atoms: C_26  and  C_27
REMARK   19  A    between atoms: C_27  and  C_28
REMARK   20  A    between atoms: C_28  and  C_29
REMARK   21  A    between atoms: C_29  and  C_30
REMARK   22  A    between atoms: C_30  and  O_31
REMARK                            x       y       z     vdW  Elec       q    Type
REMARK                         _______ _______ _______ _____ _____    ______ ____
ROOT
ATOM      1  C   UNL     1       1.986   8.764  19.009  0.00  0.00    +0.000 C 
ENDROOT
BRANCH   1  13
ATOM      2  C   UNL     1      -4.652  11.664  17.466  0.00  0.00    +0.000 C 
ATOM      3  C   UNL     1      -3.430  11.515  18.339  0.00  0.00    +0.000 A 
ATOM      4  C   UNL     1      -2.364  10.629  18.069  0.00  0.00    +0.000 A 
ATOM      5  C   UNL     1      -2.336   9.709  16.871  0.00  0.00    +0.000 C 
ATOM      6  C   UNL     1      -1.258  10.597  18.954  0.00  0.00    +0.000 A 
ATOM      7  C   UNL     1      -1.228  11.389  20.125  0.00  0.00    +0.000 A 
ATOM      8  C   UNL     1      -2.277  12.298  20.381  0.00  0.00    +0.000 A 
ATOM      9  C   UNL     1      -2.245  13.214  21.577  0.00  0.00    +0.000 C 
ATOM     10  C   UNL     1      -3.359  12.334  19.485  0.00  0.00    +0.000 A 
ATOM     11  C   UNL     1      -0.067  11.295  21.077  0.00  0.00    +0.000 C 
ATOM     12  C   UNL     1       0.797  10.094  20.778  0.00  0.00    +0.000 C 
ATOM     13  C   UNL     1       1.046   9.976  19.273  0.00  0.00    +0.000 C 
ATOM     14  C   UNL     1       1.727  11.213  18.658  0.00  0.00    +0.000 C 
ATOM     15  O   UNL     1      -0.214   9.757  18.603  0.00  0.00    +0.000 OA
BRANCH  10  16
ATOM     16  O   UNL     1      -4.416  13.190  19.690  0.00  0.00    +0.000 OA
ATOM     17  H   UNL     1      -4.670  13.614  18.861  0.00  0.00    +0.000 HD
ENDBRANCH  10  16
ENDBRANCH   1  13
BRANCH   1  18
ATOM     18  C   UNL     1       1.688   7.581  19.919  0.00  0.00    +0.000 C 
BRANCH  18  19
ATOM     19  C   UNL     1       2.289   6.262  19.434  0.00  0.00    +0.000 C 
BRANCH  19  20
ATOM     20  C   UNL     1       2.233   5.205  20.542  0.00  0.00    +0.000 C 
BRANCH  20  21
ATOM     21  C   UNL     1       1.638   3.898  20.032  0.00  0.00    +0.000 C 
BRANCH  21  22
ATOM     22  C   UNL     1       1.410   3.908  18.532  0.00  0.00    +0.000 C 
BRANCH  22  23
ATOM     23  C   UNL     1       2.073   2.672  17.934  0.00  0.00    +0.000 C 
BRANCH  23  24
ATOM     24  C   UNL     1       3.572   2.877  17.825  0.00  0.00    +0.000 C 
BRANCH  24  25
ATOM     25  C   UNL     1       3.867   4.143  17.035  0.00  0.00    +0.000 C 
BRANCH  25  26
ATOM     26  C   UNL     1       5.158   3.972  16.252  0.00  0.00    +0.000 C 
BRANCH  26  27
ATOM     27  C   UNL     1       5.736   5.327  15.878  0.00  0.00    +0.000 C 
BRANCH  27  28
ATOM     28  C   UNL     1       7.112   5.503  16.504  0.00  0.00    +0.000 C 
BRANCH  28  29
ATOM     29  C   UNL     1       6.992   5.741  18.004  0.00  0.00    +0.000 C 
BRANCH  29  30
ATOM     30  C   UNL     1       7.902   6.883  18.435  0.00  0.00    +0.000 C 
BRANCH  30  31
ATOM     31  C   UNL     1       7.779   8.064  17.479  0.00  0.00    +0.000 C 
BRANCH  31  32
ATOM     32  C   UNL     1       8.272   9.347  18.129  0.00  0.00    +0.000 C 
BRANCH  32  33
ATOM     33  O   UNL     1       9.126   9.034  19.220  0.00  0.00    +0.000 OA
ATOM     34  H   UNL     1      10.013   8.871  18.858  0.00  0.00    +0.000 HD
ENDBRANCH  32  33
ENDBRANCH  31  32
ENDBRANCH  30  31
ENDBRANCH  29  30
ENDBRANCH  28  29
ENDBRANCH  27  28
ENDBRANCH  26  27
ENDBRANCH  25  26
ENDBRANCH  24  25
ENDBRANCH  23  24
ENDBRANCH  22  23
ENDBRANCH  21  22
ENDBRANCH  20  21
ENDBRANCH  19  20
ENDBRANCH  18  19
ENDBRANCH   1  18
TORSDOF 18
ENDMDL
MODEL 4
REMARK VINA RESULT:      -6.3      1.084      1.798
REMARK  Name = 
REMARK  22 active torsions:
REMARK  status: ('A' for Active; 'I' for Inactive)
REMARK    1  A    between atoms: C_1  and  C_2
REMARK    2  A    between atoms: C_3  and  C_4
REMARK    3  A    between atoms: C_7  and  C_8
REMARK    4  A    between atoms: C_9  and  O_10
REMARK    5  A    between atoms: C_13  and  C_14
REMARK    6  A    between atoms: C_13  and  C_15
REMARK    7  A    between atoms: C_15  and  C_16
REMARK    8  A    between atoms: C_16  and  C_17
REMARK    9  A    between atoms: C_17  and  C_18
REMARK   10  A    between atoms: C_18  and  C_19
REMARK   11  A    between atoms: C_19  and  C_20
REMARK   12  A    between atoms: C_20  and  C_21
REMARK   13  A    between atoms: C_21  and  C_22
REMARK   14  A    between atoms: C_22  and  C_23
REMARK   15  A    between atoms: C_23  and  C_24
REMARK   16  A    between atoms: C_24  and  C_25
REMARK   17  A    between atoms: C_25  and  C_26
REMARK   18  A    between atoms: C_26  and  C_27
REMARK   19  A    between atoms: C_27  and  C_28
REMARK   20  A    between atoms: C_28  and  C_29
REMARK   21  A    between atoms: C_29  and  C_30
REMARK   22  A    between atoms: C_30  and  O_31
REMARK                            x       y       z     vdW  Elec       q    Type
REMARK                         _______ _______ _______ _____ _____    ______ ____
ROOT
ATOM      1  C   UNL     1       2.064   8.051  17.474  0.00  0.00    +0.000 C 
ENDROOT
BRANCH   1  13
ATOM      2  C   UNL     1      -4.110  12.092  18.113  0.00  0.00    +0.000 C 
ATOM      3  C   UNL     1      -2.818  11.531  18.657  0.00  0.00    +0.000 A 
ATOM      4  C   UNL     1      -1.977  10.643  17.950  0.00  0.00    +0.000 A 
ATOM      5  C   UNL     1      -2.289  10.137  16.561  0.00  0.00    +0.000 C 
ATOM      6  C   UNL     1      -0.776  10.205  18.560  0.00  0.00    +0.000 A 
ATOM      7  C   UNL     1      -0.435  10.590  19.877  0.00  0.00    +0.000 A 
ATOM      8  C   UNL     1      -1.257  11.502  20.573  0.00  0.00    +0.000 A 
ATOM      9  C   UNL     1      -0.888  11.997  21.948  0.00  0.00    +0.000 C 
ATOM     10  C   UNL     1      -2.435  11.945  19.950  0.00  0.00    +0.000 A 
ATOM     11  C   UNL     1       0.819  10.065  20.523  0.00  0.00    +0.000 C 
ATOM     12  C   UNL     1       1.403   8.915  19.739  0.00  0.00    +0.000 C 
ATOM     13  C   UNL     1       1.403   9.231  18.242  0.00  0.00    +0.000 C 
ATOM     14  C   UNL     1       2.194  10.502  17.877  0.00  0.00    +0.000 C 
ATOM     15  O   UNL     1       0.039   9.388  17.794  0.00  0.00    +0.000 OA
BRANCH  10  16
ATOM     16  O   UNL     1      -3.282  12.823  20.586  0.00  0.00    +0.000 OA
ATOM     17  H   UNL     1      -4.123  12.392  20.787  0.00  0.00    +0.000 HD
ENDBRANCH  10  16
ENDBRANCH   1  13
BRANCH   1  18
ATOM     18  C   UNL     1       2.889   7.149  18.382  0.00  0.00    +0.000 C 
BRANCH  18  19
ATOM     19  C   UNL     1       4.372   7.095  18.018  0.00  0.00    +0.000 C 
BRANCH  19  20
ATOM     20  C   UNL     1       4.555   7.130  16.497  0.00  0.00    +0.000 C 
BRANCH  20  21
ATOM     21  C   UNL     1       5.750   6.289  16.063  0.00  0.00    +0.000 C 
BRANCH  21  22
ATOM     22  C   UNL     1       5.335   4.989  15.400  0.00  0.00    +0.000 C 
BRANCH  22  23
ATOM     23  C   UNL     1       5.604   3.844  16.368  0.00  0.00    +0.000 C 
BRANCH  23  24
ATOM     24  C   UNL     1       4.402   3.616  17.264  0.00  0.00    +0.000 C 
BRANCH  24  25
ATOM     25  C   UNL     1       4.847   3.506  18.715  0.00  0.00    +0.000 C 
BRANCH  25  26
ATOM     26  C   UNL     1       4.294   2.231  19.329  0.00  0.00    +0.000 C 
BRANCH  26  27
ATOM     27  C   UNL     1       3.192   1.656  18.454  0.00  0.00    +0.000 C 
BRANCH  27  28
ATOM     28  C   UNL     1       1.881   1.605  19.227  0.00  0.00    +0.000 C 
BRANCH  28  29
ATOM     29  C   UNL     1       0.868   2.573  18.629  0.00  0.00    +0.000 C 
BRANCH  29  30
ATOM     30  C   UNL     1       1.241   4.010  18.970  0.00  0.00    +0.000 C 
BRANCH  30  31
ATOM     31  C   UNL     1       0.924   4.321  20.427  0.00  0.00    +0.000 C 
BRANCH  31  32
ATOM     32  C   UNL     1       2.196   4.434  21.252  0.00  0.00    +0.000 C 
BRANCH  32  33
ATOM     33  O   UNL     1       2.254   3.370  22.191  0.00  0.00    +0.000 OA
ATOM     34  H   UNL     1       1.749   3.645  22.974  0.00  0.00    +0.000 HD
ENDBRANCH  32  33
ENDBRANCH  31  32
ENDBRANCH  30  31
ENDBRANCH  29  30
ENDBRANCH  28  29
ENDBRANCH  27  28
ENDBRANCH  26  27
ENDBRANCH  25  26
ENDBRANCH  24  25
ENDBRANCH  23  24
ENDBRANCH  22  23
ENDBRANCH  21  22
ENDBRANCH  20  21
ENDBRANCH  19  20
ENDBRANCH  18  19
ENDBRANCH   1  18
TORSDOF 18
ENDMDL
MODEL 5
REMARK VINA RESULT:      -6.2      5.644     10.184
REMARK  Name = 
REMARK  22 active torsions:
REMARK  status: ('A' for Active; 'I' for Inactive)
REMARK    1  A    between atoms: C_1  and  C_2
REMARK    2  A    between atoms: C_3  and  C_4
REMARK    3  A    between atoms: C_7  and  C_8
REMARK    4  A    between atoms: C_9  and  O_10
REMARK    5  A    between atoms: C_13  and  C_14
REMARK    6  A    between atoms: C_13  and  C_15
REMARK    7  A    between atoms: C_15  and  C_16
REMARK    8  A    between atoms: C_16  and  C_17
REMARK    9  A    between atoms: C_17  and  C_18
REMARK   10  A    between atoms: C_18  and  C_19
REMARK   11  A    between atoms: C_19  and  C_20
REMARK   12  A    between atoms: C_20  and  C_21
REMARK   13  A    between atoms: C_21  and  C_22
REMARK   14  A    between atoms: C_22  and  C_23
REMARK   15  A    between atoms: C_23  and  C_24
REMARK   16  A    between atoms: C_24  and  C_25
REMARK   17  A    between atoms: C_25  and  C_26
REMARK   18  A    between atoms: C_26  and  C_27
REMARK   19  A    between atoms: C_27  and  C_28
REMARK   20  A    between atoms: C_28  and  C_29
REMARK   21  A    between atoms: C_29  and  C_30
REMARK   22  A    between atoms: C_30  and  O_31
REMARK                            x       y       z     vdW  Elec       q    Type
REMARK                         _______ _______ _______ _____ _____    ______ ____
ROOT
ATOM      1  C   UNL     1       6.506   7.588  17.260  0.00  0.00    +0.000 C 
ENDROOT
BRANCH   1  13
ATOM      2  C   UNL     1       0.792   4.077  20.403  0.00  0.00    +0.000 C 
ATOM      3  C   UNL     1       2.016   4.113  19.520  0.00  0.00    +0.000 A 
ATOM      4  C   UNL     1       2.761   5.280  19.240  0.00  0.00    +0.000 A 
ATOM      5  C   UNL     1       2.400   6.642  19.786  0.00  0.00    +0.000 C 
ATOM      6  C   UNL     1       3.907   5.180  18.414  0.00  0.00    +0.000 A 
ATOM      7  C   UNL     1       4.284   3.953  17.821  0.00  0.00    +0.000 A 
ATOM      8  C   UNL     1       3.562   2.780  18.125  0.00  0.00    +0.000 A 
ATOM      9  C   UNL     1       3.978   1.439  17.576  0.00  0.00    +0.000 C 
ATOM     10  C   UNL     1       2.438   2.888  18.961  0.00  0.00    +0.000 A 
ATOM     11  C   UNL     1       5.474   3.886  16.903  0.00  0.00    +0.000 C 
ATOM     12  C   UNL     1       5.935   5.264  16.495  0.00  0.00    +0.000 C 
ATOM     13  C   UNL     1       5.972   6.197  17.707  0.00  0.00    +0.000 C 
ATOM     14  C   UNL     1       6.893   5.706  18.840  0.00  0.00    +0.000 C 
ATOM     15  O   UNL     1       4.633   6.345  18.228  0.00  0.00    +0.000 OA
BRANCH  10  16
ATOM     16  O   UNL     1       1.687   1.781  19.281  0.00  0.00    +0.000 OA
ATOM     17  H   UNL     1       0.997   2.015  19.915  0.00  0.00    +0.000 HD
ENDBRANCH  10  16
ENDBRANCH   1  13
BRANCH   1  18
ATOM     18  C   UNL     1       7.870   7.911  17.854  0.00  0.00    +0.000 C 
BRANCH  18  19
ATOM     19  C   UNL     1       8.219   9.399  17.827  0.00  0.00    +0.000 C 
BRANCH  19  20
ATOM     20  C   UNL     1       9.243   9.732  18.917  0.00  0.00    +0.000 C 
BRANCH  20  21
ATOM     21  C   UNL     1       8.913  11.053  19.603  0.00  0.00    +0.000 C 
BRANCH  21  22
ATOM     22  C   UNL     1      10.106  11.646  20.329  0.00  0.00    +0.000 C 
BRANCH  22  23
ATOM     23  C   UNL     1      11.372  11.258  19.575  0.00  0.00    +0.000 C 
BRANCH  23  24
ATOM     24  C   UNL     1      11.977  12.473  18.898  0.00  0.00    +0.000 C 
BRANCH  24  25
ATOM     25  C   UNL     1      11.617  12.477  17.420  0.00  0.00    +0.000 C 
BRANCH  25  26
ATOM     26  C   UNL     1      10.778  13.702  17.097  0.00  0.00    +0.000 C 
BRANCH  26  27
ATOM     27  C   UNL     1      10.918  14.745  18.193  0.00  0.00    +0.000 C 
BRANCH  27  28
ATOM     28  C   UNL     1       9.600  15.480  18.391  0.00  0.00    +0.000 C 
BRANCH  28  29
ATOM     29  C   UNL     1       8.430  14.506  18.340  0.00  0.00    +0.000 C 
BRANCH  29  30
ATOM     30  C   UNL     1       7.138  15.244  18.017  0.00  0.00    +0.000 C 
BRANCH  30  31
ATOM     31  C   UNL     1       7.130  16.627  18.656  0.00  0.00    +0.000 C 
BRANCH  31  32
ATOM     32  C   UNL     1       5.897  16.823  19.524  0.00  0.00    +0.000 C 
BRANCH  32  33
ATOM     33  O   UNL     1       5.690  18.209  19.756  0.00  0.00    +0.000 OA
ATOM     34  H   UNL     1       6.564  18.629  19.805  0.00  0.00    +0.000 HD
ENDBRANCH  32  33
ENDBRANCH  31  32
ENDBRANCH  30  31
ENDBRANCH  29  30
ENDBRANCH  28  29
ENDBRANCH  27  28
ENDBRANCH  26  27
ENDBRANCH  25  26
ENDBRANCH  24  25
ENDBRANCH  23  24
ENDBRANCH  22  23
ENDBRANCH  21  22
ENDBRANCH  20  21
ENDBRANCH  19  20
ENDBRANCH  18  19
ENDBRANCH   1  18
TORSDOF 18
ENDMDL
MODEL 6
REMARK VINA RESULT:      -6.0      3.143      4.920
REMARK  Name = 
REMARK  22 active torsions:
REMARK  status: ('A' for Active; 'I' for Inactive)
REMARK    1  A    between atoms: C_1  and  C_2
REMARK    2  A    between atoms: C_3  and  C_4
REMARK    3  A    between atoms: C_7  and  C_8
REMARK    4  A    between atoms: C_9  and  O_10
REMARK    5  A    between atoms: C_13  and  C_14
REMARK    6  A    between atoms: C_13  and  C_15
REMARK    7  A    between atoms: C_15  and  C_16
REMARK    8  A    between atoms: C_16  and  C_17
REMARK    9  A    between atoms: C_17  and  C_18
REMARK   10  A    between atoms: C_18  and  C_19
REMARK   11  A    between atoms: C_19  and  C_20
REMARK   12  A    between atoms: C_20  and  C_21
REMARK   13  A    between atoms: C_21  and  C_22
REMARK   14  A    between atoms: C_22  and  C_23
REMARK   15  A    between atoms: C_23  and  C_24
REMARK   16  A    between atoms: C_24  and  C_25
REMARK   17  A    between atoms: C_25  and  C_26
REMARK   18  A    between atoms: C_26  and  C_27
REMARK   19  A    between atoms: C_27  and  C_28
REMARK   20  A    between atoms: C_28  and  C_29
REMARK   21  A    between atoms: C_29  and  C_30
REMARK   22  A    between atoms: C_30  and  O_31
REMARK                            x       y       z     vdW  Elec       q    Type
REMARK                         _______ _______ _______ _____ _____    ______ ____
ROOT
ATOM      1  C   UNL     1       0.601   9.870  19.073  0.00  0.00    +0.000 C 
ENDROOT
BRANCH   1  13
ATOM      2  C   UNL     1       3.524  16.603  18.079  0.00  0.00    +0.000 C 
ATOM      3  C   UNL     1       2.383  15.681  18.438  0.00  0.00    +0.000 A 
ATOM      4  C   UNL     1       2.451  14.272  18.377  0.00  0.00    +0.000 A 
ATOM      5  C   UNL     1       3.681  13.522  17.924  0.00  0.00    +0.000 C 
ATOM      6  C   UNL     1       1.318  13.514  18.764  0.00  0.00    +0.000 A 
ATOM      7  C   UNL     1       0.111  14.139  19.151  0.00  0.00    +0.000 A 
ATOM      8  C   UNL     1       0.050  15.545  19.244  0.00  0.00    +0.000 A 
ATOM      9  C   UNL     1      -1.194  16.246  19.728  0.00  0.00    +0.000 C 
ATOM     10  C   UNL     1       1.186  16.285  18.877  0.00  0.00    +0.000 A 
ATOM     11  C   UNL     1      -1.095  13.311  19.503  0.00  0.00    +0.000 C 
ATOM     12  C   UNL     1      -0.918  11.872  19.085  0.00  0.00    +0.000 C 
ATOM     13  C   UNL     1       0.477  11.371  19.466  0.00  0.00    +0.000 C 
ATOM     14  C   UNL     1       0.778  11.465  20.974  0.00  0.00    +0.000 C 
ATOM     15  O   UNL     1       1.465  12.137  18.745  0.00  0.00    +0.000 OA
BRANCH  10  16
ATOM     16  O   UNL     1       1.182  17.660  18.933  0.00  0.00    +0.000 OA
ATOM     17  H   UNL     1       0.807  18.028  18.123  0.00  0.00    +0.000 HD
ENDBRANCH  10  16
ENDBRANCH   1  13
BRANCH   1  18
ATOM     18  C   UNL     1       1.740   9.612  18.096  0.00  0.00    +0.000 C 
BRANCH  18  19
ATOM     19  C   UNL     1       2.396   8.241  18.259  0.00  0.00    +0.000 C 
BRANCH  19  20
ATOM     20  C   UNL     1       1.903   7.557  19.538  0.00  0.00    +0.000 C 
BRANCH  20  21
ATOM     21  C   UNL     1       2.569   6.200  19.733  0.00  0.00    +0.000 C 
BRANCH  21  22
ATOM     22  C   UNL     1       1.964   5.414  20.881  0.00  0.00    +0.000 C 
BRANCH  22  23
ATOM     23  C   UNL     1       0.922   4.457  20.316  0.00  0.00    +0.000 C 
BRANCH  23  24
ATOM     24  C   UNL     1       1.566   3.487  19.344  0.00  0.00    +0.000 C 
BRANCH  24  25
ATOM     25  C   UNL     1       1.443   4.016  17.923  0.00  0.00    +0.000 C 
BRANCH  25  26
ATOM     26  C   UNL     1       2.619   3.534  17.091  0.00  0.00    +0.000 C 
BRANCH  26  27
ATOM     27  C   UNL     1       3.598   2.756  17.955  0.00  0.00    +0.000 C 
BRANCH  27  28
ATOM     28  C   UNL     1       4.840   3.593  18.224  0.00  0.00    +0.000 C 
BRANCH  28  29
ATOM     29  C   UNL     1       4.921   4.761  17.250  0.00  0.00    +0.000 C 
BRANCH  29  30
ATOM     30  C   UNL     1       5.638   5.941  17.894  0.00  0.00    +0.000 C 
BRANCH  30  31
ATOM     31  C   UNL     1       6.246   5.540  19.232  0.00  0.00    +0.000 C 
BRANCH  31  32
ATOM     32  C   UNL     1       7.748   5.778  19.244  0.00  0.00    +0.000 C 
BRANCH  32  33
ATOM     33  O   UNL     1       8.282   5.399  20.504  0.00  0.00    +0.000 OA
ATOM     34  H   UNL     1       8.708   6.184  20.888  0.00  0.00    +0.000 HD
ENDBRANCH  32  33
ENDBRANCH  31  32
ENDBRANCH  30  31
ENDBRANCH  29  30
ENDBRANCH  28  29
ENDBRANCH  27  28
ENDBRANCH  26  27
ENDBRANCH  25  26
ENDBRANCH  24  25
ENDBRANCH  23  24
ENDBRANCH  22  23
ENDBRANCH  21  22
ENDBRANCH  20  21
ENDBRANCH  19  20
ENDBRANCH  18  19
ENDBRANCH   1  18
TORSDOF 18
ENDMDL
MODEL 7
REMARK VINA RESULT:      -5.9      2.207      4.373
REMARK  Name = 
REMARK  22 active torsions:
REMARK  status: ('A' for Active; 'I' for Inactive)
REMARK    1  A    between atoms: C_1  and  C_2
REMARK    2  A    between atoms: C_3  and  C_4
REMARK    3  A    between atoms: C_7  and  C_8
REMARK    4  A    between atoms: C_9  and  O_10
REMARK    5  A    between atoms: C_13  and  C_14
REMARK    6  A    between atoms: C_13  and  C_15
REMARK    7  A    between atoms: C_15  and  C_16
REMARK    8  A    between atoms: C_16  and  C_17
REMARK    9  A    between atoms: C_17  and  C_18
REMARK   10  A    between atoms: C_18  and  C_19
REMARK   11  A    between atoms: C_19  and  C_20
REMARK   12  A    between atoms: C_20  and  C_21
REMARK   13  A    between atoms: C_21  and  C_22
REMARK   14  A    between atoms: C_22  and  C_23
REMARK   15  A    between atoms: C_23  and  C_24
REMARK   16  A    between atoms: C_24  and  C_25
REMARK   17  A    between atoms: C_25  and  C_26
REMARK   18  A    between atoms: C_26  and  C_27
REMARK   19  A    between atoms: C_27  and  C_28
REMARK   20  A    between atoms: C_28  and  C_29
REMARK   21  A    between atoms: C_29  and  C_30
REMARK   22  A    between atoms: C_30  and  O_31
REMARK                            x       y       z     vdW  Elec       q    Type
REMARK                         _______ _______ _______ _____ _____    ______ ____
ROOT
ATOM      1  C   UNL     1       2.193   9.033  17.874  0.00  0.00    +0.000 C 
ENDROOT
BRANCH   1  13
ATOM      2  C   UNL     1       0.438  15.828  20.243  0.00  0.00    +0.000 C 
ATOM      3  C   UNL     1       0.075  14.422  19.828  0.00  0.00    +0.000 A 
ATOM      4  C   UNL     1       1.004  13.467  19.359  0.00  0.00    +0.000 A 
ATOM      5  C   UNL     1       2.478  13.755  19.201  0.00  0.00    +0.000 C 
ATOM      6  C   UNL     1       0.542  12.170  19.023  0.00  0.00    +0.000 A 
ATOM      7  C   UNL     1      -0.829  11.835  19.094  0.00  0.00    +0.000 A 
ATOM      8  C   UNL     1      -1.754  12.776  19.592  0.00  0.00    +0.000 A 
ATOM      9  C   UNL     1      -3.212  12.431  19.756  0.00  0.00    +0.000 C 
ATOM     10  C   UNL     1      -1.281  14.053  19.941  0.00  0.00    +0.000 A 
ATOM     11  C   UNL     1      -1.300  10.468  18.678  0.00  0.00    +0.000 C 
ATOM     12  C   UNL     1      -0.224   9.717  17.930  0.00  0.00    +0.000 C 
ATOM     13  C   UNL     1       1.124   9.866  18.639  0.00  0.00    +0.000 C 
ATOM     14  C   UNL     1       1.119   9.360  20.094  0.00  0.00    +0.000 C 
ATOM     15  O   UNL     1       1.508  11.258  18.632  0.00  0.00    +0.000 OA
BRANCH  10  16
ATOM     16  O   UNL     1      -2.139  15.016  20.419  0.00  0.00    +0.000 OA
ATOM     17  H   UNL     1      -2.796  15.243  19.749  0.00  0.00    +0.000 HD
ENDBRANCH  10  16
ENDBRANCH   1  13
BRANCH   1  18
ATOM     18  C   UNL     1       2.107   7.545  18.181  0.00  0.00    +0.000 C 
BRANCH  18  19
ATOM     19  C   UNL     1       3.467   6.868  18.345  0.00  0.00    +0.000 C 
BRANCH  19  20
ATOM     20  C   UNL     1       3.448   5.902  19.534  0.00  0.00    +0.000 C 
BRANCH  20  21
ATOM     21  C   UNL     1       2.027   5.663  20.032  0.00  0.00    +0.000 C 
BRANCH  21  22
ATOM     22  C   UNL     1       1.306   4.586  19.244  0.00  0.00    +0.000 C 
BRANCH  22  23
ATOM     23  C   UNL     1       0.948   3.449  20.193  0.00  0.00    +0.000 C 
BRANCH  23  24
ATOM     24  C   UNL     1       1.393   2.119  19.616  0.00  0.00    +0.000 C 
BRANCH  24  25
ATOM     25  C   UNL     1       2.132   2.342  18.305  0.00  0.00    +0.000 C 
BRANCH  25  26
ATOM     26  C   UNL     1       3.527   1.744  18.393  0.00  0.00    +0.000 C 
BRANCH  26  27
ATOM     27  C   UNL     1       4.525   2.615  17.648  0.00  0.00    +0.000 C 
BRANCH  27  28
ATOM     28  C   UNL     1       3.795   3.681  16.844  0.00  0.00    +0.000 C 
BRANCH  28  29
ATOM     29  C   UNL     1       4.776   4.472  15.987  0.00  0.00    +0.000 C 
BRANCH  29  30
ATOM     30  C   UNL     1       6.210   4.117  16.356  0.00  0.00    +0.000 C 
BRANCH  30  31
ATOM     31  C   UNL     1       7.121   5.330  16.215  0.00  0.00    +0.000 C 
BRANCH  31  32
ATOM     32  C   UNL     1       6.993   6.254  17.416  0.00  0.00    +0.000 C 
BRANCH  32  33
ATOM     33  O   UNL     1       6.987   7.606  16.981  0.00  0.00    +0.000 OA
ATOM     34  H   UNL     1       6.066   7.915  17.002  0.00  0.00    +0.000 HD
ENDBRANCH  32  33
ENDBRANCH  31  32
ENDBRANCH  30  31
ENDBRANCH  29  30
ENDBRANCH  28  29
ENDBRANCH  27  28
ENDBRANCH  26  27
ENDBRANCH  25  26
ENDBRANCH  24  25
ENDBRANCH  23  24
ENDBRANCH  22  23
ENDBRANCH  21  22
ENDBRANCH  20  21
ENDBRANCH  19  20
ENDBRANCH  18  19
ENDBRANCH   1  18
TORSDOF 18
ENDMDL
MODEL 8
REMARK VINA RESULT:      -5.9      6.486      8.690
REMARK  Name = 
REMARK  22 active torsions:
REMARK  status: ('A' for Active; 'I' for Inactive)
REMARK    1  A    between atoms: C_1  and  C_2
REMARK    2  A    between atoms: C_3  and  C_4
REMARK    3  A    between atoms: C_7  and  C_8
REMARK    4  A    between atoms: C_9  and  O_10
REMARK    5  A    between atoms: C_13  and  C_14
REMARK    6  A    between atoms: C_13  and  C_15
REMARK    7  A    between atoms: C_15  and  C_16
REMARK    8  A    between atoms: C_16  and  C_17
REMARK    9  A    between atoms: C_17  and  C_18
REMARK   10  A    between atoms: C_18  and  C_19
REMARK   11  A    between atoms: C_19  and  C_20
REMARK   12  A    between atoms: C_20  and  C_21
REMARK   13  A    between atoms: C_21  and  C_22
REMARK   14  A    between atoms: C_22  and  C_23
REMARK   15  A    between atoms: C_23  and  C_24
REMARK   16  A    between atoms: C_24  and  C_25
REMARK   17  A    between atoms: C_25  and  C_26
REMARK   18  A    between atoms: C_26  and  C_27
REMARK   19  A    between atoms: C_27  and  C_28
REMARK   20  A    between atoms: C_28  and  C_29
REMARK   21  A    between atoms: C_29  and  C_30
REMARK   22  A    between atoms: C_30  and  O_31
REMARK                            x       y       z     vdW  Elec       q    Type
REMARK                         _______ _______ _______ _____ _____    ______ ____
ROOT
ATOM      1  C   UNL     1       8.826  10.021  18.910  0.00  0.00    +0.000 C 
ENDROOT
BRANCH   1  13
ATOM      2  C   UNL     1       8.051  17.366  18.347  0.00  0.00    +0.000 C 
ATOM      3  C   UNL     1       8.819  16.130  18.751  0.00  0.00    +0.000 A 
ATOM      4  C   UNL     1       8.331  14.812  18.617  0.00  0.00    +0.000 A 
ATOM      5  C   UNL     1       6.963  14.488  18.064  0.00  0.00    +0.000 C 
ATOM      6  C   UNL     1       9.159  13.731  19.011  0.00  0.00    +0.000 A 
ATOM      7  C   UNL     1      10.432  13.950  19.585  0.00  0.00    +0.000 A 
ATOM      8  C   UNL     1      10.935  15.264  19.691  0.00  0.00    +0.000 A 
ATOM      9  C   UNL     1      12.318  15.533  20.226  0.00  0.00    +0.000 C 
ATOM     10  C   UNL     1      10.112  16.326  19.279  0.00  0.00    +0.000 A 
ATOM     11  C   UNL     1      11.268  12.787  20.047  0.00  0.00    +0.000 C 
ATOM     12  C   UNL     1      10.459  11.513  20.102  0.00  0.00    +0.000 C 
ATOM     13  C   UNL     1       9.599  11.370  18.845  0.00  0.00    +0.000 C 
ATOM     14  C   UNL     1      10.411  11.358  17.536  0.00  0.00    +0.000 C 
ATOM     15  O   UNL     1       8.653  12.460  18.795  0.00  0.00    +0.000 OA
BRANCH  10  16
ATOM     16  O   UNL     1      10.543  17.629  19.371  0.00  0.00    +0.000 OA
ATOM     17  H   UNL     1      10.211  18.036  20.182  0.00  0.00    +0.000 HD
ENDBRANCH  10  16
ENDBRANCH   1  13
BRANCH   1  18
ATOM     18  C   UNL     1       8.729   9.334  17.555  0.00  0.00    +0.000 C 
BRANCH  18  19
ATOM     19  C   UNL     1       7.750   8.161  17.526  0.00  0.00    +0.000 C 
BRANCH  19  20
ATOM     20  C   UNL     1       8.003   7.219  18.707  0.00  0.00    +0.000 C 
BRANCH  20  21
ATOM     21  C   UNL     1       7.626   5.783  18.362  0.00  0.00    +0.000 C 
BRANCH  21  22
ATOM     22  C   UNL     1       6.426   5.702  17.438  0.00  0.00    +0.000 C 
BRANCH  22  23
ATOM     23  C   UNL     1       5.163   5.893  18.267  0.00  0.00    +0.000 C 
BRANCH  23  24
ATOM     24  C   UNL     1       4.109   6.630  17.463  0.00  0.00    +0.000 C 
BRANCH  24  25
ATOM     25  C   UNL     1       2.843   6.794  18.292  0.00  0.00    +0.000 C 
BRANCH  25  26
ATOM     26  C   UNL     1       3.040   6.166  19.661  0.00  0.00    +0.000 C 
BRANCH  26  27
ATOM     27  C   UNL     1       1.812   5.362  20.058  0.00  0.00    +0.000 C 
BRANCH  27  28
ATOM     28  C   UNL     1       2.188   4.299  21.080  0.00  0.00    +0.000 C 
BRANCH  28  29
ATOM     29  C   UNL     1       1.962   2.904  20.510  0.00  0.00    +0.000 C 
BRANCH  29  30
ATOM     30  C   UNL     1       1.583   2.987  19.038  0.00  0.00    +0.000 C 
BRANCH  30  31
ATOM     31  C   UNL     1       2.802   2.767  18.151  0.00  0.00    +0.000 C 
BRANCH  31  32
ATOM     32  C   UNL     1       3.881   1.988  18.886  0.00  0.00    +0.000 C 
BRANCH  32  33
ATOM     33  O   UNL     1       3.957   0.669  18.366  0.00  0.00    +0.000 OA
ATOM     34  H   UNL     1       3.618   0.067  19.050  0.00  0.00    +0.000 HD
ENDBRANCH  32  33
ENDBRANCH  31  32
ENDBRANCH  30  31
ENDBRANCH  29  30
ENDBRANCH  28  29
ENDBRANCH  27  28
ENDBRANCH  26  27
ENDBRANCH  25  26
ENDBRANCH  24  25
ENDBRANCH  23  24
ENDBRANCH  22  23
ENDBRANCH  21  22
ENDBRANCH  20  21
ENDBRANCH  19  20
ENDBRANCH  18  19
ENDBRANCH   1  18
TORSDOF 18
ENDMDL
MODEL 9
REMARK VINA RESULT:      -5.9      6.820      8.941
REMARK  Name = 
REMARK  22 active torsions:
REMARK  status: ('A' for Active; 'I' for Inactive)
REMARK    1  A    between atoms: C_1  and  C_2
REMARK    2  A    between atoms: C_3  and  C_4
REMARK    3  A    between atoms: C_7  and  C_8
REMARK    4  A    between atoms: C_9  and  O_10
REMARK    5  A    between atoms: C_13  and  C_14
REMARK    6  A    between atoms: C_13  and  C_15
REMARK    7  A    between atoms: C_15  and  C_16
REMARK    8  A    between atoms: C_16  and  C_17
REMARK    9  A    between atoms: C_17  and  C_18
REMARK   10  A    between atoms: C_18  and  C_19
REMARK   11  A    between atoms: C_19  and  C_20
REMARK   12  A    between atoms: C_20  and  C_21
REMARK   13  A    between atoms: C_21  and  C_22
REMARK   14  A    between atoms: C_22  and  C_23
REMARK   15  A    between atoms: C_23  and  C_24
REMARK   16  A    between atoms: C_24  and  C_25
REMARK   17  A    between atoms: C_25  and  C_26
REMARK   18  A    between atoms: C_26  and  C_27
REMARK   19  A    between atoms: C_27  and  C_28
REMARK   20  A    between atoms: C_28  and  C_29
REMARK   21  A    between atoms: C_29  and  C_30
REMARK   22  A    between atoms: C_30  and  O_31
REMARK                            x       y       z     vdW  Elec       q    Type
REMARK                         _______ _______ _______ _____ _____    ______ ____
ROOT
ATOM      1  C   UNL     1       9.614  10.392  18.061  0.00  0.00    +0.000 C 
ENDROOT
BRANCH   1  13
ATOM      2  C   UNL     1       8.552  14.622  24.048  0.00  0.00    +0.000 C 
ATOM      3  C   UNL     1       9.231  14.309  22.736  0.00  0.00    +0.000 A 
ATOM      4  C   UNL     1       8.994  13.142  21.977  0.00  0.00    +0.000 A 
ATOM      5  C   UNL     1       8.038  12.055  22.408  0.00  0.00    +0.000 C 
ATOM      6  C   UNL     1       9.677  12.974  20.747  0.00  0.00    +0.000 A 
ATOM      7  C   UNL     1      10.627  13.920  20.296  0.00  0.00    +0.000 A 
ATOM      8  C   UNL     1      10.841  15.102  21.036  0.00  0.00    +0.000 A 
ATOM      9  C   UNL     1      11.787  16.170  20.550  0.00  0.00    +0.000 C 
ATOM     10  C   UNL     1      10.143  15.266  22.244  0.00  0.00    +0.000 A 
ATOM     11  C   UNL     1      11.379  13.690  19.014  0.00  0.00    +0.000 C 
ATOM     12  C   UNL     1      11.216  12.272  18.524  0.00  0.00    +0.000 C 
ATOM     13  C   UNL     1       9.753  11.835  18.628  0.00  0.00    +0.000 C 
ATOM     14  C   UNL     1       8.781  12.725  17.830  0.00  0.00    +0.000 C 
ATOM     15  O   UNL     1       9.357  11.842  20.016  0.00  0.00    +0.000 OA
BRANCH  10  16
ATOM     16  O   UNL     1      10.322  16.391  23.015  0.00  0.00    +0.000 OA
ATOM     17  H   UNL     1      10.464  17.164  22.454  0.00  0.00    +0.000 HD
ENDBRANCH  10  16
ENDBRANCH   1  13
BRANCH   1  18
ATOM     18  C   UNL     1       8.236   9.794  18.310  0.00  0.00    +0.000 C 
BRANCH  18  19
ATOM     19  C   UNL     1       8.051   8.399  17.713  0.00  0.00    +0.000 C 
BRANCH  19  20
ATOM     20  C   UNL     1       8.315   7.322  18.769  0.00  0.00    +0.000 C 
BRANCH  20  21
ATOM     21  C   UNL     1       7.619   6.013  18.413  0.00  0.00    +0.000 C 
BRANCH  21  22
ATOM     22  C   UNL     1       6.375   6.226  17.571  0.00  0.00    +0.000 C 
BRANCH  22  23
ATOM     23  C   UNL     1       5.529   4.960  17.628  0.00  0.00    +0.000 C 
BRANCH  23  24
ATOM     24  C   UNL     1       4.114   5.248  17.164  0.00  0.00    +0.000 C 
BRANCH  24  25
ATOM     25  C   UNL     1       3.786   6.718  17.379  0.00  0.00    +0.000 C 
BRANCH  25  26
ATOM     26  C   UNL     1       2.518   6.846  18.207  0.00  0.00    +0.000 C 
BRANCH  26  27
ATOM     27  C   UNL     1       2.821   6.621  19.679  0.00  0.00    +0.000 C 
BRANCH  27  28
ATOM     28  C   UNL     1       1.724   5.782  20.318  0.00  0.00    +0.000 C 
BRANCH  28  29
ATOM     29  C   UNL     1       2.318   4.567  21.019  0.00  0.00    +0.000 C 
BRANCH  29  30
ATOM     30  C   UNL     1       1.487   3.325  20.725  0.00  0.00    +0.000 C 
BRANCH  30  31
ATOM     31  C   UNL     1       2.382   2.147  20.362  0.00  0.00    +0.000 C 
BRANCH  31  32
ATOM     32  C   UNL     1       3.553   2.594  19.500  0.00  0.00    +0.000 C 
BRANCH  32  33
ATOM     33  O   UNL     1       4.758   2.038  20.005  0.00  0.00    +0.000 OA
ATOM     34  H   UNL     1       4.739   1.084  19.817  0.00  0.00    +0.000 HD
ENDBRANCH  32  33
ENDBRANCH  31  32
ENDBRANCH  30  31
ENDBRANCH  29  30
ENDBRANCH  28  29
ENDBRANCH  27  28
ENDBRANCH  26  27
ENDBRANCH  25  26
ENDBRANCH  24  25
ENDBRANCH  23  24
ENDBRANCH  22  23
ENDBRANCH  21  22
ENDBRANCH  20  21
ENDBRANCH  19  20
ENDBRANCH  18  19
ENDBRANCH   1  18
TORSDOF 18
ENDMDL
