MODEL 1
REMARK VINA RESULT:      -7.4      0.000      0.000
REMARK  Name = 
REMARK  3 active torsions:
REMARK  status: ('A' for Active; 'I' for Inactive)
REMARK    1  A    between atoms: N_3  and  C_4
REMARK    2  A    between atoms: C_4  and  C_5
REMARK    3  A    between atoms: N_7  and  C_8
REMARK                            x       y       z     vdW  Elec       q    Type
REMARK                         _______ _______ _______ _____ _____    ______ ____
ROOT
ATOM      1  C   UNL     1       5.031   3.875  17.365  0.00  0.00    +0.000 A 
ATOM      2  C   UNL     1       5.405   4.836  18.299  0.00  0.00    +0.000 A 
ATOM      3  C   UNL     1       4.556   5.170  19.356  0.00  0.00    +0.000 A 
ATOM      4  C   UNL     1       3.309   4.551  19.494  0.00  0.00    +0.000 A 
ATOM      5  C   UNL     1       2.936   3.546  18.587  0.00  0.00    +0.000 A 
ATOM      6  C   UNL     1       3.793   3.231  17.514  0.00  0.00    +0.000 A 
ATOM      7  C   UNL     1       1.605   2.842  18.701  0.00  0.00    +0.000 C 
ATOM      8  C   UNL     1       0.910   3.060  20.047  0.00  0.00    +0.000 C 
ATOM      9  C   UNL     1       0.969   4.527  20.447  0.00  0.00    +0.000 C 
ATOM     10  C   UNL     1       2.419   4.961  20.641  0.00  0.00    +0.000 C 
ENDROOT
BRANCH   1  14
ATOM     11  O   UNL     1       5.002   5.023  14.643  0.00  0.00    +0.000 OA
ATOM     12  C   UNL     1       5.705   4.080  14.979  0.00  0.00    +0.000 C 
ATOM     13  N   UNL     1       6.530   3.430  14.083  0.00  0.00    +0.000 N 
ATOM     14  N   UNL     1       5.820   3.545  16.242  0.00  0.00    +0.000 N 
ATOM     15  H   UNL     1       6.666   2.445  14.266  0.00  0.00    +0.000 HD
ATOM     16  H   UNL     1       6.638   2.978  16.406  0.00  0.00    +0.000 HD
BRANCH  13  17
ATOM     17  C   UNL     1       6.496   3.809  12.677  0.00  0.00    +0.000 C 
BRANCH  17  18
ATOM     18  C   UNL     1       5.797   2.773  11.807  0.00  0.00    +0.000 C 
ATOM     19 CL   UNL     1       4.151   3.300  11.369  0.00  0.00    +0.000 Cl
ENDBRANCH  17  18
ENDBRANCH  13  17
ENDBRANCH   1  14
TORSDOF 3
ENDMDL
MODEL 2
REMARK VINA RESULT:      -6.8      6.191      8.358
REMARK  Name = 
REMARK  3 active torsions:
REMARK  status: ('A' for Active; 'I' for Inactive)
REMARK    1  A    between atoms: N_3  and  C_4
REMARK    2  A    between atoms: C_4  and  C_5
REMARK    3  A    between atoms: N_7  and  C_8
REMARK                            x       y       z     vdW  Elec       q    Type
REMARK                         _______ _______ _______ _____ _____    ______ ____
ROOT
ATOM      1  C   UNL     1       1.833   6.952  20.296  0.00  0.00    +0.000 A 
ATOM      2  C   UNL     1       2.412   7.216  19.058  0.00  0.00    +0.000 A 
ATOM      3  C   UNL     1       2.621   6.188  18.137  0.00  0.00    +0.000 A 
ATOM      4  C   UNL     1       2.262   4.871  18.440  0.00  0.00    +0.000 A 
ATOM      5  C   UNL     1       1.634   4.595  19.666  0.00  0.00    +0.000 A 
ATOM      6  C   UNL     1       1.444   5.638  20.595  0.00  0.00    +0.000 A 
ATOM      7  C   UNL     1       1.217   3.191  20.036  0.00  0.00    +0.000 C 
ATOM      8  C   UNL     1       1.209   2.223  18.851  0.00  0.00    +0.000 C 
ATOM      9  C   UNL     1       2.472   2.389  18.016  0.00  0.00    +0.000 C 
ATOM     10  C   UNL     1       2.527   3.792  17.420  0.00  0.00    +0.000 C 
ENDROOT
BRANCH   1  14
ATOM     11  O   UNL     1      -0.652   7.914  21.571  0.00  0.00    +0.000 OA
ATOM     12  C   UNL     1       0.456   8.386  21.791  0.00  0.00    +0.000 C 
ATOM     13  N   UNL     1       0.636   9.460  22.640  0.00  0.00    +0.000 N 
ATOM     14  N   UNL     1       1.657   7.939  21.289  0.00  0.00    +0.000 N 
ATOM     15  H   UNL     1       1.405  10.070  22.398  0.00  0.00    +0.000 HD
ATOM     16  H   UNL     1       2.481   8.244  21.785  0.00  0.00    +0.000 HD
BRANCH  13  17
ATOM     17  C   UNL     1      -0.529  10.117  23.216  0.00  0.00    +0.000 C 
BRANCH  17  18
ATOM     18  C   UNL     1      -0.804  11.478  22.591  0.00  0.00    +0.000 C 
ATOM     19 CL   UNL     1      -2.374  12.131  23.127  0.00  0.00    +0.000 Cl
ENDBRANCH  17  18
ENDBRANCH  13  17
ENDBRANCH   1  14
TORSDOF 3
ENDMDL
MODEL 3
REMARK VINA RESULT:      -6.8      4.751      5.812
REMARK  Name = 
REMARK  3 active torsions:
REMARK  status: ('A' for Active; 'I' for Inactive)
REMARK    1  A    between atoms: N_3  and  C_4
REMARK    2  A    between atoms: C_4  and  C_5
REMARK    3  A    between atoms: N_7  and  C_8
REMARK                            x       y       z     vdW  Elec       q    Type
REMARK                         _______ _______ _______ _____ _____    ______ ____
ROOT
ATOM      1  C   UNL     1       5.736   6.353  16.921  0.00  0.00    +0.000 A 
ATOM      2  C   UNL     1       6.191   5.159  16.370  0.00  0.00    +0.000 A 
ATOM      3  C   UNL     1       5.400   4.009  16.411  0.00  0.00    +0.000 A 
ATOM      4  C   UNL     1       4.137   4.030  17.012  0.00  0.00    +0.000 A 
ATOM      5  C   UNL     1       3.644   5.238  17.532  0.00  0.00    +0.000 A 
ATOM      6  C   UNL     1       4.459   6.387  17.501  0.00  0.00    +0.000 A 
ATOM      7  C   UNL     1       2.283   5.315  18.182  0.00  0.00    +0.000 C 
ATOM      8  C   UNL     1       1.398   4.099  17.895  0.00  0.00    +0.000 C 
ATOM      9  C   UNL     1       2.190   2.810  18.063  0.00  0.00    +0.000 C 
ATOM     10  C   UNL     1       3.330   2.757  17.049  0.00  0.00    +0.000 C 
ENDROOT
BRANCH   1  14
ATOM     11  O   UNL     1       8.030   7.019  18.659  0.00  0.00    +0.000 OA
ATOM     12  C   UNL     1       7.536   7.796  17.853  0.00  0.00    +0.000 C 
ATOM     13  N   UNL     1       7.990   9.092  17.715  0.00  0.00    +0.000 N 
ATOM     14  N   UNL     1       6.518   7.527  16.966  0.00  0.00    +0.000 N 
ATOM     15  H   UNL     1       7.285   9.765  17.449  0.00  0.00    +0.000 HD
ATOM     16  H   UNL     1       6.430   8.167  16.191  0.00  0.00    +0.000 HD
BRANCH  13  17
ATOM     17  C   UNL     1       9.021   9.586  18.617  0.00  0.00    +0.000 C 
BRANCH  17  18
ATOM     18  C   UNL     1       9.470  11.001  18.277  0.00  0.00    +0.000 C 
ATOM     19 CL   UNL     1      11.029  11.389  19.050  0.00  0.00    +0.000 Cl
ENDBRANCH  17  18
ENDBRANCH  13  17
ENDBRANCH   1  14
TORSDOF 3
ENDMDL
MODEL 4
REMARK VINA RESULT:      -6.7      4.023      5.040
REMARK  Name = 
REMARK  3 active torsions:
REMARK  status: ('A' for Active; 'I' for Inactive)
REMARK    1  A    between atoms: N_3  and  C_4
REMARK    2  A    between atoms: C_4  and  C_5
REMARK    3  A    between atoms: N_7  and  C_8
REMARK                            x       y       z     vdW  Elec       q    Type
REMARK                         _______ _______ _______ _____ _____    ______ ____
ROOT
ATOM      1  C   UNL     1       4.511   5.599  17.376  0.00  0.00    +0.000 A 
ATOM      2  C   UNL     1       4.449   4.430  16.624  0.00  0.00    +0.000 A 
ATOM      3  C   UNL     1       3.585   3.395  16.988  0.00  0.00    +0.000 A 
ATOM      4  C   UNL     1       2.769   3.508  18.118  0.00  0.00    +0.000 A 
ATOM      5  C   UNL     1       2.785   4.700  18.861  0.00  0.00    +0.000 A 
ATOM      6  C   UNL     1       3.675   5.730  18.495  0.00  0.00    +0.000 A 
ATOM      7  C   UNL     1       1.916   4.873  20.084  0.00  0.00    +0.000 C 
ATOM      8  C   UNL     1       0.807   3.825  20.201  0.00  0.00    +0.000 C 
ATOM      9  C   UNL     1       1.356   2.433  19.916  0.00  0.00    +0.000 C 
ATOM     10  C   UNL     1       1.868   2.354  18.481  0.00  0.00    +0.000 C 
ENDROOT
BRANCH   1  14
ATOM     11  O   UNL     1       7.165   6.167  18.541  0.00  0.00    +0.000 OA
ATOM     12  C   UNL     1       6.608   6.891  17.727  0.00  0.00    +0.000 C 
ATOM     13  N   UNL     1       7.166   8.081  17.307  0.00  0.00    +0.000 N 
ATOM     14  N   UNL     1       5.410   6.649  17.093  0.00  0.00    +0.000 N 
ATOM     15  H   UNL     1       6.500   8.804  17.071  0.00  0.00    +0.000 HD
ATOM     16  H   UNL     1       5.240   7.187  16.256  0.00  0.00    +0.000 HD
BRANCH  13  17
ATOM     17  C   UNL     1       8.404   8.544  17.918  0.00  0.00    +0.000 C 
BRANCH  17  18
ATOM     18  C   UNL     1       8.429  10.053  18.125  0.00  0.00    +0.000 C 
ATOM     19 CL   UNL     1       9.633  10.518  19.355  0.00  0.00    +0.000 Cl
ENDBRANCH  17  18
ENDBRANCH  13  17
ENDBRANCH   1  14
TORSDOF 3
ENDMDL
MODEL 5
REMARK VINA RESULT:      -6.6      5.106      7.775
REMARK  Name = 
REMARK  3 active torsions:
REMARK  status: ('A' for Active; 'I' for Inactive)
REMARK    1  A    between atoms: N_3  and  C_4
REMARK    2  A    between atoms: C_4  and  C_5
REMARK    3  A    between atoms: N_7  and  C_8
REMARK                            x       y       z     vdW  Elec       q    Type
REMARK                         _______ _______ _______ _____ _____    ______ ____
ROOT
ATOM      1  C   UNL     1       3.212   5.713  19.308  0.00  0.00    +0.000 A 
ATOM      2  C   UNL     1       2.592   5.017  18.275  0.00  0.00    +0.000 A 
ATOM      3  C   UNL     1       3.345   4.462  17.238  0.00  0.00    +0.000 A 
ATOM      4  C   UNL     1       4.737   4.601  17.211  0.00  0.00    +0.000 A 
ATOM      5  C   UNL     1       5.382   5.261  18.270  0.00  0.00    +0.000 A 
ATOM      6  C   UNL     1       4.609   5.832  19.301  0.00  0.00    +0.000 A 
ATOM      7  C   UNL     1       6.883   5.428  18.292  0.00  0.00    +0.000 C 
ATOM      8  C   UNL     1       7.613   4.529  17.291  0.00  0.00    +0.000 C 
ATOM      9  C   UNL     1       6.918   4.562  15.937  0.00  0.00    +0.000 C 
ATOM     10  C   UNL     1       5.504   4.003  16.059  0.00  0.00    +0.000 C 
ENDROOT
BRANCH   1  14
ATOM     11  O   UNL     1       1.840   8.329  19.318  0.00  0.00    +0.000 OA
ATOM     12  C   UNL     1       1.936   7.605  20.300  0.00  0.00    +0.000 C 
ATOM     13  N   UNL     1       1.439   7.977  21.532  0.00  0.00    +0.000 N 
ATOM     14  N   UNL     1       2.496   6.348  20.345  0.00  0.00    +0.000 N 
ATOM     15  H   UNL     1       1.955   7.621  22.325  0.00  0.00    +0.000 HD
ATOM     16  H   UNL     1       2.239   5.782  21.140  0.00  0.00    +0.000 HD
BRANCH  13  17
ATOM     17  C   UNL     1       0.870   9.307  21.700  0.00  0.00    +0.000 C 
BRANCH  17  18
ATOM     18  C   UNL     1       0.087   9.451  22.999  0.00  0.00    +0.000 C 
ATOM     19 CL   UNL     1      -0.985  10.874  22.954  0.00  0.00    +0.000 Cl
ENDBRANCH  17  18
ENDBRANCH  13  17
ENDBRANCH   1  14
TORSDOF 3
ENDMDL
MODEL 6
REMARK VINA RESULT:      -6.6      1.325      1.364
REMARK  Name = 
REMARK  3 active torsions:
REMARK  status: ('A' for Active; 'I' for Inactive)
REMARK    1  A    between atoms: N_3  and  C_4
REMARK    2  A    between atoms: C_4  and  C_5
REMARK    3  A    between atoms: N_7  and  C_8
REMARK                            x       y       z     vdW  Elec       q    Type
REMARK                         _______ _______ _______ _____ _____    ______ ____
ROOT
ATOM      1  C   UNL     1       4.503   5.251  17.137  0.00  0.00    +0.000 A 
ATOM      2  C   UNL     1       4.958   5.737  18.359  0.00  0.00    +0.000 A 
ATOM      3  C   UNL     1       4.268   5.452  19.539  0.00  0.00    +0.000 A 
ATOM      4  C   UNL     1       3.102   4.680  19.517  0.00  0.00    +0.000 A 
ATOM      5  C   UNL     1       2.656   4.143  18.298  0.00  0.00    +0.000 A 
ATOM      6  C   UNL     1       3.350   4.453  17.112  0.00  0.00    +0.000 A 
ATOM      7  C   UNL     1       1.408   3.295  18.225  0.00  0.00    +0.000 C 
ATOM      8  C   UNL     1       0.924   2.799  19.589  0.00  0.00    +0.000 C 
ATOM      9  C   UNL     1       0.950   3.930  20.609  0.00  0.00    +0.000 C 
ATOM     10  C   UNL     1       2.381   4.417  20.816  0.00  0.00    +0.000 C 
ENDROOT
BRANCH   1  14
ATOM     11  O   UNL     1       6.419   3.663  15.545  0.00  0.00    +0.000 OA
ATOM     12  C   UNL     1       6.063   4.797  15.253  0.00  0.00    +0.000 C 
ATOM     13  N   UNL     1       6.571   5.461  14.154  0.00  0.00    +0.000 N 
ATOM     14  N   UNL     1       5.124   5.561  15.908  0.00  0.00    +0.000 N 
ATOM     15  H   UNL     1       6.635   6.465  14.255  0.00  0.00    +0.000 HD
ATOM     16  H   UNL     1       4.743   6.334  15.383  0.00  0.00    +0.000 HD
BRANCH  13  17
ATOM     17  C   UNL     1       7.632   4.840  13.373  0.00  0.00    +0.000 C 
BRANCH  17  18
ATOM     18  C   UNL     1       7.139   4.307  12.034  0.00  0.00    +0.000 C 
ATOM     19 CL   UNL     1       5.671   3.315  12.233  0.00  0.00    +0.000 Cl
ENDBRANCH  17  18
ENDBRANCH  13  17
ENDBRANCH   1  14
TORSDOF 3
ENDMDL
MODEL 7
REMARK VINA RESULT:      -6.5      1.237      1.315
REMARK  Name = 
REMARK  3 active torsions:
REMARK  status: ('A' for Active; 'I' for Inactive)
REMARK    1  A    between atoms: N_3  and  C_4
REMARK    2  A    between atoms: C_4  and  C_5
REMARK    3  A    between atoms: N_7  and  C_8
REMARK                            x       y       z     vdW  Elec       q    Type
REMARK                         _______ _______ _______ _____ _____    ______ ____
ROOT
ATOM      1  C   UNL     1       5.055   3.899  17.266  0.00  0.00    +0.000 A 
ATOM      2  C   UNL     1       5.454   4.860  18.191  0.00  0.00    +0.000 A 
ATOM      3  C   UNL     1       4.635   5.188  19.274  0.00  0.00    +0.000 A 
ATOM      4  C   UNL     1       3.395   4.566  19.447  0.00  0.00    +0.000 A 
ATOM      5  C   UNL     1       2.999   3.561  18.549  0.00  0.00    +0.000 A 
ATOM      6  C   UNL     1       3.825   3.252  17.451  0.00  0.00    +0.000 A 
ATOM      7  C   UNL     1       1.673   2.853  18.700  0.00  0.00    +0.000 C 
ATOM      8  C   UNL     1       1.018   3.065  20.067  0.00  0.00    +0.000 C 
ATOM      9  C   UNL     1       1.084   4.532  20.469  0.00  0.00    +0.000 C 
ATOM     10  C   UNL     1       2.538   4.970  20.621  0.00  0.00    +0.000 C 
ENDROOT
BRANCH   1  14
ATOM     11  O   UNL     1       4.759   4.851  14.486  0.00  0.00    +0.000 OA
ATOM     12  C   UNL     1       5.574   4.008  14.835  0.00  0.00    +0.000 C 
ATOM     13  N   UNL     1       6.412   3.385  13.933  0.00  0.00    +0.000 N 
ATOM     14  N   UNL     1       5.812   3.575  16.120  0.00  0.00    +0.000 N 
ATOM     15  H   UNL     1       6.659   2.433  14.168  0.00  0.00    +0.000 HD
ATOM     16  H   UNL     1       6.693   3.105  16.269  0.00  0.00    +0.000 HD
BRANCH  13  17
ATOM     17  C   UNL     1       6.262   3.661  12.511  0.00  0.00    +0.000 C 
BRANCH  17  18
ATOM     18  C   UNL     1       7.502   4.303  11.904  0.00  0.00    +0.000 C 
ATOM     19 CL   UNL     1       8.149   5.587  12.958  0.00  0.00    +0.000 Cl
ENDBRANCH  17  18
ENDBRANCH  13  17
ENDBRANCH   1  14
TORSDOF 3
ENDMDL
MODEL 8
REMARK VINA RESULT:      -6.5      1.335      1.461
REMARK  Name = 
REMARK  3 active torsions:
REMARK  status: ('A' for Active; 'I' for Inactive)
REMARK    1  A    between atoms: N_3  and  C_4
REMARK    2  A    between atoms: C_4  and  C_5
REMARK    3  A    between atoms: N_7  and  C_8
REMARK                            x       y       z     vdW  Elec       q    Type
REMARK                         _______ _______ _______ _____ _____    ______ ____
ROOT
ATOM      1  C   UNL     1       5.121   4.795  17.655  0.00  0.00    +0.000 A 
ATOM      2  C   UNL     1       4.494   6.020  17.863  0.00  0.00    +0.000 A 
ATOM      3  C   UNL     1       3.444   6.135  18.776  0.00  0.00    +0.000 A 
ATOM      4  C   UNL     1       2.994   5.022  19.494  0.00  0.00    +0.000 A 
ATOM      5  C   UNL     1       3.647   3.790  19.330  0.00  0.00    +0.000 A 
ATOM      6  C   UNL     1       4.693   3.681  18.392  0.00  0.00    +0.000 A 
ATOM      7  C   UNL     1       3.205   2.561  20.090  0.00  0.00    +0.000 C 
ATOM      8  C   UNL     1       2.275   2.870  21.265  0.00  0.00    +0.000 C 
ATOM      9  C   UNL     1       1.202   3.867  20.849  0.00  0.00    +0.000 C 
ATOM     10  C   UNL     1       1.843   5.194  20.453  0.00  0.00    +0.000 C 
ENDROOT
BRANCH   1  14
ATOM     11  O   UNL     1       5.530   6.131  15.052  0.00  0.00    +0.000 OA
ATOM     12  C   UNL     1       6.234   5.221  15.471  0.00  0.00    +0.000 C 
ATOM     13  N   UNL     1       7.273   4.701  14.727  0.00  0.00    +0.000 N 
ATOM     14  N   UNL     1       6.142   4.607  16.699  0.00  0.00    +0.000 N 
ATOM     15  H   UNL     1       7.456   3.719  14.878  0.00  0.00    +0.000 HD
ATOM     16  H   UNL     1       6.959   4.093  16.995  0.00  0.00    +0.000 HD
BRANCH  13  17
ATOM     17  C   UNL     1       7.485   5.176  13.367  0.00  0.00    +0.000 C 
BRANCH  17  18
ATOM     18  C   UNL     1       7.212   4.103  12.320  0.00  0.00    +0.000 C 
ATOM     19 CL   UNL     1       5.567   3.436  12.492  0.00  0.00    +0.000 Cl
ENDBRANCH  17  18
ENDBRANCH  13  17
ENDBRANCH   1  14
TORSDOF 3
ENDMDL
MODEL 9
REMARK VINA RESULT:      -6.4      5.817      7.811
REMARK  Name = 
REMARK  3 active torsions:
REMARK  status: ('A' for Active; 'I' for Inactive)
REMARK    1  A    between atoms: N_3  and  C_4
REMARK    2  A    between atoms: C_4  and  C_5
REMARK    3  A    between atoms: N_7  and  C_8
REMARK                            x       y       z     vdW  Elec       q    Type
REMARK                         _______ _______ _______ _____ _____    ______ ____
ROOT
ATOM      1  C   UNL     1       2.001   6.942  19.938  0.00  0.00    +0.000 A 
ATOM      2  C   UNL     1       2.745   7.039  18.766  0.00  0.00    +0.000 A 
ATOM      3  C   UNL     1       3.011   5.905  17.996  0.00  0.00    +0.000 A 
ATOM      4  C   UNL     1       2.543   4.647  18.389  0.00  0.00    +0.000 A 
ATOM      5  C   UNL     1       1.750   4.540  19.544  0.00  0.00    +0.000 A 
ATOM      6  C   UNL     1       1.504   5.688  20.323  0.00  0.00    +0.000 A 
ATOM      7  C   UNL     1       1.212   3.206  20.005  0.00  0.00    +0.000 C 
ATOM      8  C   UNL     1       1.299   2.110  18.940  0.00  0.00    +0.000 C 
ATOM      9  C   UNL     1       2.665   2.127  18.266  0.00  0.00    +0.000 C 
ATOM     10  C   UNL     1       2.874   3.450  17.535  0.00  0.00    +0.000 C 
ENDROOT
BRANCH   1  14
ATOM     11  O   UNL     1       0.400   9.376  19.448  0.00  0.00    +0.000 OA
ATOM     12  C   UNL     1       1.051   9.181  20.466  0.00  0.00    +0.000 C 
ATOM     13  N   UNL     1       1.129  10.120  21.474  0.00  0.00    +0.000 N 
ATOM     14  N   UNL     1       1.757   8.043  20.787  0.00  0.00    +0.000 N 
ATOM     15  H   UNL     1       2.002  10.126  21.984  0.00  0.00    +0.000 HD
ATOM     16  H   UNL     1       1.989   7.931  21.762  0.00  0.00    +0.000 HD
BRANCH  13  17
ATOM     17  C   UNL     1       0.502  11.421  21.286  0.00  0.00    +0.000 C 
BRANCH  17  18
ATOM     18  C   UNL     1      -0.629  11.676  22.274  0.00  0.00    +0.000 C 
ATOM     19 CL   UNL     1      -0.951  10.235  23.274  0.00  0.00    +0.000 Cl
ENDBRANCH  17  18
ENDBRANCH  13  17
ENDBRANCH   1  14
TORSDOF 3
ENDMDL
