MODEL 1
REMARK VINA RESULT:      -8.9      0.000      0.000
REMARK  Name = 
REMARK  4 active torsions:
REMARK  status: ('A' for Active; 'I' for Inactive)
REMARK    1  A    between atoms: C_4  and  C_5
REMARK    2  A    between atoms: C_5  and  N_6
REMARK    3  A    between atoms: C_10  and  C_11
REMARK    4  A    between atoms: C_11  and  N_12
REMARK                            x       y       z     vdW  Elec       q    Type
REMARK                         _______ _______ _______ _____ _____    ______ ____
ROOT
ATOM      1  C   UNL     1       3.171   6.358  19.832  0.00  0.00    +0.000 C 
ENDROOT
BRANCH   1   2
ATOM      2  N   UNL     1       2.937   5.662  18.562  0.00  0.00    +0.000 N 
ATOM      3  C   UNL     1       3.781   5.734  17.467  0.00  0.00    +0.000 A 
ATOM      4  C   UNL     1       4.488   6.806  16.907  0.00  0.00    +0.000 A 
ATOM      5  C   UNL     1       5.361   6.523  15.853  0.00  0.00    +0.000 A 
ATOM      6  C   UNL     1       5.548   5.218  15.406  0.00  0.00    +0.000 A 
ATOM      7  C   UNL     1       4.860   4.152  16.000  0.00  0.00    +0.000 A 
ATOM      8  C   UNL     1       3.941   4.414  17.035  0.00  0.00    +0.000 A 
ATOM      9  C   UNL     1       3.077   3.597  17.833  0.00  0.00    +0.000 A 
ATOM     10  C   UNL     1       2.901   2.217  18.036  0.00  0.00    +0.000 A 
ATOM     11  C   UNL     1       1.838   1.781  18.838  0.00  0.00    +0.000 A 
ATOM     12  C   UNL     1       0.907   2.683  19.351  0.00  0.00    +0.000 A 
ATOM     13  C   UNL     1       1.091   4.057  19.208  0.00  0.00    +0.000 A 
ATOM     14  C   UNL     1       2.241   4.470  18.526  0.00  0.00    +0.000 A 
ENDBRANCH   1   2
BRANCH   1  19
ATOM     15  N   UNL     1       0.850   9.312  19.305  0.00  0.00    +0.000 N 
ATOM     16  C   UNL     1       0.145   9.332  20.469  0.00  0.00    +0.000 A 
ATOM     17  C   UNL     1       0.407   8.395  21.467  0.00  0.00    +0.000 A 
ATOM     18  C   UNL     1       1.393   7.446  21.270  0.00  0.00    +0.000 A 
ATOM     19  C   UNL     1       2.116   7.427  20.072  0.00  0.00    +0.000 A 
ATOM     20  C   UNL     1       1.831   8.407  19.109  0.00  0.00    +0.000 A 
BRANCH  15  21
ATOM     21  C   UNL     1       0.577  10.363  18.281  0.00  0.00    +0.000 C 
BRANCH  21  25
ATOM     22  C   UNL     1      -3.691  10.869  17.769  0.00  0.00    +0.000 A 
ATOM     23  C   UNL     1      -3.005   9.878  17.079  0.00  0.00    +0.000 A 
ATOM     24  C   UNL     1      -1.624   9.745  17.220  0.00  0.00    +0.000 A 
ATOM     25  C   UNL     1      -0.900  10.624  18.054  0.00  0.00    +0.000 A 
ATOM     26  C   UNL     1      -1.606  11.602  18.756  0.00  0.00    +0.000 A 
ATOM     27  C   UNL     1      -2.985  11.736  18.610  0.00  0.00    +0.000 A 
ENDBRANCH  21  25
ENDBRANCH  15  21
ENDBRANCH   1  19
TORSDOF 4
ENDMDL
MODEL 2
REMARK VINA RESULT:      -8.9      1.078      3.337
REMARK  Name = 
REMARK  4 active torsions:
REMARK  status: ('A' for Active; 'I' for Inactive)
REMARK    1  A    between atoms: C_4  and  C_5
REMARK    2  A    between atoms: C_5  and  N_6
REMARK    3  A    between atoms: C_10  and  C_11
REMARK    4  A    between atoms: C_11  and  N_12
REMARK                            x       y       z     vdW  Elec       q    Type
REMARK                         _______ _______ _______ _____ _____    ______ ____
ROOT
ATOM      1  C   UNL     1       2.919   7.129  17.337  0.00  0.00    +0.000 C 
ENDROOT
BRANCH   1   2
ATOM      2  N   UNL     1       3.578   5.947  17.904  0.00  0.00    +0.000 N 
ATOM      3  C   UNL     1       2.959   4.723  18.091  0.00  0.00    +0.000 A 
ATOM      4  C   UNL     1       1.673   4.391  18.539  0.00  0.00    +0.000 A 
ATOM      5  C   UNL     1       1.307   3.043  18.506  0.00  0.00    +0.000 A 
ATOM      6  C   UNL     1       2.175   2.075  18.006  0.00  0.00    +0.000 A 
ATOM      7  C   UNL     1       3.444   2.429  17.528  0.00  0.00    +0.000 A 
ATOM      8  C   UNL     1       3.856   3.774  17.592  0.00  0.00    +0.000 A 
ATOM      9  C   UNL     1       5.052   4.470  17.223  0.00  0.00    +0.000 A 
ATOM     10  C   UNL     1       6.222   4.153  16.512  0.00  0.00    +0.000 A 
ATOM     11  C   UNL     1       7.256   5.097  16.454  0.00  0.00    +0.000 A 
ATOM     12  C   UNL     1       7.177   6.293  17.165  0.00  0.00    +0.000 A 
ATOM     13  C   UNL     1       6.007   6.652  17.831  0.00  0.00    +0.000 A 
ATOM     14  C   UNL     1       4.937   5.754  17.752  0.00  0.00    +0.000 A 
ENDBRANCH   1   2
BRANCH   1  19
ATOM     15  N   UNL     1       0.826   9.776  19.070  0.00  0.00    +0.000 N 
ATOM     16  C   UNL     1       0.837   9.348  20.361  0.00  0.00    +0.000 A 
ATOM     17  C   UNL     1       1.533   8.192  20.714  0.00  0.00    +0.000 A 
ATOM     18  C   UNL     1       2.218   7.485  19.743  0.00  0.00    +0.000 A 
ATOM     19  C   UNL     1       2.205   7.927  18.416  0.00  0.00    +0.000 A 
ATOM     20  C   UNL     1       1.510   9.110  18.117  0.00  0.00    +0.000 A 
BRANCH  15  21
ATOM     21  C   UNL     1       0.115  11.046  18.740  0.00  0.00    +0.000 C 
BRANCH  21  25
ATOM     22  C   UNL     1      -4.007  10.723  17.456  0.00  0.00    +0.000 A 
ATOM     23  C   UNL     1      -3.642  11.614  18.458  0.00  0.00    +0.000 A 
ATOM     24  C   UNL     1      -2.318  11.686  18.892  0.00  0.00    +0.000 A 
ATOM     25  C   UNL     1      -1.333  10.844  18.332  0.00  0.00    +0.000 A 
ATOM     26  C   UNL     1      -1.711   9.968  17.315  0.00  0.00    +0.000 A 
ATOM     27  C   UNL     1      -3.034   9.895  16.886  0.00  0.00    +0.000 A 
ENDBRANCH  21  25
ENDBRANCH  15  21
ENDBRANCH   1  19
TORSDOF 4
ENDMDL
MODEL 3
REMARK VINA RESULT:      -8.7      1.863      2.791
REMARK  Name = 
REMARK  4 active torsions:
REMARK  status: ('A' for Active; 'I' for Inactive)
REMARK    1  A    between atoms: C_4  and  C_5
REMARK    2  A    between atoms: C_5  and  N_6
REMARK    3  A    between atoms: C_10  and  C_11
REMARK    4  A    between atoms: C_11  and  N_12
REMARK                            x       y       z     vdW  Elec       q    Type
REMARK                         _______ _______ _______ _____ _____    ______ ____
ROOT
ATOM      1  C   UNL     1       3.485   6.370  19.131  0.00  0.00    +0.000 C 
ENDROOT
BRANCH   1   2
ATOM      2  N   UNL     1       3.341   5.500  17.958  0.00  0.00    +0.000 N 
ATOM      3  C   UNL     1       4.285   5.384  16.953  0.00  0.00    +0.000 A 
ATOM      4  C   UNL     1       5.088   6.341  16.316  0.00  0.00    +0.000 A 
ATOM      5  C   UNL     1       6.042   5.879  15.405  0.00  0.00    +0.000 A 
ATOM      6  C   UNL     1       6.213   4.517  15.172  0.00  0.00    +0.000 A 
ATOM      7  C   UNL     1       5.426   3.571  15.844  0.00  0.00    +0.000 A 
ATOM      8  C   UNL     1       4.427   4.011  16.734  0.00  0.00    +0.000 A 
ATOM      9  C   UNL     1       3.458   3.346  17.553  0.00  0.00    +0.000 A 
ATOM     10  C   UNL     1       3.204   2.018  17.935  0.00  0.00    +0.000 A 
ATOM     11  C   UNL     1       2.052   1.737  18.682  0.00  0.00    +0.000 A 
ATOM     12  C   UNL     1       1.118   2.732  18.965  0.00  0.00    +0.000 A 
ATOM     13  C   UNL     1       1.374   4.064  18.644  0.00  0.00    +0.000 A 
ATOM     14  C   UNL     1       2.600   4.337  18.026  0.00  0.00    +0.000 A 
ENDBRANCH   1   2
BRANCH   1  19
ATOM     15  N   UNL     1       0.877   8.892  20.240  0.00  0.00    +0.000 N 
ATOM     16  C   UNL     1       0.650   9.590  19.094  0.00  0.00    +0.000 A 
ATOM     17  C   UNL     1       1.329   9.259  17.922  0.00  0.00    +0.000 A 
ATOM     18  C   UNL     1       2.230   8.211  17.928  0.00  0.00    +0.000 A 
ATOM     19  C   UNL     1       2.461   7.494  19.107  0.00  0.00    +0.000 A 
ATOM     20  C   UNL     1       1.735   7.851  20.254  0.00  0.00    +0.000 A 
BRANCH  15  21
ATOM     21  C   UNL     1       0.094   9.241  21.461  0.00  0.00    +0.000 C 
BRANCH  21  25
ATOM     22  C   UNL     1      -0.387  13.471  22.243  0.00  0.00    +0.000 A 
ATOM     23  C   UNL     1      -1.173  12.533  22.900  0.00  0.00    +0.000 A 
ATOM     24  C   UNL     1      -1.038  11.174  22.616  0.00  0.00    +0.000 A 
ATOM     25  C   UNL     1      -0.113  10.733  21.645  0.00  0.00    +0.000 A 
ATOM     26  C   UNL     1       0.681  11.685  21.006  0.00  0.00    +0.000 A 
ATOM     27  C   UNL     1       0.542  13.042  21.289  0.00  0.00    +0.000 A 
ENDBRANCH  21  25
ENDBRANCH  15  21
ENDBRANCH   1  19
TORSDOF 4
ENDMDL
MODEL 4
REMARK VINA RESULT:      -8.4      1.459      2.402
REMARK  Name = 
REMARK  4 active torsions:
REMARK  status: ('A' for Active; 'I' for Inactive)
REMARK    1  A    between atoms: C_4  and  C_5
REMARK    2  A    between atoms: C_5  and  N_6
REMARK    3  A    between atoms: C_10  and  C_11
REMARK    4  A    between atoms: C_11  and  N_12
REMARK                            x       y       z     vdW  Elec       q    Type
REMARK                         _______ _______ _______ _____ _____    ______ ____
ROOT
ATOM      1  C   UNL     1       3.340   6.315  19.203  0.00  0.00    +0.000 C 
ENDROOT
BRANCH   1   2
ATOM      2  N   UNL     1       3.279   5.454  18.017  0.00  0.00    +0.000 N 
ATOM      3  C   UNL     1       4.286   5.355  17.073  0.00  0.00    +0.000 A 
ATOM      4  C   UNL     1       5.118   6.324  16.495  0.00  0.00    +0.000 A 
ATOM      5  C   UNL     1       6.131   5.879  15.642  0.00  0.00    +0.000 A 
ATOM      6  C   UNL     1       6.330   4.520  15.411  0.00  0.00    +0.000 A 
ATOM      7  C   UNL     1       5.512   3.562  16.024  0.00  0.00    +0.000 A 
ATOM      8  C   UNL     1       4.455   3.984  16.853  0.00  0.00    +0.000 A 
ATOM      9  C   UNL     1       3.442   3.305  17.604  0.00  0.00    +0.000 A 
ATOM     10  C   UNL     1       3.178   1.970  17.960  0.00  0.00    +0.000 A 
ATOM     11  C   UNL     1       1.985   1.673  18.631  0.00  0.00    +0.000 A 
ATOM     12  C   UNL     1       1.025   2.657  18.862  0.00  0.00    +0.000 A 
ATOM     13  C   UNL     1       1.288   3.993  18.568  0.00  0.00    +0.000 A 
ATOM     14  C   UNL     1       2.547   4.283  18.030  0.00  0.00    +0.000 A 
ENDBRANCH   1   2
BRANCH   1  19
ATOM     15  N   UNL     1       0.968   9.188  19.915  0.00  0.00    +0.000 N 
ATOM     16  C   UNL     1       0.969   9.859  18.731  0.00  0.00    +0.000 A 
ATOM     17  C   UNL     1       1.731   9.395  17.659  0.00  0.00    +0.000 A 
ATOM     18  C   UNL     1       2.483   8.244  17.805  0.00  0.00    +0.000 A 
ATOM     19  C   UNL     1       2.481   7.556  19.024  0.00  0.00    +0.000 A 
ATOM     20  C   UNL     1       1.677   8.051  20.063  0.00  0.00    +0.000 A 
BRANCH  15  21
ATOM     21  C   UNL     1       0.099   9.686  21.021  0.00  0.00    +0.000 C 
BRANCH  21  25
ATOM     22  C   UNL     1      -0.979  13.821  20.330  0.00  0.00    +0.000 A 
ATOM     23  C   UNL     1       0.167  13.495  21.045  0.00  0.00    +0.000 A 
ATOM     24  C   UNL     1       0.488  12.161  21.295  0.00  0.00    +0.000 A 
ATOM     25  C   UNL     1      -0.354  11.123  20.841  0.00  0.00    +0.000 A 
ATOM     26  C   UNL     1      -1.491  11.465  20.109  0.00  0.00    +0.000 A 
ATOM     27  C   UNL     1      -1.812  12.798  19.864  0.00  0.00    +0.000 A 
ENDBRANCH  21  25
ENDBRANCH  15  21
ENDBRANCH   1  19
TORSDOF 4
ENDMDL
MODEL 5
REMARK VINA RESULT:      -8.3      1.355      2.166
REMARK  Name = 
REMARK  4 active torsions:
REMARK  status: ('A' for Active; 'I' for Inactive)
REMARK    1  A    between atoms: C_4  and  C_5
REMARK    2  A    between atoms: C_5  and  N_6
REMARK    3  A    between atoms: C_10  and  C_11
REMARK    4  A    between atoms: C_11  and  N_12
REMARK                            x       y       z     vdW  Elec       q    Type
REMARK                         _______ _______ _______ _____ _____    ______ ____
ROOT
ATOM      1  C   UNL     1       3.153   6.374  19.796  0.00  0.00    +0.000 C 
ENDROOT
BRANCH   1   2
ATOM      2  N   UNL     1       2.931   5.651  18.539  0.00  0.00    +0.000 N 
ATOM      3  C   UNL     1       3.779   5.710  17.446  0.00  0.00    +0.000 A 
ATOM      4  C   UNL     1       4.477   6.779  16.868  0.00  0.00    +0.000 A 
ATOM      5  C   UNL     1       5.356   6.485  15.822  0.00  0.00    +0.000 A 
ATOM      6  C   UNL     1       5.559   5.172  15.402  0.00  0.00    +0.000 A 
ATOM      7  C   UNL     1       4.879   4.111  16.015  0.00  0.00    +0.000 A 
ATOM      8  C   UNL     1       3.954   4.384  17.040  0.00  0.00    +0.000 A 
ATOM      9  C   UNL     1       3.095   3.573  17.852  0.00  0.00    +0.000 A 
ATOM     10  C   UNL     1       2.933   2.196  18.081  0.00  0.00    +0.000 A 
ATOM     11  C   UNL     1       1.872   1.765  18.888  0.00  0.00    +0.000 A 
ATOM     12  C   UNL     1       0.930   2.667  19.380  0.00  0.00    +0.000 A 
ATOM     13  C   UNL     1       1.100   4.039  19.211  0.00  0.00    +0.000 A 
ATOM     14  C   UNL     1       2.248   4.451  18.525  0.00  0.00    +0.000 A 
ENDBRANCH   1   2
BRANCH   1  19
ATOM     15  N   UNL     1       0.917   9.364  19.125  0.00  0.00    +0.000 N 
ATOM     16  C   UNL     1       0.198   9.447  20.278  0.00  0.00    +0.000 A 
ATOM     17  C   UNL     1       0.424   8.543  21.315  0.00  0.00    +0.000 A 
ATOM     18  C   UNL     1       1.387   7.562  21.167  0.00  0.00    +0.000 A 
ATOM     19  C   UNL     1       2.124   7.478  19.981  0.00  0.00    +0.000 A 
ATOM     20  C   UNL     1       1.876   8.427  18.977  0.00  0.00    +0.000 A 
BRANCH  15  21
ATOM     21  C   UNL     1       0.684  10.381  18.058  0.00  0.00    +0.000 C 
BRANCH  21  25
ATOM     22  C   UNL     1       1.031  14.531  19.240  0.00  0.00    +0.000 A 
ATOM     23  C   UNL     1       2.151  13.711  19.188  0.00  0.00    +0.000 A 
ATOM     24  C   UNL     1       2.026  12.366  18.842  0.00  0.00    +0.000 A 
ATOM     25  C   UNL     1       0.759  11.813  18.556  0.00  0.00    +0.000 A 
ATOM     26  C   UNL     1      -0.354  12.653  18.594  0.00  0.00    +0.000 A 
ATOM     27  C   UNL     1      -0.228  13.996  18.943  0.00  0.00    +0.000 A 
ENDBRANCH  21  25
ENDBRANCH  15  21
ENDBRANCH   1  19
TORSDOF 4
ENDMDL
MODEL 6
REMARK VINA RESULT:      -8.2      2.896      8.048
REMARK  Name = 
REMARK  4 active torsions:
REMARK  status: ('A' for Active; 'I' for Inactive)
REMARK    1  A    between atoms: C_4  and  C_5
REMARK    2  A    between atoms: C_5  and  N_6
REMARK    3  A    between atoms: C_10  and  C_11
REMARK    4  A    between atoms: C_11  and  N_12
REMARK                            x       y       z     vdW  Elec       q    Type
REMARK                         _______ _______ _______ _____ _____    ______ ____
ROOT
ATOM      1  C   UNL     1       3.660   4.343  17.057  0.00  0.00    +0.000 C 
ENDROOT
BRANCH   1   2
ATOM      2  N   UNL     1       3.574   5.056  18.336  0.00  0.00    +0.000 N 
ATOM      3  C   UNL     1       3.120   6.356  18.475  0.00  0.00    +0.000 A 
ATOM      4  C   UNL     1       3.328   7.502  17.694  0.00  0.00    +0.000 A 
ATOM      5  C   UNL     1       2.625   8.657  18.043  0.00  0.00    +0.000 A 
ATOM      6  C   UNL     1       1.720   8.655  19.103  0.00  0.00    +0.000 A 
ATOM      7  C   UNL     1       1.498   7.492  19.852  0.00  0.00    +0.000 A 
ATOM      8  C   UNL     1       2.226   6.325  19.549  0.00  0.00    +0.000 A 
ATOM      9  C   UNL     1       2.267   5.003  20.099  0.00  0.00    +0.000 A 
ATOM     10  C   UNL     1       1.507   4.278  21.032  0.00  0.00    +0.000 A 
ATOM     11  C   UNL     1       1.939   2.999  21.409  0.00  0.00    +0.000 A 
ATOM     12  C   UNL     1       3.149   2.484  20.948  0.00  0.00    +0.000 A 
ATOM     13  C   UNL     1       3.891   3.161  19.982  0.00  0.00    +0.000 A 
ATOM     14  C   UNL     1       3.362   4.370  19.515  0.00  0.00    +0.000 A 
ENDBRANCH   1   2
BRANCH   1  19
ATOM     15  N   UNL     1       6.490   4.837  14.579  0.00  0.00    +0.000 N 
ATOM     16  C   UNL     1       7.588   4.741  15.378  0.00  0.00    +0.000 A 
ATOM     17  C   UNL     1       7.447   4.502  16.744  0.00  0.00    +0.000 A 
ATOM     18  C   UNL     1       6.182   4.358  17.284  0.00  0.00    +0.000 A 
ATOM     19  C   UNL     1       5.055   4.457  16.461  0.00  0.00    +0.000 A 
ATOM     20  C   UNL     1       5.252   4.673  15.088  0.00  0.00    +0.000 A 
BRANCH  15  21
ATOM     21  C   UNL     1       6.683   5.040  13.114  0.00  0.00    +0.000 C 
BRANCH  21  25
ATOM     22  C   UNL     1       6.053   1.334  10.968  0.00  0.00    +0.000 A 
ATOM     23  C   UNL     1       7.337   1.813  11.197  0.00  0.00    +0.000 A 
ATOM     24  C   UNL     1       7.531   3.027  11.856  0.00  0.00    +0.000 A 
ATOM     25  C   UNL     1       6.427   3.794  12.287  0.00  0.00    +0.000 A 
ATOM     26  C   UNL     1       5.145   3.290  12.067  0.00  0.00    +0.000 A 
ATOM     27  C   UNL     1       4.953   2.080  11.404  0.00  0.00    +0.000 A 
ENDBRANCH  21  25
ENDBRANCH  15  21
ENDBRANCH   1  19
TORSDOF 4
ENDMDL
MODEL 7
REMARK VINA RESULT:      -8.2      2.178      4.289
REMARK  Name = 
REMARK  4 active torsions:
REMARK  status: ('A' for Active; 'I' for Inactive)
REMARK    1  A    between atoms: C_4  and  C_5
REMARK    2  A    between atoms: C_5  and  N_6
REMARK    3  A    between atoms: C_10  and  C_11
REMARK    4  A    between atoms: C_11  and  N_12
REMARK                            x       y       z     vdW  Elec       q    Type
REMARK                         _______ _______ _______ _____ _____    ______ ____
ROOT
ATOM      1  C   UNL     1       2.871   7.113  17.405  0.00  0.00    +0.000 C 
ENDROOT
BRANCH   1   2
ATOM      2  N   UNL     1       3.546   5.925  17.938  0.00  0.00    +0.000 N 
ATOM      3  C   UNL     1       2.930   4.701  18.136  0.00  0.00    +0.000 A 
ATOM      4  C   UNL     1       1.660   4.368  18.626  0.00  0.00    +0.000 A 
ATOM      5  C   UNL     1       1.288   3.022  18.594  0.00  0.00    +0.000 A 
ATOM      6  C   UNL     1       2.134   2.056  18.056  0.00  0.00    +0.000 A 
ATOM      7  C   UNL     1       3.387   2.410  17.537  0.00  0.00    +0.000 A 
ATOM      8  C   UNL     1       3.805   3.753  17.598  0.00  0.00    +0.000 A 
ATOM      9  C   UNL     1       4.990   4.449  17.192  0.00  0.00    +0.000 A 
ATOM     10  C   UNL     1       6.133   4.135  16.438  0.00  0.00    +0.000 A 
ATOM     11  C   UNL     1       7.167   5.077  16.352  0.00  0.00    +0.000 A 
ATOM     12  C   UNL     1       7.117   6.267  17.076  0.00  0.00    +0.000 A 
ATOM     13  C   UNL     1       5.973   6.623  17.786  0.00  0.00    +0.000 A 
ATOM     14  C   UNL     1       4.898   5.729  17.736  0.00  0.00    +0.000 A 
ENDBRANCH   1   2
BRANCH   1  19
ATOM     15  N   UNL     1       1.115   9.909  19.274  0.00  0.00    +0.000 N 
ATOM     16  C   UNL     1       1.006   9.390  20.527  0.00  0.00    +0.000 A 
ATOM     17  C   UNL     1       1.509   8.120  20.809  0.00  0.00    +0.000 A 
ATOM     18  C   UNL     1       2.124   7.392  19.808  0.00  0.00    +0.000 A 
ATOM     19  C   UNL     1       2.235   7.928  18.520  0.00  0.00    +0.000 A 
ATOM     20  C   UNL     1       1.735   9.220  18.294  0.00  0.00    +0.000 A 
BRANCH  15  21
ATOM     21  C   UNL     1       0.613  11.291  19.023  0.00  0.00    +0.000 C 
BRANCH  21  25
ATOM     22  C   UNL     1       3.421  14.541  19.561  0.00  0.00    +0.000 A 
ATOM     23  C   UNL     1       3.286  13.915  18.328  0.00  0.00    +0.000 A 
ATOM     24  C   UNL     1       2.406  12.844  18.171  0.00  0.00    +0.000 A 
ATOM     25  C   UNL     1       1.652  12.370  19.266  0.00  0.00    +0.000 A 
ATOM     26  C   UNL     1       1.784  13.021  20.493  0.00  0.00    +0.000 A 
ATOM     27  C   UNL     1       2.667  14.087  20.648  0.00  0.00    +0.000 A 
ENDBRANCH  21  25
ENDBRANCH  15  21
ENDBRANCH   1  19
TORSDOF 4
ENDMDL
MODEL 8
REMARK VINA RESULT:      -8.1      1.851      8.383
REMARK  Name = 
REMARK  4 active torsions:
REMARK  status: ('A' for Active; 'I' for Inactive)
REMARK    1  A    between atoms: C_4  and  C_5
REMARK    2  A    between atoms: C_5  and  N_6
REMARK    3  A    between atoms: C_10  and  C_11
REMARK    4  A    between atoms: C_11  and  N_12
REMARK                            x       y       z     vdW  Elec       q    Type
REMARK                         _______ _______ _______ _____ _____    ______ ____
ROOT
ATOM      1  C   UNL     1      -0.032   9.810  20.388  0.00  0.00    +0.000 C 
ENDROOT
BRANCH   1   2
ATOM      2  N   UNL     1      -0.649  10.950  19.700  0.00  0.00    +0.000 N 
ATOM      3  C   UNL     1      -1.770  10.860  18.893  0.00  0.00    +0.000 A 
ATOM      4  C   UNL     1      -2.159   9.902  17.947  0.00  0.00    +0.000 A 
ATOM      5  C   UNL     1      -3.426  10.039  17.374  0.00  0.00    +0.000 A 
ATOM      6  C   UNL     1      -4.283  11.067  17.762  0.00  0.00    +0.000 A 
ATOM      7  C   UNL     1      -3.892  11.995  18.735  0.00  0.00    +0.000 A 
ATOM      8  C   UNL     1      -2.603  11.907  19.297  0.00  0.00    +0.000 A 
ATOM      9  C   UNL     1      -1.885  12.671  20.272  0.00  0.00    +0.000 A 
ATOM     10  C   UNL     1      -2.201  13.698  21.178  0.00  0.00    +0.000 A 
ATOM     11  C   UNL     1      -1.168  14.292  21.914  0.00  0.00    +0.000 A 
ATOM     12  C   UNL     1       0.165  13.947  21.692  0.00  0.00    +0.000 A 
ATOM     13  C   UNL     1       0.497  12.896  20.841  0.00  0.00    +0.000 A 
ATOM     14  C   UNL     1      -0.566  12.223  20.227  0.00  0.00    +0.000 A 
ENDBRANCH   1   2
BRANCH   1  19
ATOM     15  N   UNL     1       2.571   7.372  19.095  0.00  0.00    +0.000 N 
ATOM     16  C   UNL     1       2.958   7.959  17.930  0.00  0.00    +0.000 A 
ATOM     17  C   UNL     1       2.394   9.170  17.531  0.00  0.00    +0.000 A 
ATOM     18  C   UNL     1       1.443   9.776  18.330  0.00  0.00    +0.000 A 
ATOM     19  C   UNL     1       1.047   9.171  19.528  0.00  0.00    +0.000 A 
ATOM     20  C   UNL     1       1.662   7.964  19.896  0.00  0.00    +0.000 A 
BRANCH  15  21
ATOM     21  C   UNL     1       3.234   6.103  19.515  0.00  0.00    +0.000 C 
BRANCH  21  25
ATOM     22  C   UNL     1       0.785   2.534  19.503  0.00  0.00    +0.000 A 
ATOM     23  C   UNL     1       1.221   3.101  18.312  0.00  0.00    +0.000 A 
ATOM     24  C   UNL     1       1.979   4.272  18.322  0.00  0.00    +0.000 A 
ATOM     25  C   UNL     1       2.300   4.907  19.541  0.00  0.00    +0.000 A 
ATOM     26  C   UNL     1       1.871   4.316  20.730  0.00  0.00    +0.000 A 
ATOM     27  C   UNL     1       1.111   3.149  20.717  0.00  0.00    +0.000 A 
ENDBRANCH  21  25
ENDBRANCH  15  21
ENDBRANCH   1  19
TORSDOF 4
ENDMDL
MODEL 9
REMARK VINA RESULT:      -8.0      1.441      3.398
REMARK  Name = 
REMARK  4 active torsions:
REMARK  status: ('A' for Active; 'I' for Inactive)
REMARK    1  A    between atoms: C_4  and  C_5
REMARK    2  A    between atoms: C_5  and  N_6
REMARK    3  A    between atoms: C_10  and  C_11
REMARK    4  A    between atoms: C_11  and  N_12
REMARK                            x       y       z     vdW  Elec       q    Type
REMARK                         _______ _______ _______ _____ _____    ______ ____
ROOT
ATOM      1  C   UNL     1       2.597   6.653  18.098  0.00  0.00    +0.000 C 
ENDROOT
BRANCH   1   2
ATOM      2  N   UNL     1       3.657   5.946  18.826  0.00  0.00    +0.000 N 
ATOM      3  C   UNL     1       3.449   4.826  19.612  0.00  0.00    +0.000 A 
ATOM      4  C   UNL     1       2.424   4.498  20.510  0.00  0.00    +0.000 A 
ATOM      5  C   UNL     1       2.442   3.218  21.070  0.00  0.00    +0.000 A 
ATOM      6  C   UNL     1       3.421   2.292  20.715  0.00  0.00    +0.000 A 
ATOM      7  C   UNL     1       4.418   2.624  19.789  0.00  0.00    +0.000 A 
ATOM      8  C   UNL     1       4.449   3.922  19.243  0.00  0.00    +0.000 A 
ATOM      9  C   UNL     1       5.307   4.593  18.311  0.00  0.00    +0.000 A 
ATOM     10  C   UNL     1       6.348   4.211  17.447  0.00  0.00    +0.000 A 
ATOM     11  C   UNL     1       7.048   5.206  16.752  0.00  0.00    +0.000 A 
ATOM     12  C   UNL     1       6.792   6.558  16.979  0.00  0.00    +0.000 A 
ATOM     13  C   UNL     1       5.731   6.957  17.788  0.00  0.00    +0.000 A 
ATOM     14  C   UNL     1       4.955   5.940  18.356  0.00  0.00    +0.000 A 
ENDBRANCH   1   2
BRANCH   1  19
ATOM     15  N   UNL     1       0.846   9.849  19.151  0.00  0.00    +0.000 N 
ATOM     16  C   UNL     1       0.785   9.708  20.503  0.00  0.00    +0.000 A 
ATOM     17  C   UNL     1       1.320   8.577  21.118  0.00  0.00    +0.000 A 
ATOM     18  C   UNL     1       1.918   7.599  20.346  0.00  0.00    +0.000 A 
ATOM     19  C   UNL     1       1.980   7.746  18.956  0.00  0.00    +0.000 A 
ATOM     20  C   UNL     1       1.449   8.915  18.388  0.00  0.00    +0.000 A 
BRANCH  15  21
ATOM     21  C   UNL     1       0.311  11.097  18.533  0.00  0.00    +0.000 C 
BRANCH  21  25
ATOM     22  C   UNL     1      -3.930  10.672  17.773  0.00  0.00    +0.000 A 
ATOM     23  C   UNL     1      -3.009   9.840  17.149  0.00  0.00    +0.000 A 
ATOM     24  C   UNL     1      -1.642  10.007  17.370  0.00  0.00    +0.000 A 
ATOM     25  C   UNL     1      -1.172  11.033  18.218  0.00  0.00    +0.000 A 
ATOM     26  C   UNL     1      -2.110  11.849  18.853  0.00  0.00    +0.000 A 
ATOM     27  C   UNL     1      -3.475  11.683  18.627  0.00  0.00    +0.000 A 
ENDBRANCH  21  25
ENDBRANCH  15  21
ENDBRANCH   1  19
TORSDOF 4
ENDMDL
