MODEL 1
REMARK VINA RESULT:      -7.8      0.000      0.000
REMARK  Name = 
REMARK  7 active torsions:
REMARK  status: ('A' for Active; 'I' for Inactive)
REMARK    1  A    between atoms: C_1  and  C_2
REMARK    2  A    between atoms: C_4  and  C_5
REMARK    3  A    between atoms: N_7  and  N_8
REMARK    4  A    between atoms: C_14  and  C_15
REMARK    5  A    between atoms: C_14  and  C_16
REMARK    6  A    between atoms: C_18  and  C_19
REMARK    7  A    between atoms: N_20  and  C_21
REMARK                            x       y       z     vdW  Elec       q    Type
REMARK                         _______ _______ _______ _____ _____    ______ ____
ROOT
ATOM      1  C   UNL     1       2.107   8.735  18.041  0.00  0.00    +0.000 C 
ATOM      2  O   UNL     1       2.024   9.584  17.154  0.00  0.00    +0.000 OA
ATOM      3  N   UNL     1       1.340   8.806  19.202  0.00  0.00    +0.000 N 
ATOM      4  H   UNL     1       1.477   8.131  19.937  0.00  0.00    +0.000 HD
ENDROOT
BRANCH   3   5
ATOM      5  N   UNL     1       0.469   9.849  19.352  0.00  0.00    +0.000 NA
ATOM      6  C   UNL     1      -0.199  10.021  20.450  0.00  0.00    +0.000 C 
ATOM      7  C   UNL     1      -0.191   9.116  21.653  0.00  0.00    +0.000 C 
ATOM      8  C   UNL     1      -0.230   9.908  22.931  0.00  0.00    +0.000 C 
ATOM      9  O   UNL     1       0.480   9.617  23.891  0.00  0.00    +0.000 OA
ATOM     10  C   UNL     1      -1.261  11.011  23.005  0.00  0.00    +0.000 C 
ATOM     11  C   UNL     1      -1.123  11.975  21.812  0.00  0.00    +0.000 C 
ATOM     12  C   UNL     1       0.193  12.770  21.915  0.00  0.00    +0.000 C 
ATOM     13  C   UNL     1      -2.293  12.976  21.856  0.00  0.00    +0.000 C 
ATOM     14  C   UNL     1      -1.178  11.191  20.483  0.00  0.00    +0.000 C 
ENDBRANCH   3   5
BRANCH   1  18
ATOM     15  C   UNL     1       6.128   5.717  17.010  0.00  0.00    +0.000 C 
ATOM     16  C   UNL     1       4.823   6.223  17.539  0.00  0.00    +0.000 A 
ATOM     17  C   UNL     1       4.345   7.519  17.432  0.00  0.00    +0.000 A 
ATOM     18  C   UNL     1       3.020   7.573  17.942  0.00  0.00    +0.000 A 
ATOM     19  C   UNL     1       2.730   6.277  18.382  0.00  0.00    +0.000 A 
ATOM     20  C   UNL     1       1.503   5.816  19.115  0.00  0.00    +0.000 C 
ATOM     21  N   UNL     1       3.830   5.436  18.126  0.00  0.00    +0.000 N 
BRANCH  21  22
ATOM     22  C   UNL     1       3.920   4.035  18.446  0.00  0.00    +0.000 A 
ATOM     23  C   UNL     1       3.457   3.058  17.555  0.00  0.00    +0.000 A 
ATOM     24  C   UNL     1       3.428   1.707  17.906  0.00  0.00    +0.000 A 
ATOM     25  C   UNL     1       3.932   1.304  19.142  0.00  0.00    +0.000 A 
ATOM     26  C   UNL     1       4.457   2.252  20.012  0.00  0.00    +0.000 A 
ATOM     27  C   UNL     1       4.432   3.608  19.678  0.00  0.00    +0.000 A 
ENDBRANCH  21  22
ENDBRANCH   1  18
TORSDOF 3
ENDMDL
MODEL 2
REMARK VINA RESULT:      -7.7      2.240      8.939
REMARK  Name = 
REMARK  7 active torsions:
REMARK  status: ('A' for Active; 'I' for Inactive)
REMARK    1  A    between atoms: C_1  and  C_2
REMARK    2  A    between atoms: C_4  and  C_5
REMARK    3  A    between atoms: N_7  and  N_8
REMARK    4  A    between atoms: C_14  and  C_15
REMARK    5  A    between atoms: C_14  and  C_16
REMARK    6  A    between atoms: C_18  and  C_19
REMARK    7  A    between atoms: N_20  and  C_21
REMARK                            x       y       z     vdW  Elec       q    Type
REMARK                         _______ _______ _______ _____ _____    ______ ____
ROOT
ATOM      1  C   UNL     1       1.221   9.560  18.375  0.00  0.00    +0.000 C 
ATOM      2  O   UNL     1       1.994   9.888  17.476  0.00  0.00    +0.000 OA
ATOM      3  N   UNL     1       1.429   8.418  19.146  0.00  0.00    +0.000 N 
ATOM      4  H   UNL     1       0.745   8.142  19.831  0.00  0.00    +0.000 HD
ENDROOT
BRANCH   3   5
ATOM      5  N   UNL     1       2.529   7.646  18.893  0.00  0.00    +0.000 NA
ATOM      6  C   UNL     1       2.687   6.488  19.454  0.00  0.00    +0.000 C 
ATOM      7  C   UNL     1       1.780   5.858  20.477  0.00  0.00    +0.000 C 
ATOM      8  C   UNL     1       1.645   4.378  20.248  0.00  0.00    +0.000 C 
ATOM      9  O   UNL     1       0.558   3.811  20.327  0.00  0.00    +0.000 OA
ATOM     10  C   UNL     1       2.930   3.615  20.022  0.00  0.00    +0.000 C 
ATOM     11  C   UNL     1       3.743   4.235  18.871  0.00  0.00    +0.000 C 
ATOM     12  C   UNL     1       3.016   4.029  17.528  0.00  0.00    +0.000 C 
ATOM     13  C   UNL     1       5.105   3.519  18.794  0.00  0.00    +0.000 C 
ATOM     14  C   UNL     1       3.978   5.739  19.133  0.00  0.00    +0.000 C 
ENDBRANCH   3   5
BRANCH   1  18
ATOM     15  C   UNL     1      -3.485  11.607  18.337  0.00  0.00    +0.000 C 
ATOM     16  C   UNL     1      -2.094  11.238  18.744  0.00  0.00    +0.000 A 
ATOM     17  C   UNL     1      -1.267  10.332  18.101  0.00  0.00    +0.000 A 
ATOM     18  C   UNL     1       0.016  10.353  18.712  0.00  0.00    +0.000 A 
ATOM     19  C   UNL     1      -0.077  11.280  19.757  0.00  0.00    +0.000 A 
ATOM     20  C   UNL     1       0.964  11.593  20.792  0.00  0.00    +0.000 C 
ATOM     21  N   UNL     1      -1.368  11.839  19.775  0.00  0.00    +0.000 N 
BRANCH  21  22
ATOM     22  C   UNL     1      -1.855  12.820  20.710  0.00  0.00    +0.000 A 
ATOM     23  C   UNL     1      -1.691  14.191  20.470  0.00  0.00    +0.000 A 
ATOM     24  C   UNL     1      -2.049  15.146  21.425  0.00  0.00    +0.000 A 
ATOM     25  C   UNL     1      -2.646  14.739  22.618  0.00  0.00    +0.000 A 
ATOM     26  C   UNL     1      -2.876  13.387  22.845  0.00  0.00    +0.000 A 
ATOM     27  C   UNL     1      -2.465  12.434  21.910  0.00  0.00    +0.000 A 
ENDBRANCH  21  22
ENDBRANCH   1  18
TORSDOF 3
ENDMDL
MODEL 3
REMARK VINA RESULT:      -7.5      0.622      1.114
REMARK  Name = 
REMARK  7 active torsions:
REMARK  status: ('A' for Active; 'I' for Inactive)
REMARK    1  A    between atoms: C_1  and  C_2
REMARK    2  A    between atoms: C_4  and  C_5
REMARK    3  A    between atoms: N_7  and  N_8
REMARK    4  A    between atoms: C_14  and  C_15
REMARK    5  A    between atoms: C_14  and  C_16
REMARK    6  A    between atoms: C_18  and  C_19
REMARK    7  A    between atoms: N_20  and  C_21
REMARK                            x       y       z     vdW  Elec       q    Type
REMARK                         _______ _______ _______ _____ _____    ______ ____
ROOT
ATOM      1  C   UNL     1       2.072   9.197  18.188  0.00  0.00    +0.000 C 
ATOM      2  O   UNL     1       2.565  10.307  17.995  0.00  0.00    +0.000 OA
ATOM      3  N   UNL     1       0.783   9.041  18.694  0.00  0.00    +0.000 N 
ATOM      4  H   UNL     1       0.433   8.119  18.900  0.00  0.00    +0.000 HD
ENDROOT
BRANCH   3   5
ATOM      5  N   UNL     1       0.048  10.158  18.976  0.00  0.00    +0.000 NA
ATOM      6  C   UNL     1      -0.466  10.351  20.151  0.00  0.00    +0.000 C 
ATOM      7  C   UNL     1      -0.411   9.403  21.319  0.00  0.00    +0.000 C 
ATOM      8  C   UNL     1      -0.217  10.142  22.613  0.00  0.00    +0.000 C 
ATOM      9  O   UNL     1       0.566   9.743  23.472  0.00  0.00    +0.000 OA
ATOM     10  C   UNL     1      -1.113  11.338  22.842  0.00  0.00    +0.000 C 
ATOM     11  C   UNL     1      -1.016  12.331  21.670  0.00  0.00    +0.000 C 
ATOM     12  C   UNL     1       0.378  12.986  21.636  0.00  0.00    +0.000 C 
ATOM     13  C   UNL     1      -2.062  13.442  21.882  0.00  0.00    +0.000 C 
ATOM     14  C   UNL     1      -1.307  11.612  20.335  0.00  0.00    +0.000 C 
ENDBRANCH   3   5
BRANCH   1  18
ATOM     15  C   UNL     1       5.281   5.734  16.175  0.00  0.00    +0.000 C 
ATOM     16  C   UNL     1       4.263   6.396  17.047  0.00  0.00    +0.000 A 
ATOM     17  C   UNL     1       3.886   7.728  16.999  0.00  0.00    +0.000 A 
ATOM     18  C   UNL     1       2.805   7.943  17.895  0.00  0.00    +0.000 A 
ATOM     19  C   UNL     1       2.563   6.705  18.501  0.00  0.00    +0.000 A 
ATOM     20  C   UNL     1       1.603   6.407  19.615  0.00  0.00    +0.000 C 
ATOM     21  N   UNL     1       3.448   5.744  17.975  0.00  0.00    +0.000 N 
BRANCH  21  22
ATOM     22  C   UNL     1       3.519   4.357  18.356  0.00  0.00    +0.000 A 
ATOM     23  C   UNL     1       4.341   3.937  19.410  0.00  0.00    +0.000 A 
ATOM     24  C   UNL     1       4.511   2.583  19.707  0.00  0.00    +0.000 A 
ATOM     25  C   UNL     1       3.796   1.624  18.989  0.00  0.00    +0.000 A 
ATOM     26  C   UNL     1       2.925   2.027  17.984  0.00  0.00    +0.000 A 
ATOM     27  C   UNL     1       2.803   3.378  17.655  0.00  0.00    +0.000 A 
ENDBRANCH  21  22
ENDBRANCH   1  18
TORSDOF 3
ENDMDL
MODEL 4
REMARK VINA RESULT:      -7.5      5.678      7.274
REMARK  Name = 
REMARK  7 active torsions:
REMARK  status: ('A' for Active; 'I' for Inactive)
REMARK    1  A    between atoms: C_1  and  C_2
REMARK    2  A    between atoms: C_4  and  C_5
REMARK    3  A    between atoms: N_7  and  N_8
REMARK    4  A    between atoms: C_14  and  C_15
REMARK    5  A    between atoms: C_14  and  C_16
REMARK    6  A    between atoms: C_18  and  C_19
REMARK    7  A    between atoms: N_20  and  C_21
REMARK                            x       y       z     vdW  Elec       q    Type
REMARK                         _______ _______ _______ _____ _____    ______ ____
ROOT
ATOM      1  C   UNL     1       7.962   7.093  18.442  0.00  0.00    +0.000 C 
ATOM      2  O   UNL     1       8.702   6.568  19.273  0.00  0.00    +0.000 OA
ATOM      3  N   UNL     1       8.036   8.452  18.145  0.00  0.00    +0.000 N 
ATOM      4  H   UNL     1       7.373   8.864  17.508  0.00  0.00    +0.000 HD
ENDROOT
BRANCH   3   5
ATOM      5  N   UNL     1       8.963   9.218  18.796  0.00  0.00    +0.000 NA
ATOM      6  C   UNL     1       9.190  10.447  18.449  0.00  0.00    +0.000 C 
ATOM      7  C   UNL     1       8.563  11.181  17.294  0.00  0.00    +0.000 C 
ATOM      8  C   UNL     1       8.265  12.610  17.654  0.00  0.00    +0.000 C 
ATOM      9  O   UNL     1       7.206  13.147  17.336  0.00  0.00    +0.000 OA
ATOM     10  C   UNL     1       9.378  13.377  18.331  0.00  0.00    +0.000 C 
ATOM     11  C   UNL     1       9.878  12.631  19.582  0.00  0.00    +0.000 C 
ATOM     12  C   UNL     1       8.791  12.626  20.674  0.00  0.00    +0.000 C 
ATOM     13  C   UNL     1      11.109  13.375  20.134  0.00  0.00    +0.000 C 
ATOM     14  C   UNL     1      10.283  11.187  19.217  0.00  0.00    +0.000 C 
ENDBRANCH   3   5
BRANCH   1  18
ATOM     15  C   UNL     1       5.222   4.926  14.682  0.00  0.00    +0.000 C 
ATOM     16  C   UNL     1       5.737   5.307  16.034  0.00  0.00    +0.000 A 
ATOM     17  C   UNL     1       6.857   6.078  16.295  0.00  0.00    +0.000 A 
ATOM     18  C   UNL     1       6.942   6.324  17.692  0.00  0.00    +0.000 A 
ATOM     19  C   UNL     1       5.853   5.655  18.261  0.00  0.00    +0.000 A 
ATOM     20  C   UNL     1       5.544   5.495  19.722  0.00  0.00    +0.000 C 
ATOM     21  N   UNL     1       5.098   5.037  17.247  0.00  0.00    +0.000 N 
BRANCH  21  22
ATOM     22  C   UNL     1       3.911   4.244  17.435  0.00  0.00    +0.000 A 
ATOM     23  C   UNL     1       2.656   4.847  17.592  0.00  0.00    +0.000 A 
ATOM     24  C   UNL     1       1.519   4.095  17.897  0.00  0.00    +0.000 A 
ATOM     25  C   UNL     1       1.613   2.706  17.982  0.00  0.00    +0.000 A 
ATOM     26  C   UNL     1       2.837   2.085  17.764  0.00  0.00    +0.000 A 
ATOM     27  C   UNL     1       3.981   2.847  17.514  0.00  0.00    +0.000 A 
ENDBRANCH  21  22
ENDBRANCH   1  18
TORSDOF 3
ENDMDL
MODEL 5
REMARK VINA RESULT:      -7.4      2.259      8.882
REMARK  Name = 
REMARK  7 active torsions:
REMARK  status: ('A' for Active; 'I' for Inactive)
REMARK    1  A    between atoms: C_1  and  C_2
REMARK    2  A    between atoms: C_4  and  C_5
REMARK    3  A    between atoms: N_7  and  N_8
REMARK    4  A    between atoms: C_14  and  C_15
REMARK    5  A    between atoms: C_14  and  C_16
REMARK    6  A    between atoms: C_18  and  C_19
REMARK    7  A    between atoms: N_20  and  C_21
REMARK                            x       y       z     vdW  Elec       q    Type
REMARK                         _______ _______ _______ _____ _____    ______ ____
ROOT
ATOM      1  C   UNL     1       1.983   7.603  19.722  0.00  0.00    +0.000 C 
ATOM      2  O   UNL     1       2.077   7.564  18.496  0.00  0.00    +0.000 OA
ATOM      3  N   UNL     1       2.603   6.659  20.538  0.00  0.00    +0.000 N 
ATOM      4  H   UNL     1       2.454   6.681  21.534  0.00  0.00    +0.000 HD
ENDROOT
BRANCH   3   5
ATOM      5  N   UNL     1       3.340   5.666  19.953  0.00  0.00    +0.000 NA
ATOM      6  C   UNL     1       2.931   4.436  19.943  0.00  0.00    +0.000 C 
ATOM      7  C   UNL     1       1.685   3.901  20.599  0.00  0.00    +0.000 C 
ATOM      8  C   UNL     1       1.024   2.857  19.743  0.00  0.00    +0.000 C 
ATOM      9  O   UNL     1      -0.194   2.832  19.582  0.00  0.00    +0.000 OA
ATOM     10  C   UNL     1       1.927   1.781  19.182  0.00  0.00    +0.000 C 
ATOM     11  C   UNL     1       3.106   2.399  18.410  0.00  0.00    +0.000 C 
ATOM     12  C   UNL     1       2.604   3.088  17.126  0.00  0.00    +0.000 C 
ATOM     13  C   UNL     1       4.069   1.269  18.003  0.00  0.00    +0.000 C 
ATOM     14  C   UNL     1       3.860   3.407  19.304  0.00  0.00    +0.000 C 
ENDBRANCH   3   5
BRANCH   1  18
ATOM     15  C   UNL     1      -0.760  10.187  23.205  0.00  0.00    +0.000 C 
ATOM     16  C   UNL     1       0.032   9.842  21.984  0.00  0.00    +0.000 A 
ATOM     17  C   UNL     1       0.682   8.643  21.743  0.00  0.00    +0.000 A 
ATOM     18  C   UNL     1       1.211   8.654  20.424  0.00  0.00    +0.000 A 
ATOM     19  C   UNL     1       0.882   9.906  19.894  0.00  0.00    +0.000 A 
ATOM     20  C   UNL     1       1.308  10.477  18.573  0.00  0.00    +0.000 C 
ATOM     21  N   UNL     1       0.144  10.639  20.843  0.00  0.00    +0.000 N 
BRANCH  21  22
ATOM     22  C   UNL     1      -0.364  11.976  20.675  0.00  0.00    +0.000 A 
ATOM     23  C   UNL     1       0.417  13.093  20.999  0.00  0.00    +0.000 A 
ATOM     24  C   UNL     1      -0.107  14.386  20.956  0.00  0.00    +0.000 A 
ATOM     25  C   UNL     1      -1.415  14.586  20.516  0.00  0.00    +0.000 A 
ATOM     26  C   UNL     1      -2.184  13.496  20.128  0.00  0.00    +0.000 A 
ATOM     27  C   UNL     1      -1.672  12.200  20.226  0.00  0.00    +0.000 A 
ENDBRANCH  21  22
ENDBRANCH   1  18
TORSDOF 3
ENDMDL
MODEL 6
REMARK VINA RESULT:      -7.4      2.151      8.939
REMARK  Name = 
REMARK  7 active torsions:
REMARK  status: ('A' for Active; 'I' for Inactive)
REMARK    1  A    between atoms: C_1  and  C_2
REMARK    2  A    between atoms: C_4  and  C_5
REMARK    3  A    between atoms: N_7  and  N_8
REMARK    4  A    between atoms: C_14  and  C_15
REMARK    5  A    between atoms: C_14  and  C_16
REMARK    6  A    between atoms: C_18  and  C_19
REMARK    7  A    between atoms: N_20  and  C_21
REMARK                            x       y       z     vdW  Elec       q    Type
REMARK                         _______ _______ _______ _____ _____    ______ ____
ROOT
ATOM      1  C   UNL     1       1.311   9.955  18.143  0.00  0.00    +0.000 C 
ATOM      2  O   UNL     1       2.319  10.602  17.859  0.00  0.00    +0.000 OA
ATOM      3  N   UNL     1       1.275   8.566  18.044  0.00  0.00    +0.000 N 
ATOM      4  H   UNL     1       0.416   8.072  18.222  0.00  0.00    +0.000 HD
ENDROOT
BRANCH   3   5
ATOM      5  N   UNL     1       2.397   7.908  17.623  0.00  0.00    +0.000 NA
ATOM      6  C   UNL     1       2.984   7.024  18.369  0.00  0.00    +0.000 C 
ATOM      7  C   UNL     1       2.600   6.642  19.773  0.00  0.00    +0.000 C 
ATOM      8  C   UNL     1       2.753   5.163  19.997  0.00  0.00    +0.000 C 
ATOM      9  O   UNL     1       1.905   4.512  20.602  0.00  0.00    +0.000 OA
ATOM     10  C   UNL     1       4.053   4.546  19.532  0.00  0.00    +0.000 C 
ATOM     11  C   UNL     1       4.314   4.866  18.049  0.00  0.00    +0.000 C 
ATOM     12  C   UNL     1       3.287   4.144  17.155  0.00  0.00    +0.000 C 
ATOM     13  C   UNL     1       5.717   4.351  17.678  0.00  0.00    +0.000 C 
ATOM     14  C   UNL     1       4.257   6.391  17.813  0.00  0.00    +0.000 C 
ENDBRANCH   3   5
BRANCH   1  18
ATOM     15  C   UNL     1      -3.533  11.611  18.508  0.00  0.00    +0.000 C 
ATOM     16  C   UNL     1      -2.104  11.304  18.823  0.00  0.00    +0.000 A 
ATOM     17  C   UNL     1      -1.236  10.557  18.043  0.00  0.00    +0.000 A 
ATOM     18  C   UNL     1       0.064  10.600  18.616  0.00  0.00    +0.000 A 
ATOM     19  C   UNL     1      -0.058  11.372  19.776  0.00  0.00    +0.000 A 
ATOM     20  C   UNL     1       0.995  11.630  20.814  0.00  0.00    +0.000 C 
ATOM     21  N   UNL     1      -1.386  11.821  19.904  0.00  0.00    +0.000 N 
BRANCH  21  22
ATOM     22  C   UNL     1      -1.909  12.631  20.974  0.00  0.00    +0.000 A 
ATOM     23  C   UNL     1      -2.258  12.063  22.207  0.00  0.00    +0.000 A 
ATOM     24  C   UNL     1      -2.879  12.816  23.206  0.00  0.00    +0.000 A 
ATOM     25  C   UNL     1      -3.098  14.179  23.008  0.00  0.00    +0.000 A 
ATOM     26  C   UNL     1      -2.698  14.773  21.817  0.00  0.00    +0.000 A 
ATOM     27  C   UNL     1      -2.129  14.003  20.800  0.00  0.00    +0.000 A 
ENDBRANCH  21  22
ENDBRANCH   1  18
TORSDOF 3
ENDMDL
MODEL 7
REMARK VINA RESULT:      -7.3      2.107      8.765
REMARK  Name = 
REMARK  7 active torsions:
REMARK  status: ('A' for Active; 'I' for Inactive)
REMARK    1  A    between atoms: C_1  and  C_2
REMARK    2  A    between atoms: C_4  and  C_5
REMARK    3  A    between atoms: N_7  and  N_8
REMARK    4  A    between atoms: C_14  and  C_15
REMARK    5  A    between atoms: C_14  and  C_16
REMARK    6  A    between atoms: C_18  and  C_19
REMARK    7  A    between atoms: N_20  and  C_21
REMARK                            x       y       z     vdW  Elec       q    Type
REMARK                         _______ _______ _______ _____ _____    ______ ____
ROOT
ATOM      1  C   UNL     1       1.676  10.259  18.493  0.00  0.00    +0.000 C 
ATOM      2  O   UNL     1       2.239  10.599  17.454  0.00  0.00    +0.000 OA
ATOM      3  N   UNL     1       1.623   8.927  18.900  0.00  0.00    +0.000 N 
ATOM      4  H   UNL     1       1.099   8.674  19.722  0.00  0.00    +0.000 HD
ENDROOT
BRANCH   3   5
ATOM      5  N   UNL     1       2.221   7.977  18.120  0.00  0.00    +0.000 NA
ATOM      6  C   UNL     1       2.691   6.881  18.629  0.00  0.00    +0.000 C 
ATOM      7  C   UNL     1       2.727   6.515  20.088  0.00  0.00    +0.000 C 
ATOM      8  C   UNL     1       2.431   5.055  20.292  0.00  0.00    +0.000 C 
ATOM      9  O   UNL     1       1.685   4.668  21.189  0.00  0.00    +0.000 OA
ATOM     10  C   UNL     1       3.181   4.089  19.404  0.00  0.00    +0.000 C 
ATOM     11  C   UNL     1       2.990   4.445  17.918  0.00  0.00    +0.000 C 
ATOM     12  C   UNL     1       1.531   4.195  17.490  0.00  0.00    +0.000 C 
ATOM     13  C   UNL     1       3.900   3.531  17.076  0.00  0.00    +0.000 C 
ATOM     14  C   UNL     1       3.381   5.917  17.666  0.00  0.00    +0.000 C 
ENDBRANCH   3   5
BRANCH   1  18
ATOM     15  C   UNL     1       0.782  14.161  21.705  0.00  0.00    +0.000 C 
ATOM     16  C   UNL     1       0.587  12.999  20.784  0.00  0.00    +0.000 A 
ATOM     17  C   UNL     1       1.571  12.371  20.039  0.00  0.00    +0.000 A 
ATOM     18  C   UNL     1       1.016  11.233  19.392  0.00  0.00    +0.000 A 
ATOM     19  C   UNL     1      -0.336  11.215  19.752  0.00  0.00    +0.000 A 
ATOM     20  C   UNL     1      -1.402  10.288  19.244  0.00  0.00    +0.000 C 
ATOM     21  N   UNL     1      -0.606  12.291  20.619  0.00  0.00    +0.000 N 
BRANCH  21  22
ATOM     22  C   UNL     1      -1.885  12.617  21.195  0.00  0.00    +0.000 A 
ATOM     23  C   UNL     1      -2.222  12.203  22.490  0.00  0.00    +0.000 A 
ATOM     24  C   UNL     1      -3.501  12.407  23.011  0.00  0.00    +0.000 A 
ATOM     25  C   UNL     1      -4.451  13.097  22.259  0.00  0.00    +0.000 A 
ATOM     26  C   UNL     1      -4.114  13.573  20.997  0.00  0.00    +0.000 A 
ATOM     27  C   UNL     1      -2.851  13.317  20.460  0.00  0.00    +0.000 A 
ENDBRANCH  21  22
ENDBRANCH   1  18
TORSDOF 3
ENDMDL
MODEL 8
REMARK VINA RESULT:      -7.3      1.700      2.761
REMARK  Name = 
REMARK  7 active torsions:
REMARK  status: ('A' for Active; 'I' for Inactive)
REMARK    1  A    between atoms: C_1  and  C_2
REMARK    2  A    between atoms: C_4  and  C_5
REMARK    3  A    between atoms: N_7  and  N_8
REMARK    4  A    between atoms: C_14  and  C_15
REMARK    5  A    between atoms: C_14  and  C_16
REMARK    6  A    between atoms: C_18  and  C_19
REMARK    7  A    between atoms: N_20  and  C_21
REMARK                            x       y       z     vdW  Elec       q    Type
REMARK                         _______ _______ _______ _____ _____    ______ ____
ROOT
ATOM      1  C   UNL     1       1.306   8.466  20.714  0.00  0.00    +0.000 C 
ATOM      2  O   UNL     1       1.603   8.576  21.903  0.00  0.00    +0.000 OA
ATOM      3  N   UNL     1       0.259   9.189  20.146  0.00  0.00    +0.000 N 
ATOM      4  H   UNL     1       0.001   9.029  19.186  0.00  0.00    +0.000 HD
ENDROOT
BRANCH   3   5
ATOM      5  N   UNL     1      -0.453  10.047  20.938  0.00  0.00    +0.000 NA
ATOM      6  C   UNL     1      -0.453  11.325  20.722  0.00  0.00    +0.000 C 
ATOM      7  C   UNL     1       0.340  12.055  19.670  0.00  0.00    +0.000 C 
ATOM      8  C   UNL     1      -0.459  13.176  19.066  0.00  0.00    +0.000 C 
ATOM      9  O   UNL     1      -0.461  13.385  17.855  0.00  0.00    +0.000 OA
ATOM     10  C   UNL     1      -1.171  14.091  20.036  0.00  0.00    +0.000 C 
ATOM     11  C   UNL     1      -2.067  13.287  20.995  0.00  0.00    +0.000 C 
ATOM     12  C   UNL     1      -3.250  12.664  20.227  0.00  0.00    +0.000 C 
ATOM     13  C   UNL     1      -2.637  14.249  22.054  0.00  0.00    +0.000 C 
ATOM     14  C   UNL     1      -1.244  12.189  21.702  0.00  0.00    +0.000 C 
ENDBRANCH   3   5
BRANCH   1  18
ATOM     15  C   UNL     1       4.142   6.636  16.848  0.00  0.00    +0.000 C 
ATOM     16  C   UNL     1       3.343   6.733  18.108  0.00  0.00    +0.000 A 
ATOM     17  C   UNL     1       2.853   7.897  18.678  0.00  0.00    +0.000 A 
ATOM     18  C   UNL     1       2.039   7.565  19.795  0.00  0.00    +0.000 A 
ATOM     19  C   UNL     1       2.079   6.170  19.892  0.00  0.00    +0.000 A 
ATOM     20  C   UNL     1       1.485   5.314  20.972  0.00  0.00    +0.000 C 
ATOM     21  N   UNL     1       2.869   5.649  18.850  0.00  0.00    +0.000 N 
BRANCH  21  22
ATOM     22  C   UNL     1       3.160   4.257  18.619  0.00  0.00    +0.000 A 
ATOM     23  C   UNL     1       2.407   3.501  17.712  0.00  0.00    +0.000 A 
ATOM     24  C   UNL     1       2.601   2.126  17.571  0.00  0.00    +0.000 A 
ATOM     25  C   UNL     1       3.611   1.494  18.297  0.00  0.00    +0.000 A 
ATOM     26  C   UNL     1       4.412   2.240  19.153  0.00  0.00    +0.000 A 
ATOM     27  C   UNL     1       4.176   3.605  19.330  0.00  0.00    +0.000 A 
ENDBRANCH  21  22
ENDBRANCH   1  18
TORSDOF 3
ENDMDL
MODEL 9
REMARK VINA RESULT:      -7.3      2.209      9.043
REMARK  Name = 
REMARK  7 active torsions:
REMARK  status: ('A' for Active; 'I' for Inactive)
REMARK    1  A    between atoms: C_1  and  C_2
REMARK    2  A    between atoms: C_4  and  C_5
REMARK    3  A    between atoms: N_7  and  N_8
REMARK    4  A    between atoms: C_14  and  C_15
REMARK    5  A    between atoms: C_14  and  C_16
REMARK    6  A    between atoms: C_18  and  C_19
REMARK    7  A    between atoms: N_20  and  C_21
REMARK                            x       y       z     vdW  Elec       q    Type
REMARK                         _______ _______ _______ _____ _____    ______ ____
ROOT
ATOM      1  C   UNL     1       1.554   8.628  19.337  0.00  0.00    +0.000 C 
ATOM      2  O   UNL     1       1.570   8.732  18.112  0.00  0.00    +0.000 OA
ATOM      3  N   UNL     1       2.202   7.585  19.996  0.00  0.00    +0.000 N 
ATOM      4  H   UNL     1       2.116   7.491  20.995  0.00  0.00    +0.000 HD
ENDROOT
BRANCH   3   5
ATOM      5  N   UNL     1       2.878   6.657  19.253  0.00  0.00    +0.000 NA
ATOM      6  C   UNL     1       2.962   5.419  19.630  0.00  0.00    +0.000 C 
ATOM      7  C   UNL     1       2.427   4.834  20.910  0.00  0.00    +0.000 C 
ATOM      8  C   UNL     1       1.852   3.463  20.685  0.00  0.00    +0.000 C 
ATOM      9  O   UNL     1       0.789   3.118  21.195  0.00  0.00    +0.000 OA
ATOM     10  C   UNL     1       2.704   2.503  19.886  0.00  0.00    +0.000 C 
ATOM     11  C   UNL     1       3.103   3.116  18.531  0.00  0.00    +0.000 C 
ATOM     12  C   UNL     1       1.865   3.266  17.625  0.00  0.00    +0.000 C 
ATOM     13  C   UNL     1       4.093   2.164  17.836  0.00  0.00    +0.000 C 
ATOM     14  C   UNL     1       3.784   4.485  18.745  0.00  0.00    +0.000 C 
ENDBRANCH   3   5
BRANCH   1  18
ATOM     15  C   UNL     1      -1.194  10.757  23.113  0.00  0.00    +0.000 C 
ATOM     16  C   UNL     1      -0.327  10.576  21.908  0.00  0.00    +0.000 A 
ATOM     17  C   UNL     1       0.188   9.377  21.442  0.00  0.00    +0.000 A 
ATOM     18  C   UNL     1       0.852   9.600  20.206  0.00  0.00    +0.000 A 
ATOM     19  C   UNL     1       0.742  10.973  19.959  0.00  0.00    +0.000 A 
ATOM     20  C   UNL     1       1.375  11.752  18.843  0.00  0.00    +0.000 C 
ATOM     21  N   UNL     1       0.007  11.580  20.995  0.00  0.00    +0.000 N 
BRANCH  21  22
ATOM     22  C   UNL     1      -0.307  12.981  21.105  0.00  0.00    +0.000 A 
ATOM     23  C   UNL     1       0.534  13.858  21.803  0.00  0.00    +0.000 A 
ATOM     24  C   UNL     1       0.178  15.191  22.020  0.00  0.00    +0.000 A 
ATOM     25  C   UNL     1      -1.006  15.686  21.476  0.00  0.00    +0.000 A 
ATOM     26  C   UNL     1      -1.821  14.848  20.725  0.00  0.00    +0.000 A 
ATOM     27  C   UNL     1      -1.487  13.502  20.559  0.00  0.00    +0.000 A 
ENDBRANCH  21  22
ENDBRANCH   1  18
TORSDOF 3
ENDMDL
