MODEL 1
REMARK VINA RESULT:      -8.1      0.000      0.000
REMARK  Name = 
REMARK  10 active torsions:
REMARK  status: ('A' for Active; 'I' for Inactive)
REMARK    1  A    between atoms: C_1  and  O_2
REMARK    2  A    between atoms: O_2  and  C_3
REMARK    3  A    between atoms: C_6  and  C_7
REMARK    4  A    between atoms: C_8  and  C_9
REMARK    5  A    between atoms: C_11  and  O_12
REMARK    6  A    between atoms: O_12  and  C_13
REMARK    7  A    between atoms: C_15  and  O_16
REMARK    8  A    between atoms: O_16  and  C_17
REMARK    9  A    between atoms: N_19  and  C_20
REMARK   10  A    between atoms: C_24  and  C_25
REMARK                            x       y       z     vdW  Elec       q    Type
REMARK                         _______ _______ _______ _____ _____    ______ ____
ROOT
ATOM      1  C   UNL     1       0.682  10.983  20.547  0.00  0.00    +0.000 A 
ATOM      2  C   UNL     1       0.120  11.849  19.595  0.00  0.00    +0.000 A 
ATOM      3  N   UNL     1       0.568  13.019  20.250  0.00  0.00    +0.000 N 
ATOM      4  C   UNL     1       1.957  13.430  20.518  0.00  0.00    +0.000 C 
ATOM      5  C   UNL     1      -0.240  13.017  21.359  0.00  0.00    +0.000 A 
ATOM      6  C   UNL     1      -0.897  14.111  21.903  0.00  0.00    +0.000 A 
ATOM      7  C   UNL     1      -2.028  13.816  22.618  0.00  0.00    +0.000 A 
ATOM      8  C   UNL     1      -2.436  12.484  22.827  0.00  0.00    +0.000 A 
ATOM      9  C   UNL     1      -1.588  11.367  22.381  0.00  0.00    +0.000 A 
ATOM     10  C   UNL     1      -0.352  11.624  21.628  0.00  0.00    +0.000 A 
ENDROOT
BRANCH   1  14
ATOM     11  C   UNL     1       2.415   7.379  18.498  0.00  0.00    +0.000 A 
ATOM     12  C   UNL     1       1.961   7.354  19.793  0.00  0.00    +0.000 A 
ATOM     13  C   UNL     1       1.390   8.510  20.331  0.00  0.00    +0.000 A 
ATOM     14  C   UNL     1       1.301   9.816  19.695  0.00  0.00    +0.000 A 
ATOM     15  C   UNL     1       1.752   9.798  18.375  0.00  0.00    +0.000 A 
ATOM     16  C   UNL     1       2.293   8.584  17.782  0.00  0.00    +0.000 A 
BRANCH  11  18
ATOM     17  C   UNL     1       2.160   5.049  18.049  0.00  0.00    +0.000 C 
ATOM     18  O   UNL     1       2.994   6.201  18.114  0.00  0.00    +0.000 OA
ENDBRANCH  11  18
ENDBRANCH   1  14
BRANCH   2  19
ATOM     19  C   UNL     1      -1.276  11.367  19.118  0.00  0.00    +0.000 A 
ATOM     20  C   UNL     1      -2.432  12.129  19.518  0.00  0.00    +0.000 A 
ATOM     21  C   UNL     1      -3.688  11.998  18.962  0.00  0.00    +0.000 A 
ATOM     22  C   UNL     1      -3.843  11.061  17.972  0.00  0.00    +0.000 A 
ATOM     23  C   UNL     1      -2.758  10.227  17.610  0.00  0.00    +0.000 A 
ATOM     24  C   UNL     1      -1.476  10.370  18.199  0.00  0.00    +0.000 A 
BRANCH  21  25
ATOM     25  O   UNL     1      -4.616  12.909  19.371  0.00  0.00    +0.000 OA
ATOM     26  C   UNL     1      -5.863  12.812  18.697  0.00  0.00    +0.000 C 
ENDBRANCH  21  25
BRANCH  23  27
ATOM     27  O   UNL     1      -3.078   9.349  16.628  0.00  0.00    +0.000 OA
ATOM     28  C   UNL     1      -3.000   9.888  15.323  0.00  0.00    +0.000 C 
ENDBRANCH  23  27
ENDBRANCH   2  19
BRANCH   8  29
ATOM     29  C   UNL     1      -3.805  12.415  23.416  0.00  0.00    +0.000 A 
ATOM     30  C   UNL     1      -5.005  13.088  23.047  0.00  0.00    +0.000 A 
ATOM     31  C   UNL     1      -5.922  12.832  24.045  0.00  0.00    +0.000 A 
ATOM     32  N   UNL     1      -5.261  12.076  24.964  0.00  0.00    +0.000 N 
ATOM     33  N   UNL     1      -3.988  11.817  24.616  0.00  0.00    +0.000 NA
ATOM     34  H   UNL     1      -5.590  11.724  25.860  0.00  0.00    +0.000 HD
ENDBRANCH   8  29
TORSDOF 6
ENDMDL
MODEL 2
REMARK VINA RESULT:      -7.4      5.373     11.346
REMARK  Name = 
REMARK  10 active torsions:
REMARK  status: ('A' for Active; 'I' for Inactive)
REMARK    1  A    between atoms: C_1  and  O_2
REMARK    2  A    between atoms: O_2  and  C_3
REMARK    3  A    between atoms: C_6  and  C_7
REMARK    4  A    between atoms: C_8  and  C_9
REMARK    5  A    between atoms: C_11  and  O_12
REMARK    6  A    between atoms: O_12  and  C_13
REMARK    7  A    between atoms: C_15  and  O_16
REMARK    8  A    between atoms: O_16  and  C_17
REMARK    9  A    between atoms: N_19  and  C_20
REMARK   10  A    between atoms: C_24  and  C_25
REMARK                            x       y       z     vdW  Elec       q    Type
REMARK                         _______ _______ _______ _____ _____    ______ ____
ROOT
ATOM      1  C   UNL     1       4.526   7.043  17.270  0.00  0.00    +0.000 A 
ATOM      2  C   UNL     1       5.145   6.034  18.027  0.00  0.00    +0.000 A 
ATOM      3  N   UNL     1       6.453   6.418  17.652  0.00  0.00    +0.000 N 
ATOM      4  C   UNL     1       7.128   7.702  17.912  0.00  0.00    +0.000 C 
ATOM      5  C   UNL     1       6.465   6.034  16.335  0.00  0.00    +0.000 A 
ATOM      6  C   UNL     1       7.494   5.378  15.676  0.00  0.00    +0.000 A 
ATOM      7  C   UNL     1       7.111   4.630  14.595  0.00  0.00    +0.000 A 
ATOM      8  C   UNL     1       5.770   4.598  14.164  0.00  0.00    +0.000 A 
ATOM      9  C   UNL     1       4.764   5.466  14.796  0.00  0.00    +0.000 A 
ATOM     10  C   UNL     1       5.123   6.308  15.946  0.00  0.00    +0.000 A 
ENDROOT
BRANCH   1  14
ATOM     11  C   UNL     1       1.159   8.899  19.595  0.00  0.00    +0.000 A 
ATOM     12  C   UNL     1       1.525   9.326  18.344  0.00  0.00    +0.000 A 
ATOM     13  C   UNL     1       2.552   8.655  17.674  0.00  0.00    +0.000 A 
ATOM     14  C   UNL     1       3.376   7.578  18.199  0.00  0.00    +0.000 A 
ATOM     15  C   UNL     1       2.962   7.156  19.462  0.00  0.00    +0.000 A 
ATOM     16  C   UNL     1       1.854   7.807  20.146  0.00  0.00    +0.000 A 
BRANCH  11  18
ATOM     17  C   UNL     1      -0.607  10.474  19.282  0.00  0.00    +0.000 C 
ATOM     18  O   UNL     1       0.179   9.671  20.156  0.00  0.00    +0.000 OA
ENDBRANCH  11  18
ENDBRANCH   1  14
BRANCH   2  19
ATOM     19  C   UNL     1       4.370   4.691  17.957  0.00  0.00    +0.000 A 
ATOM     20  C   UNL     1       4.994   3.517  18.511  0.00  0.00    +0.000 A 
ATOM     21  C   UNL     1       4.339   2.331  18.772  0.00  0.00    +0.000 A 
ATOM     22  C   UNL     1       3.005   2.267  18.460  0.00  0.00    +0.000 A 
ATOM     23  C   UNL     1       2.372   3.365  17.830  0.00  0.00    +0.000 A 
ATOM     24  C   UNL     1       3.064   4.573  17.561  0.00  0.00    +0.000 A 
BRANCH  21  25
ATOM     25  O   UNL     1       5.064   1.385  19.435  0.00  0.00    +0.000 OA
ATOM     26  C   UNL     1       5.020   1.502  20.849  0.00  0.00    +0.000 C 
ENDBRANCH  21  25
BRANCH  23  27
ATOM     27  O   UNL     1       1.059   3.138  17.578  0.00  0.00    +0.000 OA
ATOM     28  C   UNL     1       0.359   2.543  18.654  0.00  0.00    +0.000 C 
ENDBRANCH  23  27
ENDBRANCH   2  19
BRANCH   8  29
ATOM     29  C   UNL     1       5.549   3.541  13.134  0.00  0.00    +0.000 A 
ATOM     30  C   UNL     1       6.458   2.608  12.557  0.00  0.00    +0.000 A 
ATOM     31  C   UNL     1       5.792   2.008  11.509  0.00  0.00    +0.000 A 
ATOM     32  N   UNL     1       4.568   2.602  11.465  0.00  0.00    +0.000 N 
ATOM     33  N   UNL     1       4.397   3.530  12.423  0.00  0.00    +0.000 NA
ATOM     34  H   UNL     1       3.809   2.457  10.803  0.00  0.00    +0.000 HD
ENDBRANCH   8  29
TORSDOF 6
ENDMDL
MODEL 3
REMARK VINA RESULT:      -7.2      0.667      2.010
REMARK  Name = 
REMARK  10 active torsions:
REMARK  status: ('A' for Active; 'I' for Inactive)
REMARK    1  A    between atoms: C_1  and  O_2
REMARK    2  A    between atoms: O_2  and  C_3
REMARK    3  A    between atoms: C_6  and  C_7
REMARK    4  A    between atoms: C_8  and  C_9
REMARK    5  A    between atoms: C_11  and  O_12
REMARK    6  A    between atoms: O_12  and  C_13
REMARK    7  A    between atoms: C_15  and  O_16
REMARK    8  A    between atoms: O_16  and  C_17
REMARK    9  A    between atoms: N_19  and  C_20
REMARK   10  A    between atoms: C_24  and  C_25
REMARK                            x       y       z     vdW  Elec       q    Type
REMARK                         _______ _______ _______ _____ _____    ______ ____
ROOT
ATOM      1  C   UNL     1       0.525  11.430  20.749  0.00  0.00    +0.000 A 
ATOM      2  C   UNL     1       0.108  12.471  19.903  0.00  0.00    +0.000 A 
ATOM      3  N   UNL     1       0.565  13.490  20.771  0.00  0.00    +0.000 N 
ATOM      4  C   UNL     1       1.946  13.749  21.214  0.00  0.00    +0.000 C 
ATOM      5  C   UNL     1      -0.342  13.380  21.795  0.00  0.00    +0.000 A 
ATOM      6  C   UNL     1      -0.978  14.424  22.450  0.00  0.00    +0.000 A 
ATOM      7  C   UNL     1      -2.186  14.109  23.014  0.00  0.00    +0.000 A 
ATOM      8  C   UNL     1      -2.693  12.796  22.974  0.00  0.00    +0.000 A 
ATOM      9  C   UNL     1      -1.878  11.699  22.427  0.00  0.00    +0.000 A 
ATOM     10  C   UNL     1      -0.564  11.974  21.829  0.00  0.00    +0.000 A 
ENDROOT
BRANCH   1  14
ATOM     11  C   UNL     1       2.254   8.069  18.318  0.00  0.00    +0.000 A 
ATOM     12  C   UNL     1       1.768   7.897  19.589  0.00  0.00    +0.000 A 
ATOM     13  C   UNL     1       1.201   8.989  20.251  0.00  0.00    +0.000 A 
ATOM     14  C   UNL     1       1.147  10.363  19.776  0.00  0.00    +0.000 A 
ATOM     15  C   UNL     1       1.629  10.497  18.474  0.00  0.00    +0.000 A 
ATOM     16  C   UNL     1       2.167   9.354  17.750  0.00  0.00    +0.000 A 
BRANCH  11  18
ATOM     17  C   UNL     1       3.337   5.983  18.732  0.00  0.00    +0.000 C 
ATOM     18  O   UNL     1       2.825   6.937  17.806  0.00  0.00    +0.000 OA
ENDBRANCH  11  18
ENDBRANCH   1  14
BRANCH   2  19
ATOM     19  C   UNL     1      -1.264  12.175  19.242  0.00  0.00    +0.000 A 
ATOM     20  C   UNL     1      -1.321  11.166  18.215  0.00  0.00    +0.000 A 
ATOM     21  C   UNL     1      -2.484  10.601  17.735  0.00  0.00    +0.000 A 
ATOM     22  C   UNL     1      -3.667  11.051  18.264  0.00  0.00    +0.000 A 
ATOM     23  C   UNL     1      -3.665  12.105  19.209  0.00  0.00    +0.000 A 
ATOM     24  C   UNL     1      -2.459  12.679  19.684  0.00  0.00    +0.000 A 
BRANCH  21  25
ATOM     25  O   UNL     1      -2.325   9.557  16.872  0.00  0.00    +0.000 OA
ATOM     26  C   UNL     1      -2.835   9.797  15.568  0.00  0.00    +0.000 C 
ENDBRANCH  21  25
BRANCH  23  27
ATOM     27  O   UNL     1      -4.912  12.439  19.622  0.00  0.00    +0.000 OA
ATOM     28  C   UNL     1      -5.947  11.940  18.797  0.00  0.00    +0.000 C 
ENDBRANCH  23  27
ENDBRANCH   2  19
BRANCH   8  29
ATOM     29  C   UNL     1      -4.113  12.741  23.429  0.00  0.00    +0.000 A 
ATOM     30  C   UNL     1      -5.242  13.514  23.032  0.00  0.00    +0.000 A 
ATOM     31  C   UNL     1      -6.258  13.205  23.913  0.00  0.00    +0.000 A 
ATOM     32  N   UNL     1      -5.720  12.323  24.798  0.00  0.00    +0.000 N 
ATOM     33  N   UNL     1      -4.434  12.032  24.537  0.00  0.00    +0.000 NA
ATOM     34  H   UNL     1      -6.147  11.898  25.618  0.00  0.00    +0.000 HD
ENDBRANCH   8  29
TORSDOF 6
ENDMDL
MODEL 4
REMARK VINA RESULT:      -7.1      3.361      6.566
REMARK  Name = 
REMARK  10 active torsions:
REMARK  status: ('A' for Active; 'I' for Inactive)
REMARK    1  A    between atoms: C_1  and  O_2
REMARK    2  A    between atoms: O_2  and  C_3
REMARK    3  A    between atoms: C_6  and  C_7
REMARK    4  A    between atoms: C_8  and  C_9
REMARK    5  A    between atoms: C_11  and  O_12
REMARK    6  A    between atoms: O_12  and  C_13
REMARK    7  A    between atoms: C_15  and  O_16
REMARK    8  A    between atoms: O_16  and  C_17
REMARK    9  A    between atoms: N_19  and  C_20
REMARK   10  A    between atoms: C_24  and  C_25
REMARK                            x       y       z     vdW  Elec       q    Type
REMARK                         _______ _______ _______ _____ _____    ______ ____
ROOT
ATOM      1  C   UNL     1       1.265  13.104  18.642  0.00  0.00    +0.000 A 
ATOM      2  C   UNL     1       1.285  12.199  19.715  0.00  0.00    +0.000 A 
ATOM      3  N   UNL     1       1.375  11.061  18.881  0.00  0.00    +0.000 N 
ATOM      4  C   UNL     1       2.451  10.715  17.936  0.00  0.00    +0.000 C 
ATOM      5  C   UNL     1       0.118  11.046  18.331  0.00  0.00    +0.000 A 
ATOM      6  C   UNL     1      -0.691   9.934  18.151  0.00  0.00    +0.000 A 
ATOM      7  C   UNL     1      -2.036  10.193  18.113  0.00  0.00    +0.000 A 
ATOM      8  C   UNL     1      -2.532  11.509  18.186  0.00  0.00    +0.000 A 
ATOM      9  C   UNL     1      -1.608  12.654  18.186  0.00  0.00    +0.000 A 
ATOM     10  C   UNL     1      -0.153  12.438  18.205  0.00  0.00    +0.000 A 
ENDROOT
BRANCH   1  14
ATOM     11  C   UNL     1       3.637  16.760  19.739  0.00  0.00    +0.000 A 
ATOM     12  C   UNL     1       2.477  16.815  19.008  0.00  0.00    +0.000 A 
ATOM     13  C   UNL     1       1.778  15.632  18.758  0.00  0.00    +0.000 A 
ATOM     14  C   UNL     1       2.195  14.283  19.109  0.00  0.00    +0.000 A 
ATOM     15  C   UNL     1       3.366  14.266  19.868  0.00  0.00    +0.000 A 
ATOM     16  C   UNL     1       4.071  15.499  20.188  0.00  0.00    +0.000 A 
BRANCH  11  18
ATOM     17  C   UNL     1       5.490  18.022  20.557  0.00  0.00    +0.000 C 
ATOM     18  O   UNL     1       4.245  17.978  19.867  0.00  0.00    +0.000 OA
ENDBRANCH  11  18
ENDBRANCH   1  14
BRANCH   2  19
ATOM     19  C   UNL     1       0.306  12.611  20.848  0.00  0.00    +0.000 A 
ATOM     20  C   UNL     1      -0.356  11.568  21.588  0.00  0.00    +0.000 A 
ATOM     21  C   UNL     1      -1.026  11.756  22.779  0.00  0.00    +0.000 A 
ATOM     22  C   UNL     1      -1.077  13.033  23.277  0.00  0.00    +0.000 A 
ATOM     23  C   UNL     1      -0.519  14.104  22.538  0.00  0.00    +0.000 A 
ATOM     24  C   UNL     1       0.158  13.892  21.311  0.00  0.00    +0.000 A 
BRANCH  21  25
ATOM     25  O   UNL     1      -1.458  10.623  23.403  0.00  0.00    +0.000 OA
ATOM     26  C   UNL     1      -0.570   9.521  23.290  0.00  0.00    +0.000 C 
ENDBRANCH  21  25
BRANCH  23  27
ATOM     27  O   UNL     1      -0.664  15.300  23.160  0.00  0.00    +0.000 OA
ATOM     28  C   UNL     1      -1.500  15.260  24.301  0.00  0.00    +0.000 C 
ENDBRANCH  23  27
ENDBRANCH   2  19
BRANCH   8  29
ATOM     29  C   UNL     1      -4.012  11.529  18.369  0.00  0.00    +0.000 A 
ATOM     30  C   UNL     1      -5.058  11.124  17.490  0.00  0.00    +0.000 A 
ATOM     31  C   UNL     1      -6.239  11.552  18.061  0.00  0.00    +0.000 A 
ATOM     32  N   UNL     1      -5.879  12.207  19.199  0.00  0.00    +0.000 N 
ATOM     33  N   UNL     1      -4.550  12.215  19.405  0.00  0.00    +0.000 NA
ATOM     34  H   UNL     1      -6.467  12.698  19.869  0.00  0.00    +0.000 HD
ENDBRANCH   8  29
TORSDOF 6
ENDMDL
MODEL 5
REMARK VINA RESULT:      -7.0      2.942      4.513
REMARK  Name = 
REMARK  10 active torsions:
REMARK  status: ('A' for Active; 'I' for Inactive)
REMARK    1  A    between atoms: C_1  and  O_2
REMARK    2  A    between atoms: O_2  and  C_3
REMARK    3  A    between atoms: C_6  and  C_7
REMARK    4  A    between atoms: C_8  and  C_9
REMARK    5  A    between atoms: C_11  and  O_12
REMARK    6  A    between atoms: O_12  and  C_13
REMARK    7  A    between atoms: C_15  and  O_16
REMARK    8  A    between atoms: O_16  and  C_17
REMARK    9  A    between atoms: N_19  and  C_20
REMARK   10  A    between atoms: C_24  and  C_25
REMARK                            x       y       z     vdW  Elec       q    Type
REMARK                         _______ _______ _______ _____ _____    ______ ____
ROOT
ATOM      1  C   UNL     1      -0.404  10.486  20.553  0.00  0.00    +0.000 A 
ATOM      2  C   UNL     1       0.454  11.189  21.414  0.00  0.00    +0.000 A 
ATOM      3  N   UNL     1      -0.355  10.977  22.554  0.00  0.00    +0.000 N 
ATOM      4  C   UNL     1      -0.721   9.693  23.177  0.00  0.00    +0.000 C 
ATOM      5  C   UNL     1      -1.426  11.784  22.262  0.00  0.00    +0.000 A 
ATOM      6  C   UNL     1      -2.076  12.641  23.138  0.00  0.00    +0.000 A 
ATOM      7  C   UNL     1      -2.708  13.705  22.550  0.00  0.00    +0.000 A 
ATOM      8  C   UNL     1      -2.738  13.858  21.150  0.00  0.00    +0.000 A 
ATOM      9  C   UNL     1      -2.189  12.810  20.275  0.00  0.00    +0.000 A 
ATOM     10  C   UNL     1      -1.518  11.635  20.849  0.00  0.00    +0.000 A 
ENDROOT
BRANCH   1  14
ATOM     11  C   UNL     1       2.483   7.860  18.326  0.00  0.00    +0.000 A 
ATOM     12  C   UNL     1       2.231   7.721  19.667  0.00  0.00    +0.000 A 
ATOM     13  C   UNL     1       1.279   8.550  20.266  0.00  0.00    +0.000 A 
ATOM     14  C   UNL     1       0.562   9.648  19.638  0.00  0.00    +0.000 A 
ATOM     15  C   UNL     1       0.825   9.747  18.271  0.00  0.00    +0.000 A 
ATOM     16  C   UNL     1       1.770   8.850  17.623  0.00  0.00    +0.000 A 
BRANCH  11  18
ATOM     17  C   UNL     1       3.686   5.817  18.602  0.00  0.00    +0.000 C 
ATOM     18  O   UNL     1       3.469   7.025  17.879  0.00  0.00    +0.000 OA
ENDBRANCH  11  18
ENDBRANCH   1  14
BRANCH   2  19
ATOM     19  C   UNL     1       1.037  12.464  20.747  0.00  0.00    +0.000 A 
ATOM     20  C   UNL     1       1.069  13.680  21.518  0.00  0.00    +0.000 A 
ATOM     21  C   UNL     1       1.792  14.805  21.178  0.00  0.00    +0.000 A 
ATOM     22  C   UNL     1       2.513  14.760  20.012  0.00  0.00    +0.000 A 
ATOM     23  C   UNL     1       2.439  13.620  19.177  0.00  0.00    +0.000 A 
ATOM     24  C   UNL     1       1.683  12.476  19.539  0.00  0.00    +0.000 A 
BRANCH  21  25
ATOM     25  O   UNL     1       1.814  15.801  22.109  0.00  0.00    +0.000 OA
ATOM     26  C   UNL     1       0.548  16.088  22.685  0.00  0.00    +0.000 C 
ENDBRANCH  21  25
BRANCH  23  27
ATOM     27  O   UNL     1       3.198  13.739  18.060  0.00  0.00    +0.000 OA
ATOM     28  C   UNL     1       3.819  15.002  17.916  0.00  0.00    +0.000 C 
ENDBRANCH  23  27
ENDBRANCH   2  19
BRANCH   8  29
ATOM     29  C   UNL     1      -3.264  15.197  20.755  0.00  0.00    +0.000 A 
ATOM     30  C   UNL     1      -2.597  16.448  20.617  0.00  0.00    +0.000 A 
ATOM     31  C   UNL     1      -3.581  17.400  20.441  0.00  0.00    +0.000 A 
ATOM     32  N   UNL     1      -4.761  16.725  20.516  0.00  0.00    +0.000 N 
ATOM     33  N   UNL     1      -4.601  15.404  20.710  0.00  0.00    +0.000 NA
ATOM     34  H   UNL     1      -5.710  17.088  20.474  0.00  0.00    +0.000 HD
ENDBRANCH   8  29
TORSDOF 6
ENDMDL
MODEL 6
REMARK VINA RESULT:      -6.9      2.842      7.088
REMARK  Name = 
REMARK  10 active torsions:
REMARK  status: ('A' for Active; 'I' for Inactive)
REMARK    1  A    between atoms: C_1  and  O_2
REMARK    2  A    between atoms: O_2  and  C_3
REMARK    3  A    between atoms: C_6  and  C_7
REMARK    4  A    between atoms: C_8  and  C_9
REMARK    5  A    between atoms: C_11  and  O_12
REMARK    6  A    between atoms: O_12  and  C_13
REMARK    7  A    between atoms: C_15  and  O_16
REMARK    8  A    between atoms: O_16  and  C_17
REMARK    9  A    between atoms: N_19  and  C_20
REMARK   10  A    between atoms: C_24  and  C_25
REMARK                            x       y       z     vdW  Elec       q    Type
REMARK                         _______ _______ _______ _____ _____    ______ ____
ROOT
ATOM      1  C   UNL     1      -3.256  14.307  20.890  0.00  0.00    +0.000 A 
ATOM      2  C   UNL     1      -2.516  13.660  21.893  0.00  0.00    +0.000 A 
ATOM      3  N   UNL     1      -2.254  14.853  22.606  0.00  0.00    +0.000 N 
ATOM      4  C   UNL     1      -3.226  15.764  23.234  0.00  0.00    +0.000 C 
ATOM      5  C   UNL     1      -1.373  15.472  21.755  0.00  0.00    +0.000 A 
ATOM      6  C   UNL     1      -0.204  16.127  22.111  0.00  0.00    +0.000 A 
ATOM      7  C   UNL     1       0.757  16.177  21.135  0.00  0.00    +0.000 A 
ATOM      8  C   UNL     1       0.522  15.653  19.849  0.00  0.00    +0.000 A 
ATOM      9  C   UNL     1      -0.808  15.141  19.484  0.00  0.00    +0.000 A 
ATOM     10  C   UNL     1      -1.885  15.082  20.484  0.00  0.00    +0.000 A 
ENDROOT
BRANCH   1  14
ATOM     11  C   UNL     1      -6.850  11.627  20.595  0.00  0.00    +0.000 A 
ATOM     12  C   UNL     1      -6.500  12.279  21.750  0.00  0.00    +0.000 A 
ATOM     13  C   UNL     1      -5.394  13.134  21.736  0.00  0.00    +0.000 A 
ATOM     14  C   UNL     1      -4.477  13.352  20.628  0.00  0.00    +0.000 A 
ATOM     15  C   UNL     1      -4.876  12.691  19.466  0.00  0.00    +0.000 A 
ATOM     16  C   UNL     1      -6.060  11.846  19.452  0.00  0.00    +0.000 A 
BRANCH  11  18
ATOM     17  C   UNL     1      -7.699   9.397  20.538  0.00  0.00    +0.000 C 
ATOM     18  O   UNL     1      -7.917  10.786  20.760  0.00  0.00    +0.000 OA
ENDBRANCH  11  18
ENDBRANCH   1  14
BRANCH   2  19
ATOM     19  C   UNL     1      -1.605  12.543  21.319  0.00  0.00    +0.000 A 
ATOM     20  C   UNL     1      -0.743  11.833  22.230  0.00  0.00    +0.000 A 
ATOM     21  C   UNL     1      -0.091  10.654  21.933  0.00  0.00    +0.000 A 
ATOM     22  C   UNL     1      -0.266  10.138  20.675  0.00  0.00    +0.000 A 
ATOM     23  C   UNL     1      -1.030  10.848  19.718  0.00  0.00    +0.000 A 
ATOM     24  C   UNL     1      -1.685  12.063  20.038  0.00  0.00    +0.000 A 
BRANCH  21  25
ATOM     25  O   UNL     1       0.559  10.057  22.973  0.00  0.00    +0.000 OA
ATOM     26  C   UNL     1       1.541   9.110  22.580  0.00  0.00    +0.000 C 
ENDBRANCH  21  25
BRANCH  23  27
ATOM     27  O   UNL     1      -1.094  10.210  18.523  0.00  0.00    +0.000 OA
ATOM     28  C   UNL     1      -2.024  10.773  17.618  0.00  0.00    +0.000 C 
ENDBRANCH  23  27
ENDBRANCH   2  19
BRANCH   8  29
ATOM     29  C   UNL     1       1.775  15.602  19.040  0.00  0.00    +0.000 A 
ATOM     30  C   UNL     1       2.471  14.490  18.484  0.00  0.00    +0.000 A 
ATOM     31  C   UNL     1       3.676  14.976  18.018  0.00  0.00    +0.000 A 
ATOM     32  N   UNL     1       3.683  16.300  18.331  0.00  0.00    +0.000 N 
ATOM     33  N   UNL     1       2.559  16.702  18.950  0.00  0.00    +0.000 NA
ATOM     34  H   UNL     1       4.418  16.989  18.186  0.00  0.00    +0.000 HD
ENDBRANCH   8  29
TORSDOF 6
ENDMDL
MODEL 7
REMARK VINA RESULT:      -6.9      3.180      5.108
REMARK  Name = 
REMARK  10 active torsions:
REMARK  status: ('A' for Active; 'I' for Inactive)
REMARK    1  A    between atoms: C_1  and  O_2
REMARK    2  A    between atoms: O_2  and  C_3
REMARK    3  A    between atoms: C_6  and  C_7
REMARK    4  A    between atoms: C_8  and  C_9
REMARK    5  A    between atoms: C_11  and  O_12
REMARK    6  A    between atoms: O_12  and  C_13
REMARK    7  A    between atoms: C_15  and  O_16
REMARK    8  A    between atoms: O_16  and  C_17
REMARK    9  A    between atoms: N_19  and  C_20
REMARK   10  A    between atoms: C_24  and  C_25
REMARK                            x       y       z     vdW  Elec       q    Type
REMARK                         _______ _______ _______ _____ _____    ______ ____
ROOT
ATOM      1  C   UNL     1       0.848  15.887  20.082  0.00  0.00    +0.000 A 
ATOM      2  C   UNL     1       0.039  15.328  19.080  0.00  0.00    +0.000 A 
ATOM      3  N   UNL     1      -0.834  16.440  19.028  0.00  0.00    +0.000 N 
ATOM      4  C   UNL     1      -0.507  17.830  18.667  0.00  0.00    +0.000 C 
ATOM      5  C   UNL     1      -1.486  16.310  20.228  0.00  0.00    +0.000 A 
ATOM      6  C   UNL     1      -2.847  16.459  20.448  0.00  0.00    +0.000 A 
ATOM      7  C   UNL     1      -3.342  15.777  21.528  0.00  0.00    +0.000 A 
ATOM      8  C   UNL     1      -2.496  15.038  22.378  0.00  0.00    +0.000 A 
ATOM      9  C   UNL     1      -1.036  15.077  22.194  0.00  0.00    +0.000 A 
ATOM     10  C   UNL     1      -0.447  15.812  21.064  0.00  0.00    +0.000 A 
ENDROOT
BRANCH   1  14
ATOM     11  C   UNL     1       4.899  14.958  18.375  0.00  0.00    +0.000 A 
ATOM     12  C   UNL     1       3.841  15.367  17.603  0.00  0.00    +0.000 A 
ATOM     13  C   UNL     1       2.632  15.683  18.227  0.00  0.00    +0.000 A 
ATOM     14  C   UNL     1       2.315  15.536  19.639  0.00  0.00    +0.000 A 
ATOM     15  C   UNL     1       3.419  15.140  20.395  0.00  0.00    +0.000 A 
ATOM     16  C   UNL     1       4.702  14.866  19.765  0.00  0.00    +0.000 A 
BRANCH  11  18
ATOM     17  C   UNL     1       7.240  15.237  18.002  0.00  0.00    +0.000 C 
ATOM     18  O   UNL     1       6.004  14.633  17.636  0.00  0.00    +0.000 OA
ENDBRANCH  11  18
ENDBRANCH   1  14
BRANCH   2  19
ATOM     19  C   UNL     1      -0.190  13.807  19.292  0.00  0.00    +0.000 A 
ATOM     20  C   UNL     1      -1.129  13.134  18.432  0.00  0.00    +0.000 A 
ATOM     21  C   UNL     1      -1.237  11.764  18.310  0.00  0.00    +0.000 A 
ATOM     22  C   UNL     1      -0.401  10.996  19.079  0.00  0.00    +0.000 A 
ATOM     23  C   UNL     1       0.474  11.612  20.005  0.00  0.00    +0.000 A 
ATOM     24  C   UNL     1       0.565  13.022  20.123  0.00  0.00    +0.000 A 
BRANCH  21  25
ATOM     25  O   UNL     1      -2.082  11.320  17.336  0.00  0.00    +0.000 OA
ATOM     26  C   UNL     1      -3.422  11.135  17.767  0.00  0.00    +0.000 C 
ENDBRANCH  21  25
BRANCH  23  27
ATOM     27  O   UNL     1       1.222  10.715  20.694  0.00  0.00    +0.000 OA
ATOM     28  C   UNL     1       0.754   9.383  20.605  0.00  0.00    +0.000 C 
ENDBRANCH  23  27
ENDBRANCH   2  19
BRANCH   8  29
ATOM     29  C   UNL     1      -3.275  14.193  23.329  0.00  0.00    +0.000 A 
ATOM     30  C   UNL     1      -3.100  12.833  23.715  0.00  0.00    +0.000 A 
ATOM     31  C   UNL     1      -4.214  12.488  24.451  0.00  0.00    +0.000 A 
ATOM     32  N   UNL     1      -5.010  13.592  24.453  0.00  0.00    +0.000 N 
ATOM     33  N   UNL     1      -4.475  14.628  23.782  0.00  0.00    +0.000 NA
ATOM     34  H   UNL     1      -5.935  13.715  24.857  0.00  0.00    +0.000 HD
ENDBRANCH   8  29
TORSDOF 6
ENDMDL
MODEL 8
REMARK VINA RESULT:      -6.8      1.396      1.757
REMARK  Name = 
REMARK  10 active torsions:
REMARK  status: ('A' for Active; 'I' for Inactive)
REMARK    1  A    between atoms: C_1  and  O_2
REMARK    2  A    between atoms: O_2  and  C_3
REMARK    3  A    between atoms: C_6  and  C_7
REMARK    4  A    between atoms: C_8  and  C_9
REMARK    5  A    between atoms: C_11  and  O_12
REMARK    6  A    between atoms: O_12  and  C_13
REMARK    7  A    between atoms: C_15  and  O_16
REMARK    8  A    between atoms: O_16  and  C_17
REMARK    9  A    between atoms: N_19  and  C_20
REMARK   10  A    between atoms: C_24  and  C_25
REMARK                            x       y       z     vdW  Elec       q    Type
REMARK                         _______ _______ _______ _____ _____    ______ ____
ROOT
ATOM      1  C   UNL     1      -0.634  12.076  20.719  0.00  0.00    +0.000 A 
ATOM      2  C   UNL     1      -1.176  12.734  19.603  0.00  0.00    +0.000 A 
ATOM      3  N   UNL     1      -0.985  14.025  20.148  0.00  0.00    +0.000 N 
ATOM      4  C   UNL     1       0.286  14.670  20.520  0.00  0.00    +0.000 C 
ATOM      5  C   UNL     1      -1.927  14.025  21.145  0.00  0.00    +0.000 A 
ATOM      6  C   UNL     1      -2.794  15.060  21.460  0.00  0.00    +0.000 A 
ATOM      7  C   UNL     1      -3.960  14.679  22.071  0.00  0.00    +0.000 A 
ATOM      8  C   UNL     1      -4.206  13.333  22.404  0.00  0.00    +0.000 A 
ATOM      9  C   UNL     1      -3.162  12.314  22.210  0.00  0.00    +0.000 A 
ATOM     10  C   UNL     1      -1.882  12.670  21.579  0.00  0.00    +0.000 A 
ENDROOT
BRANCH   1  14
ATOM     11  C   UNL     1       1.790   8.548  19.355  0.00  0.00    +0.000 A 
ATOM     12  C   UNL     1       1.074   8.553  20.526  0.00  0.00    +0.000 A 
ATOM     13  C   UNL     1       0.307   9.676  20.845  0.00  0.00    +0.000 A 
ATOM     14  C   UNL     1       0.247  10.928  20.106  0.00  0.00    +0.000 A 
ATOM     15  C   UNL     1       0.969  10.880  18.913  0.00  0.00    +0.000 A 
ATOM     16  C   UNL     1       1.723   9.693  18.539  0.00  0.00    +0.000 A 
BRANCH  11  18
ATOM     17  C   UNL     1       3.190   7.232  17.939  0.00  0.00    +0.000 C 
ATOM     18  O   UNL     1       2.534   7.412  19.190  0.00  0.00    +0.000 OA
ENDBRANCH  11  18
ENDBRANCH   1  14
BRANCH   2  19
ATOM     19  C   UNL     1      -2.416  11.995  19.033  0.00  0.00    +0.000 A 
ATOM     20  C   UNL     1      -3.711  12.602  19.210  0.00  0.00    +0.000 A 
ATOM     21  C   UNL     1      -4.854  12.222  18.537  0.00  0.00    +0.000 A 
ATOM     22  C   UNL     1      -4.745  11.179  17.653  0.00  0.00    +0.000 A 
ATOM     23  C   UNL     1      -3.515  10.493  17.514  0.00  0.00    +0.000 A 
ATOM     24  C   UNL     1      -2.353  10.893  18.222  0.00  0.00    +0.000 A 
BRANCH  21  25
ATOM     25  O   UNL     1      -5.948  13.013  18.730  0.00  0.00    +0.000 OA
ATOM     26  C   UNL     1      -7.152  12.295  18.959  0.00  0.00    +0.000 C 
ENDBRANCH  21  25
BRANCH  23  27
ATOM     27  O   UNL     1      -3.578   9.482  16.613  0.00  0.00    +0.000 OA
ATOM     28  C   UNL     1      -3.110   9.829  15.323  0.00  0.00    +0.000 C 
ENDBRANCH  23  27
ENDBRANCH   2  19
BRANCH   8  29
ATOM     29  C   UNL     1      -5.620  13.123  22.832  0.00  0.00    +0.000 A 
ATOM     30  C   UNL     1      -6.376  13.750  23.864  0.00  0.00    +0.000 A 
ATOM     31  C   UNL     1      -7.553  13.039  23.976  0.00  0.00    +0.000 A 
ATOM     32  N   UNL     1      -7.456  12.026  23.072  0.00  0.00    +0.000 N 
ATOM     33  N   UNL     1      -6.305  12.047  22.378  0.00  0.00    +0.000 NA
ATOM     34  H   UNL     1      -8.109  11.268  22.887  0.00  0.00    +0.000 HD
ENDBRANCH   8  29
TORSDOF 6
ENDMDL
MODEL 9
REMARK VINA RESULT:      -6.8      3.326      6.163
REMARK  Name = 
REMARK  10 active torsions:
REMARK  status: ('A' for Active; 'I' for Inactive)
REMARK    1  A    between atoms: C_1  and  O_2
REMARK    2  A    between atoms: O_2  and  C_3
REMARK    3  A    between atoms: C_6  and  C_7
REMARK    4  A    between atoms: C_8  and  C_9
REMARK    5  A    between atoms: C_11  and  O_12
REMARK    6  A    between atoms: O_12  and  C_13
REMARK    7  A    between atoms: C_15  and  O_16
REMARK    8  A    between atoms: O_16  and  C_17
REMARK    9  A    between atoms: N_19  and  C_20
REMARK   10  A    between atoms: C_24  and  C_25
REMARK                            x       y       z     vdW  Elec       q    Type
REMARK                         _______ _______ _______ _____ _____    ______ ____
ROOT
ATOM      1  C   UNL     1       1.260  13.023  18.815  0.00  0.00    +0.000 A 
ATOM      2  C   UNL     1       1.246  12.129  19.898  0.00  0.00    +0.000 A 
ATOM      3  N   UNL     1       1.267  10.979  19.077  0.00  0.00    +0.000 N 
ATOM      4  C   UNL     1       2.312  10.567  18.123  0.00  0.00    +0.000 C 
ATOM      5  C   UNL     1       0.004  11.023  18.542  0.00  0.00    +0.000 A 
ATOM      6  C   UNL     1      -0.864   9.953  18.385  0.00  0.00    +0.000 A 
ATOM      7  C   UNL     1      -2.194  10.280  18.361  0.00  0.00    +0.000 A 
ATOM      8  C   UNL     1      -2.620  11.621  18.425  0.00  0.00    +0.000 A 
ATOM      9  C   UNL     1      -1.638  12.716  18.400  0.00  0.00    +0.000 A 
ATOM     10  C   UNL     1      -0.197  12.426  18.404  0.00  0.00    +0.000 A 
ENDROOT
BRANCH   1  14
ATOM     11  C   UNL     1       3.884  16.543  19.770  0.00  0.00    +0.000 A 
ATOM     12  C   UNL     1       2.833  16.613  18.891  0.00  0.00    +0.000 A 
ATOM     13  C   UNL     1       2.039  15.481  18.694  0.00  0.00    +0.000 A 
ATOM     14  C   UNL     1       2.255  14.157  19.257  0.00  0.00    +0.000 A 
ATOM     15  C   UNL     1       3.317  14.128  20.161  0.00  0.00    +0.000 A 
ATOM     16  C   UNL     1       4.114  15.317  20.421  0.00  0.00    +0.000 A 
BRANCH  11  18
ATOM     17  C   UNL     1       6.026  17.593  19.829  0.00  0.00    +0.000 C 
ATOM     18  O   UNL     1       4.606  17.702  19.831  0.00  0.00    +0.000 OA
ENDBRANCH  11  18
ENDBRANCH   1  14
BRANCH   2  19
ATOM     19  C   UNL     1       0.305  12.604  21.038  0.00  0.00    +0.000 A 
ATOM     20  C   UNL     1       0.005  14.010  21.129  0.00  0.00    +0.000 A 
ATOM     21  C   UNL     1      -1.010  14.547  21.895  0.00  0.00    +0.000 A 
ATOM     22  C   UNL     1      -1.770  13.675  22.632  0.00  0.00    +0.000 A 
ATOM     23  C   UNL     1      -1.453  12.295  22.644  0.00  0.00    +0.000 A 
ATOM     24  C   UNL     1      -0.400  11.763  21.857  0.00  0.00    +0.000 A 
BRANCH  21  25
ATOM     25  O   UNL     1      -1.232  15.883  21.735  0.00  0.00    +0.000 OA
ATOM     26  C   UNL     1      -1.222  16.317  20.383  0.00  0.00    +0.000 C 
ENDBRANCH  21  25
BRANCH  23  27
ATOM     27  O   UNL     1      -2.290  11.573  23.430  0.00  0.00    +0.000 OA
ATOM     28  C   UNL     1      -3.490  12.244  23.764  0.00  0.00    +0.000 C 
ENDBRANCH  23  27
ENDBRANCH   2  19
BRANCH   8  29
ATOM     29  C   UNL     1      -4.095  11.719  18.625  0.00  0.00    +0.000 A 
ATOM     30  C   UNL     1      -4.847  12.317  19.677  0.00  0.00    +0.000 A 
ATOM     31  C   UNL     1      -6.160  11.939  19.485  0.00  0.00    +0.000 A 
ATOM     32  N   UNL     1      -6.152  11.128  18.392  0.00  0.00    +0.000 N 
ATOM     33  N   UNL     1      -4.927  10.973  17.860  0.00  0.00    +0.000 NA
ATOM     34  H   UNL     1      -6.923  10.621  17.964  0.00  0.00    +0.000 HD
ENDBRANCH   8  29
TORSDOF 6
ENDMDL
