MODEL 1
REMARK VINA RESULT:      -9.2      0.000      0.000
REMARK  Name = 
REMARK  11 active torsions:
REMARK  status: ('A' for Active; 'I' for Inactive)
REMARK    1  A    between atoms: C_2  and  C_4
REMARK    2  A    between atoms: C_9  and  C_10
REMARK    3  A    between atoms: C_12  and  C_13
REMARK    4  A    between atoms: C_13  and  C_14
REMARK    5  A    between atoms: C_13  and  C_18
REMARK    6  A    between atoms: C_14  and  C_15
REMARK    7  A    between atoms: C_15  and  O_17
REMARK    8  A    between atoms: C_18  and  O_20
REMARK    9  A    between atoms: C_22  and  C_23
REMARK   10  A    between atoms: C_29  and  O_30
REMARK   11  A    between atoms: C_31  and  O_32
REMARK                            x       y       z     vdW  Elec       q    Type
REMARK                         _______ _______ _______ _____ _____    ______ ____
ROOT
ATOM      1  C   UNL     1       2.975   6.422  18.781  0.00  0.00    +0.000 A 
ATOM      2  C   UNL     1       2.931   5.363  19.693  0.00  0.00    +0.000 A 
ATOM      3  C   UNL     1       3.633   4.171  19.455  0.00  0.00    +0.000 A 
ATOM      4  C   UNL     1       4.459   4.100  18.314  0.00  0.00    +0.000 A 
ATOM      5  C   UNL     1       4.587   5.160  17.384  0.00  0.00    +0.000 A 
ATOM      6  C   UNL     1       3.772   6.290  17.623  0.00  0.00    +0.000 A 
ENDROOT
BRANCH   1  12
ATOM      7  C   UNL     1      -0.226  11.420  19.460  0.00  0.00    +0.000 A 
ATOM      8  C   UNL     1      -0.105  11.121  20.824  0.00  0.00    +0.000 A 
ATOM      9  C   UNL     1       0.567   9.976  21.259  0.00  0.00    +0.000 A 
ATOM     10  C   UNL     1       1.132   9.179  20.265  0.00  0.00    +0.000 A 
ATOM     11  N   UNL     1       1.846   8.017  20.322  0.00  0.00    +0.000 N 
ATOM     12  C   UNL     1       2.201   7.639  19.047  0.00  0.00    +0.000 A 
ATOM     13  N   UNL     1       1.736   8.512  18.169  0.00  0.00    +0.000 NA
ATOM     14  C   UNL     1       1.056   9.458  18.906  0.00  0.00    +0.000 A 
ATOM     15  C   UNL     1       0.350  10.591  18.482  0.00  0.00    +0.000 A 
ATOM     16  H   UNL     1       2.062   7.472  21.145  0.00  0.00    +0.000 HD
BRANCH   7  18
ATOM     17  N   UNL     1      -1.696  13.266  19.920  0.00  0.00    +0.000 NA
ATOM     18  C   UNL     1      -0.969  12.643  19.051  0.00  0.00    +0.000 C 
ATOM     19  N   UNL     1      -0.899  13.092  17.764  0.00  0.00    +0.000 N 
ATOM     20  H   UNL     1      -2.102  14.101  19.496  0.00  0.00    +0.000 HD
ATOM     21  H   UNL     1      -1.657  13.696  17.470  0.00  0.00    +0.000 HD
ATOM     22  H   UNL     1      -0.694  12.384  17.066  0.00  0.00    +0.000 HD
ENDBRANCH   7  18
ENDBRANCH   1  12
BRANCH   5  23
ATOM     23  C   UNL     1       5.521   5.024  16.221  0.00  0.00    +0.000 A 
ATOM     24  C   UNL     1       5.121   4.321  15.066  0.00  0.00    +0.000 A 
ATOM     25  C   UNL     1       5.981   4.153  13.981  0.00  0.00    +0.000 A 
ATOM     26  F   UNL     1       5.567   3.457  12.915  0.00  0.00    +0.000 F 
ATOM     27  C   UNL     1       7.257   4.695  13.981  0.00  0.00    +0.000 A 
ATOM     28  C   UNL     1       7.693   5.398  15.096  0.00  0.00    +0.000 A 
ATOM     29  C   UNL     1       6.846   5.535  16.199  0.00  0.00    +0.000 A 
BRANCH  29  30
ATOM     30  O   UNL     1       7.332   6.216  17.290  0.00  0.00    +0.000 OA
ATOM     31  H   UNL     1       8.070   6.787  17.005  0.00  0.00    +0.000 HD
ENDBRANCH  29  30
ENDBRANCH   5  23
BRANCH   6  32
ATOM     32  O   UNL     1       3.690   7.314  16.703  0.00  0.00    +0.000 OA
ATOM     33  H   UNL     1       4.599   7.450  16.374  0.00  0.00    +0.000 HD
ENDBRANCH   6  32
BRANCH   3  34
ATOM     34  C   UNL     1       3.403   2.985  20.387  0.00  0.00    +0.000 C 
BRANCH  34  35
ATOM     35  C   UNL     1       4.466   1.895  20.395  0.00  0.00    +0.000 C 
ATOM     36  O   UNL     1       5.181   1.676  21.366  0.00  0.00    +0.000 OA
BRANCH  35  37
ATOM     37  O   UNL     1       4.619   1.222  19.236  0.00  0.00    +0.000 OA
ATOM     38  H   UNL     1       4.799   1.783  18.455  0.00  0.00    +0.000 HD
ENDBRANCH  35  37
ENDBRANCH  34  35
BRANCH  34  39
ATOM     39  C   UNL     1       2.020   2.347  20.174  0.00  0.00    +0.000 C 
BRANCH  39  40
ATOM     40  C   UNL     1       1.579   2.348  18.730  0.00  0.00    +0.000 C 
ATOM     41  O   UNL     1       0.712   3.088  18.287  0.00  0.00    +0.000 OA
BRANCH  40  42
ATOM     42  O   UNL     1       2.240   1.471  17.947  0.00  0.00    +0.000 OA
ATOM     43  H   UNL     1       2.783   1.884  17.235  0.00  0.00    +0.000 HD
ENDBRANCH  40  42
ENDBRANCH  39  40
ENDBRANCH  34  39
ENDBRANCH   3  34
TORSDOF 11
ENDMDL
MODEL 2
REMARK VINA RESULT:      -9.1      0.892      1.219
REMARK  Name = 
REMARK  11 active torsions:
REMARK  status: ('A' for Active; 'I' for Inactive)
REMARK    1  A    between atoms: C_2  and  C_4
REMARK    2  A    between atoms: C_9  and  C_10
REMARK    3  A    between atoms: C_12  and  C_13
REMARK    4  A    between atoms: C_13  and  C_14
REMARK    5  A    between atoms: C_13  and  C_18
REMARK    6  A    between atoms: C_14  and  C_15
REMARK    7  A    between atoms: C_15  and  O_17
REMARK    8  A    between atoms: C_18  and  O_20
REMARK    9  A    between atoms: C_22  and  C_23
REMARK   10  A    between atoms: C_29  and  O_30
REMARK   11  A    between atoms: C_31  and  O_32
REMARK                            x       y       z     vdW  Elec       q    Type
REMARK                         _______ _______ _______ _____ _____    ______ ____
ROOT
ATOM      1  C   UNL     1       3.109   6.264  18.507  0.00  0.00    +0.000 A 
ATOM      2  C   UNL     1       3.070   5.190  19.403  0.00  0.00    +0.000 A 
ATOM      3  C   UNL     1       3.781   4.007  19.148  0.00  0.00    +0.000 A 
ATOM      4  C   UNL     1       4.610   3.961  18.008  0.00  0.00    +0.000 A 
ATOM      5  C   UNL     1       4.732   5.036  17.095  0.00  0.00    +0.000 A 
ATOM      6  C   UNL     1       3.909   6.156  17.350  0.00  0.00    +0.000 A 
ENDROOT
BRANCH   1  12
ATOM      7  C   UNL     1      -0.163  11.206  19.259  0.00  0.00    +0.000 A 
ATOM      8  C   UNL     1       0.069  10.960  20.619  0.00  0.00    +0.000 A 
ATOM      9  C   UNL     1       0.802   9.847  21.040  0.00  0.00    +0.000 A 
ATOM     10  C   UNL     1       1.310   9.028  20.033  0.00  0.00    +0.000 A 
ATOM     11  N   UNL     1       2.057   7.887  20.075  0.00  0.00    +0.000 N 
ATOM     12  C   UNL     1       2.324   7.471  18.791  0.00  0.00    +0.000 A 
ATOM     13  N   UNL     1       1.772   8.301  17.922  0.00  0.00    +0.000 NA
ATOM     14  C   UNL     1       1.125   9.256  18.676  0.00  0.00    +0.000 A 
ATOM     15  C   UNL     1       0.359  10.356  18.268  0.00  0.00    +0.000 A 
ATOM     16  H   UNL     1       2.350   7.377  20.897  0.00  0.00    +0.000 HD
BRANCH   7  18
ATOM     17  N   UNL     1      -0.702  13.005  17.758  0.00  0.00    +0.000 NA
ATOM     18  C   UNL     1      -0.967  12.395  18.866  0.00  0.00    +0.000 C 
ATOM     19  N   UNL     1      -1.964  12.850  19.680  0.00  0.00    +0.000 N 
ATOM     20  H   UNL     1      -1.365  13.767  17.614  0.00  0.00    +0.000 HD
ATOM     21  H   UNL     1      -2.237  13.816  19.539  0.00  0.00    +0.000 HD
ATOM     22  H   UNL     1      -1.856  12.633  20.665  0.00  0.00    +0.000 HD
ENDBRANCH   7  18
ENDBRANCH   1  12
BRANCH   5  23
ATOM     23  C   UNL     1       5.670   4.925  15.932  0.00  0.00    +0.000 A 
ATOM     24  C   UNL     1       5.284   4.225  14.771  0.00  0.00    +0.000 A 
ATOM     25  C   UNL     1       6.148   4.079  13.687  0.00  0.00    +0.000 A 
ATOM     26  F   UNL     1       5.747   3.385  12.614  0.00  0.00    +0.000 F 
ATOM     27  C   UNL     1       7.415   4.642  13.693  0.00  0.00    +0.000 A 
ATOM     28  C   UNL     1       7.837   5.343  14.814  0.00  0.00    +0.000 A 
ATOM     29  C   UNL     1       6.987   5.457  15.917  0.00  0.00    +0.000 A 
BRANCH  29  30
ATOM     30  O   UNL     1       7.460   6.138  17.014  0.00  0.00    +0.000 OA
ATOM     31  H   UNL     1       7.063   7.028  17.031  0.00  0.00    +0.000 HD
ENDBRANCH  29  30
ENDBRANCH   5  23
BRANCH   6  32
ATOM     32  O   UNL     1       3.821   7.193  16.445  0.00  0.00    +0.000 OA
ATOM     33  H   UNL     1       4.395   7.902  16.796  0.00  0.00    +0.000 HD
ENDBRANCH   6  32
BRANCH   3  34
ATOM     34  C   UNL     1       3.557   2.806  20.061  0.00  0.00    +0.000 C 
BRANCH  34  35
ATOM     35  C   UNL     1       4.537   1.648  19.933  0.00  0.00    +0.000 C 
ATOM     36  O   UNL     1       5.419   1.433  20.756  0.00  0.00    +0.000 OA
BRANCH  35  37
ATOM     37  O   UNL     1       4.415   0.903  18.814  0.00  0.00    +0.000 OA
ATOM     38  H   UNL     1       5.195   0.355  18.598  0.00  0.00    +0.000 HD
ENDBRANCH  35  37
ENDBRANCH  34  35
BRANCH  34  39
ATOM     39  C   UNL     1       2.119   2.271  19.963  0.00  0.00    +0.000 C 
BRANCH  39  40
ATOM     40  C   UNL     1       1.201   2.831  21.024  0.00  0.00    +0.000 C 
ATOM     41  O   UNL     1       1.272   2.532  22.207  0.00  0.00    +0.000 OA
BRANCH  40  42
ATOM     42  O   UNL     1       0.295   3.717  20.562  0.00  0.00    +0.000 OA
ATOM     43  H   UNL     1       0.598   4.657  20.571  0.00  0.00    +0.000 HD
ENDBRANCH  40  42
ENDBRANCH  39  40
ENDBRANCH  34  39
ENDBRANCH   3  34
TORSDOF 11
ENDMDL
MODEL 3
REMARK VINA RESULT:      -9.0      0.715      1.940
REMARK  Name = 
REMARK  11 active torsions:
REMARK  status: ('A' for Active; 'I' for Inactive)
REMARK    1  A    between atoms: C_2  and  C_4
REMARK    2  A    between atoms: C_9  and  C_10
REMARK    3  A    between atoms: C_12  and  C_13
REMARK    4  A    between atoms: C_13  and  C_14
REMARK    5  A    between atoms: C_13  and  C_18
REMARK    6  A    between atoms: C_14  and  C_15
REMARK    7  A    between atoms: C_15  and  O_17
REMARK    8  A    between atoms: C_18  and  O_20
REMARK    9  A    between atoms: C_22  and  C_23
REMARK   10  A    between atoms: C_29  and  O_30
REMARK   11  A    between atoms: C_31  and  O_32
REMARK                            x       y       z     vdW  Elec       q    Type
REMARK                         _______ _______ _______ _____ _____    ______ ____
ROOT
ATOM      1  C   UNL     1       2.814   6.346  18.444  0.00  0.00    +0.000 A 
ATOM      2  C   UNL     1       2.525   5.186  19.170  0.00  0.00    +0.000 A 
ATOM      3  C   UNL     1       3.091   3.951  18.818  0.00  0.00    +0.000 A 
ATOM      4  C   UNL     1       4.032   3.924  17.768  0.00  0.00    +0.000 A 
ATOM      5  C   UNL     1       4.405   5.075  17.033  0.00  0.00    +0.000 A 
ATOM      6  C   UNL     1       3.719   6.266  17.365  0.00  0.00    +0.000 A 
ENDROOT
BRANCH   1  12
ATOM      7  C   UNL     1       0.187  11.591  19.578  0.00  0.00    +0.000 A 
ATOM      8  C   UNL     1       0.227  11.143  20.905  0.00  0.00    +0.000 A 
ATOM      9  C   UNL     1       0.749   9.888  21.231  0.00  0.00    +0.000 A 
ATOM     10  C   UNL     1       1.251   9.135  20.171  0.00  0.00    +0.000 A 
ATOM     11  N   UNL     1       1.824   7.898  20.121  0.00  0.00    +0.000 N 
ATOM     12  C   UNL     1       2.175   7.612  18.821  0.00  0.00    +0.000 A 
ATOM     13  N   UNL     1       1.844   8.619  18.030  0.00  0.00    +0.000 NA
ATOM     14  C   UNL     1       1.253   9.558  18.848  0.00  0.00    +0.000 A 
ATOM     15  C   UNL     1       0.696  10.804  18.530  0.00  0.00    +0.000 A 
ATOM     16  H   UNL     1       1.949   7.250  20.886  0.00  0.00    +0.000 HD
BRANCH   7  18
ATOM     17  N   UNL     1      -0.311  13.868  20.168  0.00  0.00    +0.000 NA
ATOM     18  C   UNL     1      -0.397  12.928  19.284  0.00  0.00    +0.000 C 
ATOM     19  N   UNL     1      -1.034  13.155  18.098  0.00  0.00    +0.000 N 
ATOM     20  H   UNL     1      -0.719  14.728  19.799  0.00  0.00    +0.000 HD
ATOM     21  H   UNL     1      -1.680  13.935  18.091  0.00  0.00    +0.000 HD
ATOM     22  H   UNL     1      -1.435  12.334  17.655  0.00  0.00    +0.000 HD
ENDBRANCH   7  18
ENDBRANCH   1  12
BRANCH   5  23
ATOM     23  C   UNL     1       5.446   4.972  15.961  0.00  0.00    +0.000 A 
ATOM     24  C   UNL     1       5.155   4.316  14.747  0.00  0.00    +0.000 A 
ATOM     25  C   UNL     1       6.114   4.178  13.745  0.00  0.00    +0.000 A 
ATOM     26  F   UNL     1       5.800   3.526  12.618  0.00  0.00    +0.000 F 
ATOM     27  C   UNL     1       7.388   4.706  13.888  0.00  0.00    +0.000 A 
ATOM     28  C   UNL     1       7.719   5.363  15.065  0.00  0.00    +0.000 A 
ATOM     29  C   UNL     1       6.771   5.468  16.086  0.00  0.00    +0.000 A 
BRANCH  29  30
ATOM     30  O   UNL     1       7.154   6.104  17.243  0.00  0.00    +0.000 OA
ATOM     31  H   UNL     1       6.895   5.557  18.008  0.00  0.00    +0.000 HD
ENDBRANCH  29  30
ENDBRANCH   5  23
BRANCH   6  32
ATOM     32  O   UNL     1       3.880   7.411  16.613  0.00  0.00    +0.000 OA
ATOM     33  H   UNL     1       3.075   7.485  16.065  0.00  0.00    +0.000 HD
ENDBRANCH   6  32
BRANCH   3  34
ATOM     34  C   UNL     1       2.601   2.691  19.525  0.00  0.00    +0.000 C 
BRANCH  34  35
ATOM     35  C   UNL     1       1.104   2.576  19.776  0.00  0.00    +0.000 C 
ATOM     36  O   UNL     1       0.307   2.276  18.894  0.00  0.00    +0.000 OA
BRANCH  35  37
ATOM     37  O   UNL     1       0.697   2.889  21.024  0.00  0.00    +0.000 OA
ATOM     38  H   UNL     1       0.328   3.789  21.122  0.00  0.00    +0.000 HD
ENDBRANCH  35  37
ENDBRANCH  34  35
BRANCH  34  39
ATOM     39  C   UNL     1       3.360   2.437  20.838  0.00  0.00    +0.000 C 
BRANCH  39  40
ATOM     40  C   UNL     1       4.629   1.641  20.650  0.00  0.00    +0.000 C 
ATOM     41  O   UNL     1       5.446   1.449  21.540  0.00  0.00    +0.000 OA
BRANCH  40  42
ATOM     42  O   UNL     1       4.786   1.130  19.412  0.00  0.00    +0.000 OA
ATOM     43  H   UNL     1       5.720   0.930  19.165  0.00  0.00    +0.000 HD
ENDBRANCH  40  42
ENDBRANCH  39  40
ENDBRANCH  34  39
ENDBRANCH   3  34
TORSDOF 11
ENDMDL
MODEL 4
REMARK VINA RESULT:      -8.8      0.939      1.590
REMARK  Name = 
REMARK  11 active torsions:
REMARK  status: ('A' for Active; 'I' for Inactive)
REMARK    1  A    between atoms: C_2  and  C_4
REMARK    2  A    between atoms: C_9  and  C_10
REMARK    3  A    between atoms: C_12  and  C_13
REMARK    4  A    between atoms: C_13  and  C_14
REMARK    5  A    between atoms: C_13  and  C_18
REMARK    6  A    between atoms: C_14  and  C_15
REMARK    7  A    between atoms: C_15  and  O_17
REMARK    8  A    between atoms: C_18  and  O_20
REMARK    9  A    between atoms: C_22  and  C_23
REMARK   10  A    between atoms: C_29  and  O_30
REMARK   11  A    between atoms: C_31  and  O_32
REMARK                            x       y       z     vdW  Elec       q    Type
REMARK                         _______ _______ _______ _____ _____    ______ ____
ROOT
ATOM      1  C   UNL     1       3.079   6.104  18.825  0.00  0.00    +0.000 A 
ATOM      2  C   UNL     1       3.010   4.957  19.624  0.00  0.00    +0.000 A 
ATOM      3  C   UNL     1       3.660   3.772  19.249  0.00  0.00    +0.000 A 
ATOM      4  C   UNL     1       4.463   3.790  18.090  0.00  0.00    +0.000 A 
ATOM      5  C   UNL     1       4.615   4.935  17.272  0.00  0.00    +0.000 A 
ATOM      6  C   UNL     1       3.849   6.063  17.643  0.00  0.00    +0.000 A 
ENDROOT
BRANCH   1  12
ATOM      7  C   UNL     1       0.156  10.894  20.874  0.00  0.00    +0.000 A 
ATOM      8  C   UNL     1       0.247  11.320  19.542  0.00  0.00    +0.000 A 
ATOM      9  C   UNL     1       0.896  10.547  18.576  0.00  0.00    +0.000 A 
ATOM     10  C   UNL     1       1.411   9.326  19.009  0.00  0.00    +0.000 A 
ATOM     11  N   UNL     1       2.086   8.337  18.354  0.00  0.00    +0.000 N 
ATOM     12  C   UNL     1       2.357   7.314  19.233  0.00  0.00    +0.000 A 
ATOM     13  N   UNL     1       1.884   7.609  20.433  0.00  0.00    +0.000 NA
ATOM     14  C   UNL     1       1.315   8.859  20.313  0.00  0.00    +0.000 A 
ATOM     15  C   UNL     1       0.691   9.659  21.279  0.00  0.00    +0.000 A 
ATOM     16  H   UNL     1       2.393   8.340  17.391  0.00  0.00    +0.000 HD
BRANCH   7  18
ATOM     17  N   UNL     1      -0.624  11.377  23.096  0.00  0.00    +0.000 NA
ATOM     18  C   UNL     1      -0.530  11.765  21.867  0.00  0.00    +0.000 C 
ATOM     19  N   UNL     1      -1.072  12.956  21.478  0.00  0.00    +0.000 N 
ATOM     20  H   UNL     1      -1.080  12.100  23.654  0.00  0.00    +0.000 HD
ATOM     21  H   UNL     1      -1.790  13.330  22.088  0.00  0.00    +0.000 HD
ATOM     22  H   UNL     1      -1.344  13.013  20.502  0.00  0.00    +0.000 HD
ENDBRANCH   7  18
ENDBRANCH   1  12
BRANCH   5  23
ATOM     23  C   UNL     1       5.522   4.887  16.080  0.00  0.00    +0.000 A 
ATOM     24  C   UNL     1       5.127   4.204  14.912  0.00  0.00    +0.000 A 
ATOM     25  C   UNL     1       5.964   4.116  13.800  0.00  0.00    +0.000 A 
ATOM     26  F   UNL     1       5.557   3.437  12.721  0.00  0.00    +0.000 F 
ATOM     27  C   UNL     1       7.211   4.723  13.786  0.00  0.00    +0.000 A 
ATOM     28  C   UNL     1       7.641   5.409  14.914  0.00  0.00    +0.000 A 
ATOM     29  C   UNL     1       6.819   5.465  16.043  0.00  0.00    +0.000 A 
BRANCH  29  30
ATOM     30  O   UNL     1       7.300   6.133  17.144  0.00  0.00    +0.000 OA
ATOM     31  H   UNL     1       7.007   5.670  17.950  0.00  0.00    +0.000 HD
ENDBRANCH  29  30
ENDBRANCH   5  23
BRANCH   6  32
ATOM     32  O   UNL     1       3.790   7.180  16.836  0.00  0.00    +0.000 OA
ATOM     33  H   UNL     1       3.045   7.027  16.223  0.00  0.00    +0.000 HD
ENDBRANCH   6  32
BRANCH   3  34
ATOM     34  C   UNL     1       3.401   2.505  20.058  0.00  0.00    +0.000 C 
BRANCH  34  35
ATOM     35  C   UNL     1       4.587   1.579  20.294  0.00  0.00    +0.000 C 
ATOM     36  O   UNL     1       5.341   1.702  21.253  0.00  0.00    +0.000 OA
BRANCH  35  37
ATOM     37  O   UNL     1       4.797   0.648  19.341  0.00  0.00    +0.000 OA
ATOM     38  H   UNL     1       5.184   0.990  18.510  0.00  0.00    +0.000 HD
ENDBRANCH  35  37
ENDBRANCH  34  35
BRANCH  34  39
ATOM     39  C   UNL     1       2.225   1.692  19.491  0.00  0.00    +0.000 C 
BRANCH  39  40
ATOM     40  C   UNL     1       0.954   2.497  19.357  0.00  0.00    +0.000 C 
ATOM     41  O   UNL     1       0.392   2.702  18.291  0.00  0.00    +0.000 OA
BRANCH  40  42
ATOM     42  O   UNL     1       0.465   2.961  20.526  0.00  0.00    +0.000 OA
ATOM     43  H   UNL     1       1.130   3.410  21.100  0.00  0.00    +0.000 HD
ENDBRANCH  40  42
ENDBRANCH  39  40
ENDBRANCH  34  39
ENDBRANCH   3  34
TORSDOF 11
ENDMDL
MODEL 5
REMARK VINA RESULT:      -8.7      1.516      1.885
REMARK  Name = 
REMARK  11 active torsions:
REMARK  status: ('A' for Active; 'I' for Inactive)
REMARK    1  A    between atoms: C_2  and  C_4
REMARK    2  A    between atoms: C_9  and  C_10
REMARK    3  A    between atoms: C_12  and  C_13
REMARK    4  A    between atoms: C_13  and  C_14
REMARK    5  A    between atoms: C_13  and  C_18
REMARK    6  A    between atoms: C_14  and  C_15
REMARK    7  A    between atoms: C_15  and  O_17
REMARK    8  A    between atoms: C_18  and  O_20
REMARK    9  A    between atoms: C_22  and  C_23
REMARK   10  A    between atoms: C_29  and  O_30
REMARK   11  A    between atoms: C_31  and  O_32
REMARK                            x       y       z     vdW  Elec       q    Type
REMARK                         _______ _______ _______ _____ _____    ______ ____
ROOT
ATOM      1  C   UNL     1       2.136   7.167  19.567  0.00  0.00    +0.000 A 
ATOM      2  C   UNL     1       1.558   6.092  20.251  0.00  0.00    +0.000 A 
ATOM      3  C   UNL     1       2.032   4.783  20.078  0.00  0.00    +0.000 A 
ATOM      4  C   UNL     1       3.168   4.587  19.265  0.00  0.00    +0.000 A 
ATOM      5  C   UNL     1       3.829   5.643  18.592  0.00  0.00    +0.000 A 
ATOM      6  C   UNL     1       3.238   6.920  18.720  0.00  0.00    +0.000 A 
ENDROOT
BRANCH   1  12
ATOM      7  C   UNL     1      -0.047  12.718  19.894  0.00  0.00    +0.000 A 
ATOM      8  C   UNL     1      -0.245  12.389  21.243  0.00  0.00    +0.000 A 
ATOM      9  C   UNL     1       0.087  11.125  21.737  0.00  0.00    +0.000 A 
ATOM     10  C   UNL     1       0.651  10.236  20.824  0.00  0.00    +0.000 A 
ATOM     11  N   UNL     1       1.090   8.950  20.954  0.00  0.00    +0.000 N 
ATOM     12  C   UNL     1       1.590   8.517  19.748  0.00  0.00    +0.000 A 
ATOM     13  N   UNL     1       1.485   9.475  18.842  0.00  0.00    +0.000 NA
ATOM     14  C   UNL     1       0.888  10.536  19.489  0.00  0.00    +0.000 A 
ATOM     15  C   UNL     1       0.519  11.795  18.997  0.00  0.00    +0.000 A 
ATOM     16  H   UNL     1       1.035   8.365  21.776  0.00  0.00    +0.000 HD
BRANCH   7  18
ATOM     17  N   UNL     1      -1.629  14.512  19.651  0.00  0.00    +0.000 NA
ATOM     18  C   UNL     1      -0.436  14.073  19.416  0.00  0.00    +0.000 C 
ATOM     19  N   UNL     1       0.453  14.837  18.718  0.00  0.00    +0.000 N 
ATOM     20  H   UNL     1      -1.723  15.465  19.299  0.00  0.00    +0.000 HD
ATOM     21  H   UNL     1       0.047  15.570  18.148  0.00  0.00    +0.000 HD
ATOM     22  H   UNL     1       1.167  14.323  18.212  0.00  0.00    +0.000 HD
ENDBRANCH   7  18
ENDBRANCH   1  12
BRANCH   5  23
ATOM     23  C   UNL     1       5.058   5.359  17.783  0.00  0.00    +0.000 A 
ATOM     24  C   UNL     1       4.976   5.248  16.380  0.00  0.00    +0.000 A 
ATOM     25  C   UNL     1       6.097   4.954  15.606  0.00  0.00    +0.000 A 
ATOM     26  F   UNL     1       5.969   4.834  14.279  0.00  0.00    +0.000 F 
ATOM     27  C   UNL     1       7.348   4.786  16.181  0.00  0.00    +0.000 A 
ATOM     28  C   UNL     1       7.477   4.890  17.559  0.00  0.00    +0.000 A 
ATOM     29  C   UNL     1       6.347   5.146  18.341  0.00  0.00    +0.000 A 
BRANCH  29  30
ATOM     30  O   UNL     1       6.521   5.213  19.703  0.00  0.00    +0.000 OA
ATOM     31  H   UNL     1       5.754   4.800  20.142  0.00  0.00    +0.000 HD
ENDBRANCH  29  30
ENDBRANCH   5  23
BRANCH   6  32
ATOM     32  O   UNL     1       3.696   7.992  17.984  0.00  0.00    +0.000 OA
ATOM     33  H   UNL     1       3.103   8.738  18.200  0.00  0.00    +0.000 HD
ENDBRANCH   6  32
BRANCH   3  34
ATOM     34  C   UNL     1       1.251   3.631  20.702  0.00  0.00    +0.000 C 
BRANCH  34  35
ATOM     35  C   UNL     1       2.015   2.701  21.634  0.00  0.00    +0.000 C 
ATOM     36  O   UNL     1       3.217   2.493  21.522  0.00  0.00    +0.000 OA
BRANCH  35  37
ATOM     37  O   UNL     1       1.268   2.064  22.561  0.00  0.00    +0.000 OA
ATOM     38  H   UNL     1       1.710   1.928  23.422  0.00  0.00    +0.000 HD
ENDBRANCH  35  37
ENDBRANCH  34  35
BRANCH  34  39
ATOM     39  C   UNL     1       0.514   2.796  19.641  0.00  0.00    +0.000 C 
BRANCH  39  40
ATOM     40  C   UNL     1       1.405   2.352  18.505  0.00  0.00    +0.000 C 
ATOM     41  O   UNL     1       1.457   2.920  17.424  0.00  0.00    +0.000 OA
BRANCH  40  42
ATOM     42  O   UNL     1       2.168   1.276  18.787  0.00  0.00    +0.000 OA
ATOM     43  H   UNL     1       3.135   1.408  18.638  0.00  0.00    +0.000 HD
ENDBRANCH  40  42
ENDBRANCH  39  40
ENDBRANCH  34  39
ENDBRANCH   3  34
TORSDOF 11
ENDMDL
MODEL 6
REMARK VINA RESULT:      -8.7      1.061      2.419
REMARK  Name = 
REMARK  11 active torsions:
REMARK  status: ('A' for Active; 'I' for Inactive)
REMARK    1  A    between atoms: C_2  and  C_4
REMARK    2  A    between atoms: C_9  and  C_10
REMARK    3  A    between atoms: C_12  and  C_13
REMARK    4  A    between atoms: C_13  and  C_14
REMARK    5  A    between atoms: C_13  and  C_18
REMARK    6  A    between atoms: C_14  and  C_15
REMARK    7  A    between atoms: C_15  and  O_17
REMARK    8  A    between atoms: C_18  and  O_20
REMARK    9  A    between atoms: C_22  and  C_23
REMARK   10  A    between atoms: C_29  and  O_30
REMARK   11  A    between atoms: C_31  and  O_32
REMARK                            x       y       z     vdW  Elec       q    Type
REMARK                         _______ _______ _______ _____ _____    ______ ____
ROOT
ATOM      1  C   UNL     1       2.825   6.309  18.651  0.00  0.00    +0.000 A 
ATOM      2  C   UNL     1       2.542   5.129  19.347  0.00  0.00    +0.000 A 
ATOM      3  C   UNL     1       3.084   3.899  18.940  0.00  0.00    +0.000 A 
ATOM      4  C   UNL     1       3.995   3.896  17.864  0.00  0.00    +0.000 A 
ATOM      5  C   UNL     1       4.362   5.066  17.157  0.00  0.00    +0.000 A 
ATOM      6  C   UNL     1       3.700   6.253  17.546  0.00  0.00    +0.000 A 
ENDROOT
BRANCH   1  12
ATOM      7  C   UNL     1       0.330  11.291  20.805  0.00  0.00    +0.000 A 
ATOM      8  C   UNL     1       0.478  11.745  19.487  0.00  0.00    +0.000 A 
ATOM      9  C   UNL     1       1.067  10.942  18.507  0.00  0.00    +0.000 A 
ATOM     10  C   UNL     1       1.460   9.666  18.909  0.00  0.00    +0.000 A 
ATOM     11  N   UNL     1       2.051   8.637  18.234  0.00  0.00    +0.000 N 
ATOM     12  C   UNL     1       2.212   7.569  19.086  0.00  0.00    +0.000 A 
ATOM     13  N   UNL     1       1.752   7.873  20.288  0.00  0.00    +0.000 NA
ATOM     14  C   UNL     1       1.304   9.174  20.198  0.00  0.00    +0.000 A 
ATOM     15  C   UNL     1       0.743  10.001  21.180  0.00  0.00    +0.000 A 
ATOM     16  H   UNL     1       2.370   8.638  17.275  0.00  0.00    +0.000 HD
BRANCH   7  18
ATOM     17  N   UNL     1      -0.133  13.473  21.703  0.00  0.00    +0.000 NA
ATOM     18  C   UNL     1      -0.287  12.195  21.815  0.00  0.00    +0.000 C 
ATOM     19  N   UNL     1      -0.993  11.676  22.862  0.00  0.00    +0.000 N 
ATOM     20  H   UNL     1      -0.648  13.951  22.443  0.00  0.00    +0.000 HD
ATOM     21  H   UNL     1      -1.093  12.285  23.666  0.00  0.00    +0.000 HD
ATOM     22  H   UNL     1      -0.736  10.734  23.137  0.00  0.00    +0.000 HD
ENDBRANCH   7  18
ENDBRANCH   1  12
BRANCH   5  23
ATOM     23  C   UNL     1       5.373   4.986  16.054  0.00  0.00    +0.000 A 
ATOM     24  C   UNL     1       5.054   4.338  14.843  0.00  0.00    +0.000 A 
ATOM     25  C   UNL     1       5.986   4.222  13.812  0.00  0.00    +0.000 A 
ATOM     26  F   UNL     1       5.648   3.576  12.689  0.00  0.00    +0.000 F 
ATOM     27  C   UNL     1       7.257   4.764  13.923  0.00  0.00    +0.000 A 
ATOM     28  C   UNL     1       7.614   5.414  15.097  0.00  0.00    +0.000 A 
ATOM     29  C   UNL     1       6.694   5.498  16.146  0.00  0.00    +0.000 A 
BRANCH  29  30
ATOM     30  O   UNL     1       7.104   6.128  17.297  0.00  0.00    +0.000 OA
ATOM     31  H   UNL     1       7.153   5.473  18.018  0.00  0.00    +0.000 HD
ENDBRANCH  29  30
ENDBRANCH   5  23
BRANCH   6  32
ATOM     32  O   UNL     1       3.854   7.420  16.827  0.00  0.00    +0.000 OA
ATOM     33  H   UNL     1       3.284   8.081  17.266  0.00  0.00    +0.000 HD
ENDBRANCH   6  32
BRANCH   3  34
ATOM     34  C   UNL     1       2.597   2.623  19.619  0.00  0.00    +0.000 C 
BRANCH  34  35
ATOM     35  C   UNL     1       1.104   2.509  19.891  0.00  0.00    +0.000 C 
ATOM     36  O   UNL     1       0.290   2.242  19.015  0.00  0.00    +0.000 OA
BRANCH  35  37
ATOM     37  O   UNL     1       0.720   2.786  21.155  0.00  0.00    +0.000 OA
ATOM     38  H   UNL     1       0.624   3.738  21.356  0.00  0.00    +0.000 HD
ENDBRANCH  35  37
ENDBRANCH  34  35
BRANCH  34  39
ATOM     39  C   UNL     1       3.376   2.328  20.912  0.00  0.00    +0.000 C 
BRANCH  39  40
ATOM     40  C   UNL     1       4.669   1.585  20.674  0.00  0.00    +0.000 C 
ATOM     41  O   UNL     1       5.527   1.428  21.530  0.00  0.00    +0.000 OA
BRANCH  40  42
ATOM     42  O   UNL     1       4.797   1.080  19.430  0.00  0.00    +0.000 OA
ATOM     43  H   UNL     1       5.618   1.357  18.957  0.00  0.00    +0.000 HD
ENDBRANCH  40  42
ENDBRANCH  39  40
ENDBRANCH  34  39
ENDBRANCH   3  34
TORSDOF 11
ENDMDL
MODEL 7
REMARK VINA RESULT:      -8.6      5.205     10.167
REMARK  Name = 
REMARK  11 active torsions:
REMARK  status: ('A' for Active; 'I' for Inactive)
REMARK    1  A    between atoms: C_2  and  C_4
REMARK    2  A    between atoms: C_9  and  C_10
REMARK    3  A    between atoms: C_12  and  C_13
REMARK    4  A    between atoms: C_13  and  C_14
REMARK    5  A    between atoms: C_13  and  C_18
REMARK    6  A    between atoms: C_14  and  C_15
REMARK    7  A    between atoms: C_15  and  O_17
REMARK    8  A    between atoms: C_18  and  O_20
REMARK    9  A    between atoms: C_22  and  C_23
REMARK   10  A    between atoms: C_29  and  O_30
REMARK   11  A    between atoms: C_31  and  O_32
REMARK                            x       y       z     vdW  Elec       q    Type
REMARK                         _______ _______ _______ _____ _____    ______ ____
ROOT
ATOM      1  C   UNL     1       0.293   9.852  18.877  0.00  0.00    +0.000 A 
ATOM      2  C   UNL     1      -0.628  10.036  17.840  0.00  0.00    +0.000 A 
ATOM      3  C   UNL     1      -1.667  10.973  17.951  0.00  0.00    +0.000 A 
ATOM      4  C   UNL     1      -1.708  11.791  19.099  0.00  0.00    +0.000 A 
ATOM      5  C   UNL     1      -0.771  11.687  20.156  0.00  0.00    +0.000 A 
ATOM      6  C   UNL     1       0.184  10.653  20.033  0.00  0.00    +0.000 A 
ENDROOT
BRANCH   1  12
ATOM      7  C   UNL     1       4.406   5.527  18.630  0.00  0.00    +0.000 A 
ATOM      8  C   UNL     1       4.835   6.219  17.490  0.00  0.00    +0.000 A 
ATOM      9  C   UNL     1       4.171   7.366  17.045  0.00  0.00    +0.000 A 
ATOM     10  C   UNL     1       3.090   7.790  17.818  0.00  0.00    +0.000 A 
ATOM     11  N   UNL     1       2.235   8.845  17.689  0.00  0.00    +0.000 N 
ATOM     12  C   UNL     1       1.344   8.838  18.738  0.00  0.00    +0.000 A 
ATOM     13  N   UNL     1       1.592   7.814  19.536  0.00  0.00    +0.000 NA
ATOM     14  C   UNL     1       2.655   7.146  18.968  0.00  0.00    +0.000 A 
ATOM     15  C   UNL     1       3.309   5.978  19.384  0.00  0.00    +0.000 A 
ATOM     16  H   UNL     1       2.203   9.518  16.936  0.00  0.00    +0.000 HD
BRANCH   7  18
ATOM     17  N   UNL     1       6.364   4.131  18.672  0.00  0.00    +0.000 NA
ATOM     18  C   UNL     1       5.139   4.300  19.049  0.00  0.00    +0.000 C 
ATOM     19  N   UNL     1       4.515   3.353  19.809  0.00  0.00    +0.000 N 
ATOM     20  H   UNL     1       6.734   3.269  19.074  0.00  0.00    +0.000 HD
ATOM     21  H   UNL     1       4.927   2.427  19.777  0.00  0.00    +0.000 HD
ATOM     22  H   UNL     1       3.505   3.316  19.717  0.00  0.00    +0.000 HD
ENDBRANCH   7  18
ENDBRANCH   1  12
BRANCH   5  23
ATOM     23  C   UNL     1      -0.856  12.624  21.322  0.00  0.00    +0.000 A 
ATOM     24  C   UNL     1      -1.850  12.448  22.307  0.00  0.00    +0.000 A 
ATOM     25  C   UNL     1      -1.971  13.322  23.385  0.00  0.00    +0.000 A 
ATOM     26  F   UNL     1      -2.945  13.131  24.283  0.00  0.00    +0.000 F 
ATOM     27  C   UNL     1      -1.099  14.388  23.552  0.00  0.00    +0.000 A 
ATOM     28  C   UNL     1      -0.102  14.599  22.609  0.00  0.00    +0.000 A 
ATOM     29  C   UNL     1      -0.003  13.745  21.506  0.00  0.00    +0.000 A 
BRANCH  29  30
ATOM     30  O   UNL     1       0.983  14.011  20.587  0.00  0.00    +0.000 OA
ATOM     31  H   UNL     1       1.631  14.623  20.983  0.00  0.00    +0.000 HD
ENDBRANCH  29  30
ENDBRANCH   5  23
BRANCH   6  32
ATOM     32  O   UNL     1       1.043  10.353  21.070  0.00  0.00    +0.000 OA
ATOM     33  H   UNL     1       1.940  10.550  20.738  0.00  0.00    +0.000 HD
ENDBRANCH   6  32
BRANCH   3  34
ATOM     34  C   UNL     1      -2.747  11.003  16.874  0.00  0.00    +0.000 C 
BRANCH  34  35
ATOM     35  C   UNL     1      -4.167  11.316  17.325  0.00  0.00    +0.000 C 
ATOM     36  O   UNL     1      -4.771  10.624  18.136  0.00  0.00    +0.000 OA
BRANCH  35  37
ATOM     37  O   UNL     1      -4.748  12.375  16.724  0.00  0.00    +0.000 OA
ATOM     38  H   UNL     1      -4.141  13.111  16.510  0.00  0.00    +0.000 HD
ENDBRANCH  35  37
ENDBRANCH  34  35
BRANCH  34  39
ATOM     39  C   UNL     1      -2.751   9.717  16.030  0.00  0.00    +0.000 C 
BRANCH  39  40
ATOM     40  C   UNL     1      -3.192   9.942  14.603  0.00  0.00    +0.000 C 
ATOM     41  O   UNL     1      -2.431   9.911  13.647  0.00  0.00    +0.000 OA
BRANCH  40  42
ATOM     42  O   UNL     1      -4.515  10.161  14.459  0.00  0.00    +0.000 OA
ATOM     43  H   UNL     1      -4.811  10.293  13.527  0.00  0.00    +0.000 HD
ENDBRANCH  40  42
ENDBRANCH  39  40
ENDBRANCH  34  39
ENDBRANCH   3  34
TORSDOF 11
ENDMDL
MODEL 8
REMARK VINA RESULT:      -8.6      1.299      1.966
REMARK  Name = 
REMARK  11 active torsions:
REMARK  status: ('A' for Active; 'I' for Inactive)
REMARK    1  A    between atoms: C_2  and  C_4
REMARK    2  A    between atoms: C_9  and  C_10
REMARK    3  A    between atoms: C_12  and  C_13
REMARK    4  A    between atoms: C_13  and  C_14
REMARK    5  A    between atoms: C_13  and  C_18
REMARK    6  A    between atoms: C_14  and  C_15
REMARK    7  A    between atoms: C_15  and  O_17
REMARK    8  A    between atoms: C_18  and  O_20
REMARK    9  A    between atoms: C_22  and  C_23
REMARK   10  A    between atoms: C_29  and  O_30
REMARK   11  A    between atoms: C_31  and  O_32
REMARK                            x       y       z     vdW  Elec       q    Type
REMARK                         _______ _______ _______ _____ _____    ______ ____
ROOT
ATOM      1  C   UNL     1       2.741   6.759  18.398  0.00  0.00    +0.000 A 
ATOM      2  C   UNL     1       2.314   5.629  19.104  0.00  0.00    +0.000 A 
ATOM      3  C   UNL     1       2.779   4.347  18.770  0.00  0.00    +0.000 A 
ATOM      4  C   UNL     1       3.760   4.235  17.763  0.00  0.00    +0.000 A 
ATOM      5  C   UNL     1       4.270   5.348  17.053  0.00  0.00    +0.000 A 
ATOM      6  C   UNL     1       3.683   6.596  17.360  0.00  0.00    +0.000 A 
ENDROOT
BRANCH   1  12
ATOM      7  C   UNL     1       0.645  12.251  19.460  0.00  0.00    +0.000 A 
ATOM      8  C   UNL     1       0.304  11.707  20.705  0.00  0.00    +0.000 A 
ATOM      9  C   UNL     1       0.558  10.366  21.005  0.00  0.00    +0.000 A 
ATOM     10  C   UNL     1       1.196   9.624  20.012  0.00  0.00    +0.000 A 
ATOM     11  N   UNL     1       1.593   8.319  19.961  0.00  0.00    +0.000 N 
ATOM     12  C   UNL     1       2.206   8.078  18.754  0.00  0.00    +0.000 A 
ATOM     13  N   UNL     1       2.213   9.178  18.020  0.00  0.00    +0.000 NA
ATOM     14  C   UNL     1       1.574  10.136  18.778  0.00  0.00    +0.000 A 
ATOM     15  C   UNL     1       1.283  11.473  18.477  0.00  0.00    +0.000 A 
ATOM     16  H   UNL     1       1.442   7.606  20.661  0.00  0.00    +0.000 HD
BRANCH   7  18
ATOM     17  N   UNL     1       1.228  14.584  19.426  0.00  0.00    +0.000 NA
ATOM     18  C   UNL     1       0.334  13.681  19.186  0.00  0.00    +0.000 C 
ATOM     19  N   UNL     1      -0.892  14.038  18.703  0.00  0.00    +0.000 N 
ATOM     20  H   UNL     1       0.878  15.501  19.146  0.00  0.00    +0.000 HD
ATOM     21  H   UNL     1      -1.156  15.004  18.853  0.00  0.00    +0.000 HD
ATOM     22  H   UNL     1      -1.651  13.404  18.931  0.00  0.00    +0.000 HD
ENDBRANCH   7  18
ENDBRANCH   1  12
BRANCH   5  23
ATOM     23  C   UNL     1       5.345   5.150  16.028  0.00  0.00    +0.000 A 
ATOM     24  C   UNL     1       5.107   4.349  14.892  0.00  0.00    +0.000 A 
ATOM     25  C   UNL     1       6.098   4.123  13.939  0.00  0.00    +0.000 A 
ATOM     26  F   UNL     1       5.835   3.336  12.888  0.00  0.00    +0.000 F 
ATOM     27  C   UNL     1       7.354   4.700  14.053  0.00  0.00    +0.000 A 
ATOM     28  C   UNL     1       7.633   5.499  15.153  0.00  0.00    +0.000 A 
ATOM     29  C   UNL     1       6.652   5.696  16.130  0.00  0.00    +0.000 A 
BRANCH  29  30
ATOM     30  O   UNL     1       6.985   6.473  17.213  0.00  0.00    +0.000 OA
ATOM     31  H   UNL     1       6.329   7.188  17.306  0.00  0.00    +0.000 HD
ENDBRANCH  29  30
ENDBRANCH   5  23
BRANCH   6  32
ATOM     32  O   UNL     1       3.983   7.723  16.624  0.00  0.00    +0.000 OA
ATOM     33  H   UNL     1       4.914   7.620  16.346  0.00  0.00    +0.000 HD
ENDBRANCH   6  32
BRANCH   3  34
ATOM     34  C   UNL     1       2.143   3.137  19.446  0.00  0.00    +0.000 C 
BRANCH  34  35
ATOM     35  C   UNL     1       1.269   2.239  18.581  0.00  0.00    +0.000 C 
ATOM     36  O   UNL     1       0.077   2.063  18.803  0.00  0.00    +0.000 OA
BRANCH  35  37
ATOM     37  O   UNL     1       1.908   1.593  17.582  0.00  0.00    +0.000 OA
ATOM     38  H   UNL     1       2.436   2.168  16.992  0.00  0.00    +0.000 HD
ENDBRANCH  35  37
ENDBRANCH  34  35
BRANCH  34  39
ATOM     39  C   UNL     1       1.370   3.529  20.717  0.00  0.00    +0.000 C 
BRANCH  39  40
ATOM     40  C   UNL     1       1.711   2.672  21.912  0.00  0.00    +0.000 C 
ATOM     41  O   UNL     1       0.885   2.282  22.724  0.00  0.00    +0.000 OA
BRANCH  40  42
ATOM     42  O   UNL     1       3.017   2.345  22.005  0.00  0.00    +0.000 OA
ATOM     43  H   UNL     1       3.472   2.221  21.138  0.00  0.00    +0.000 HD
ENDBRANCH  40  42
ENDBRANCH  39  40
ENDBRANCH  34  39
ENDBRANCH   3  34
TORSDOF 11
ENDMDL
MODEL 9
REMARK VINA RESULT:      -8.5      5.157     10.045
REMARK  Name = 
REMARK  11 active torsions:
REMARK  status: ('A' for Active; 'I' for Inactive)
REMARK    1  A    between atoms: C_2  and  C_4
REMARK    2  A    between atoms: C_9  and  C_10
REMARK    3  A    between atoms: C_12  and  C_13
REMARK    4  A    between atoms: C_13  and  C_14
REMARK    5  A    between atoms: C_13  and  C_18
REMARK    6  A    between atoms: C_14  and  C_15
REMARK    7  A    between atoms: C_15  and  O_17
REMARK    8  A    between atoms: C_18  and  O_20
REMARK    9  A    between atoms: C_22  and  C_23
REMARK   10  A    between atoms: C_29  and  O_30
REMARK   11  A    between atoms: C_31  and  O_32
REMARK                            x       y       z     vdW  Elec       q    Type
REMARK                         _______ _______ _______ _____ _____    ______ ____
ROOT
ATOM      1  C   UNL     1       0.334   9.803  18.717  0.00  0.00    +0.000 A 
ATOM      2  C   UNL     1      -0.577  10.003  17.674  0.00  0.00    +0.000 A 
ATOM      3  C   UNL     1      -1.638  10.913  17.803  0.00  0.00    +0.000 A 
ATOM      4  C   UNL     1      -1.713  11.689  18.978  0.00  0.00    +0.000 A 
ATOM      5  C   UNL     1      -0.788  11.569  20.043  0.00  0.00    +0.000 A 
ATOM      6  C   UNL     1       0.192  10.561  19.898  0.00  0.00    +0.000 A 
ENDROOT
BRANCH   1  12
ATOM      7  C   UNL     1       4.844   6.009  17.743  0.00  0.00    +0.000 A 
ATOM      8  C   UNL     1       4.391   5.416  18.929  0.00  0.00    +0.000 A 
ATOM      9  C   UNL     1       3.309   5.947  19.637  0.00  0.00    +0.000 A 
ATOM     10  C   UNL     1       2.697   7.067  19.078  0.00  0.00    +0.000 A 
ATOM     11  N   UNL     1       1.638   7.827  19.484  0.00  0.00    +0.000 N 
ATOM     12  C   UNL     1       1.410   8.819  18.558  0.00  0.00    +0.000 A 
ATOM     13  N   UNL     1       2.287   8.730  17.572  0.00  0.00    +0.000 NA
ATOM     14  C   UNL     1       3.101   7.664  17.891  0.00  0.00    +0.000 A 
ATOM     15  C   UNL     1       4.208   7.143  17.208  0.00  0.00    +0.000 A 
ATOM     16  H   UNL     1       1.110   7.732  20.340  0.00  0.00    +0.000 HD
BRANCH   7  18
ATOM     17  N   UNL     1       6.418   4.231  17.365  0.00  0.00    +0.000 NA
ATOM     18  C   UNL     1       6.013   5.414  17.039  0.00  0.00    +0.000 C 
ATOM     19  N   UNL     1       6.665   6.121  16.069  0.00  0.00    +0.000 N 
ATOM     20  H   UNL     1       7.195   3.953  16.765  0.00  0.00    +0.000 HD
ATOM     21  H   UNL     1       7.613   5.823  15.874  0.00  0.00    +0.000 HD
ATOM     22  H   UNL     1       6.598   7.131  16.147  0.00  0.00    +0.000 HD
ENDBRANCH   7  18
ENDBRANCH   1  12
BRANCH   5  23
ATOM     23  C   UNL     1      -0.909  12.463  21.240  0.00  0.00    +0.000 A 
ATOM     24  C   UNL     1      -1.908  12.227  22.206  0.00  0.00    +0.000 A 
ATOM     25  C   UNL     1      -2.063  13.060  23.313  0.00  0.00    +0.000 A 
ATOM     26  F   UNL     1      -3.041  12.813  24.193  0.00  0.00    +0.000 F 
ATOM     27  C   UNL     1      -1.222  14.142  23.525  0.00  0.00    +0.000 A 
ATOM     28  C   UNL     1      -0.221  14.411  22.602  0.00  0.00    +0.000 A 
ATOM     29  C   UNL     1      -0.089  13.599  21.471  0.00  0.00    +0.000 A 
BRANCH  29  30
ATOM     30  O   UNL     1       0.899  13.922  20.572  0.00  0.00    +0.000 OA
ATOM     31  H   UNL     1       1.769  13.756  20.982  0.00  0.00    +0.000 HD
ENDBRANCH  29  30
ENDBRANCH   5  23
BRANCH   6  32
ATOM     32  O   UNL     1       1.043  10.244  20.936  0.00  0.00    +0.000 OA
ATOM     33  H   UNL     1       0.724  10.751  21.707  0.00  0.00    +0.000 HD
ENDBRANCH   6  32
BRANCH   3  34
ATOM     34  C   UNL     1      -2.704  10.956  16.712  0.00  0.00    +0.000 C 
BRANCH  34  35
ATOM     35  C   UNL     1      -4.136  11.222  17.153  0.00  0.00    +0.000 C 
ATOM     36  O   UNL     1      -4.742  10.478  17.916  0.00  0.00    +0.000 OA
BRANCH  35  37
ATOM     37  O   UNL     1      -4.726  12.302  16.598  0.00  0.00    +0.000 OA
ATOM     38  H   UNL     1      -4.355  13.162  16.879  0.00  0.00    +0.000 HD
ENDBRANCH  35  37
ENDBRANCH  34  35
BRANCH  34  39
ATOM     39  C   UNL     1      -2.668   9.701  15.824  0.00  0.00    +0.000 C 
BRANCH  39  40
ATOM     40  C   UNL     1      -3.231   9.931  14.442  0.00  0.00    +0.000 C 
ATOM     41  O   UNL     1      -4.410  10.171  14.223  0.00  0.00    +0.000 OA
BRANCH  40  42
ATOM     42  O   UNL     1      -2.316   9.873  13.453  0.00  0.00    +0.000 OA
ATOM     43  H   UNL     1      -1.639   9.162  13.560  0.00  0.00    +0.000 HD
ENDBRANCH  40  42
ENDBRANCH  39  40
ENDBRANCH  34  39
ENDBRANCH   3  34
TORSDOF 11
ENDMDL
