MODEL 1
REMARK VINA RESULT:      -9.6      0.000      0.000
REMARK  Name = 
REMARK  9 active torsions:
REMARK  status: ('A' for Active; 'I' for Inactive)
REMARK    1  A    between atoms: C_1  and  C_2
REMARK    2  A    between atoms: C_2  and  C_3
REMARK    3  A    between atoms: N_9  and  C_10
REMARK    4  A    between atoms: C_13  and  C_14
REMARK    5  A    between atoms: C_14  and  C_15
REMARK    6  A    between atoms: C_15  and  C_16
REMARK    7  A    between atoms: C_19  and  N_20
REMARK    8  A    between atoms: C_23  and  C_24
REMARK    9  A    between atoms: C_23  and  C_25
REMARK                            x       y       z     vdW  Elec       q    Type
REMARK                         _______ _______ _______ _____ _____    ______ ____
ROOT
ATOM      1  C   UNL     1       0.538  10.459  19.044  0.00  0.00    +0.000 C 
ENDROOT
BRANCH   1   5
ATOM      2  C   UNL     1       2.950   6.876  18.882  0.00  0.00    +0.000 A 
ATOM      3  C   UNL     1       2.280   7.224  20.065  0.00  0.00    +0.000 A 
ATOM      4  C   UNL     1       1.478   8.367  20.113  0.00  0.00    +0.000 A 
ATOM      5  C   UNL     1       1.364   9.203  18.988  0.00  0.00    +0.000 A 
ATOM      6  C   UNL     1       2.041   8.866  17.812  0.00  0.00    +0.000 A 
ATOM      7  C   UNL     1       2.820   7.713  17.756  0.00  0.00    +0.000 A 
BRANCH   2  16
ATOM      8  C   UNL     1       0.219   2.828  19.160  0.00  0.00    +0.000 C 
ATOM      9  C   UNL     1       1.564   2.899  19.876  0.00  0.00    +0.000 C 
ATOM     10  C   UNL     1       1.360   2.756  21.393  0.00  0.00    +0.000 C 
ATOM     11  N   UNL     1       2.402   1.807  19.389  0.00  0.00    +0.000 NA
ATOM     12  C   UNL     1       3.529   1.977  18.785  0.00  0.00    +0.000 C 
ATOM     13  N   UNL     1       4.235   0.854  18.291  0.00  0.00    +0.000 N 
ATOM     14  N   UNL     1       4.039   3.284  18.583  0.00  0.00    +0.000 N 
ATOM     15  C   UNL     1       3.279   4.395  19.019  0.00  0.00    +0.000 C 
ATOM     16  N   UNL     1       3.782   5.719  18.855  0.00  0.00    +0.000 N 
ATOM     17  N   UNL     1       2.152   4.203  19.613  0.00  0.00    +0.000 NA
ATOM     18  H   UNL     1       3.863  -0.097  18.426  0.00  0.00    +0.000 HD
ATOM     19  H   UNL     1       5.104   0.981  17.752  0.00  0.00    +0.000 HD
ATOM     20  H   UNL     1       4.930   3.427  18.085  0.00  0.00    +0.000 HD
ATOM     21  H   UNL     1       4.799   5.840  18.739  0.00  0.00    +0.000 HD
ENDBRANCH   2  16
ENDBRANCH   1   5
BRANCH   1  22
ATOM     22  C   UNL     1       1.119  11.430  20.078  0.00  0.00    +0.000 C 
BRANCH  22  23
ATOM     23  C   UNL     1       0.072  11.920  21.039  0.00  0.00    +0.000 A 
ATOM     24  C   UNL     1      -0.413  13.238  20.971  0.00  0.00    +0.000 A 
ATOM     25  C   UNL     1      -1.402  13.673  21.858  0.00  0.00    +0.000 A 
ATOM     26  C   UNL     1      -1.945  12.788  22.799  0.00  0.00    +0.000 A 
ATOM     27  C   UNL     1      -1.445  11.472  22.868  0.00  0.00    +0.000 A 
ATOM     28  C   UNL     1      -0.443  11.047  22.003  0.00  0.00    +0.000 A 
BRANCH  26  29
ATOM     29  N   UNL     1      -2.983  13.227  23.675  0.00  0.00    +0.000 N 
ATOM     30  C   UNL     1      -4.355  13.273  23.277  0.00  0.00    +0.000 C 
ATOM     31  N   UNL     1      -4.665  13.215  22.029  0.00  0.00    +0.000 NA
ATOM     32  C   UNL     1      -6.012  13.309  21.500  0.00  0.00    +0.000 C 
ATOM     33  C   UNL     1      -6.073  14.497  20.531  0.00  0.00    +0.000 C 
ATOM     34  C   UNL     1      -6.317  12.009  20.757  0.00  0.00    +0.000 C 
ATOM     35  N   UNL     1      -7.004  13.497  22.553  0.00  0.00    +0.000 NA
ATOM     36  C   UNL     1      -6.719  13.565  23.809  0.00  0.00    +0.000 C 
ATOM     37  N   UNL     1      -7.756  13.739  24.757  0.00  0.00    +0.000 N 
ATOM     38  N   UNL     1      -5.374  13.462  24.242  0.00  0.00    +0.000 N 
ATOM     39  H   UNL     1      -2.730  13.640  24.587  0.00  0.00    +0.000 HD
ATOM     40  H   UNL     1      -8.733  13.840  24.447  0.00  0.00    +0.000 HD
ATOM     41  H   UNL     1      -7.544  13.763  25.764  0.00  0.00    +0.000 HD
ATOM     42  H   UNL     1      -5.140  13.494  25.247  0.00  0.00    +0.000 HD
ENDBRANCH  26  29
ENDBRANCH  22  23
ENDBRANCH   1  22
TORSDOF 5
ENDMDL
MODEL 2
REMARK VINA RESULT:      -9.4      7.528     10.764
REMARK  Name = 
REMARK  9 active torsions:
REMARK  status: ('A' for Active; 'I' for Inactive)
REMARK    1  A    between atoms: C_1  and  C_2
REMARK    2  A    between atoms: C_2  and  C_3
REMARK    3  A    between atoms: N_9  and  C_10
REMARK    4  A    between atoms: C_13  and  C_14
REMARK    5  A    between atoms: C_14  and  C_15
REMARK    6  A    between atoms: C_15  and  C_16
REMARK    7  A    between atoms: C_19  and  N_20
REMARK    8  A    between atoms: C_23  and  C_24
REMARK    9  A    between atoms: C_23  and  C_25
REMARK                            x       y       z     vdW  Elec       q    Type
REMARK                         _______ _______ _______ _____ _____    ______ ____
ROOT
ATOM      1  C   UNL     1       8.093   8.604  17.614  0.00  0.00    +0.000 C 
ENDROOT
BRANCH   1   5
ATOM      2  C   UNL     1       5.841   4.915  17.649  0.00  0.00    +0.000 A 
ATOM      3  C   UNL     1       5.417   5.994  16.859  0.00  0.00    +0.000 A 
ATOM      4  C   UNL     1       6.156   7.179  16.825  0.00  0.00    +0.000 A 
ATOM      5  C   UNL     1       7.313   7.317  17.611  0.00  0.00    +0.000 A 
ATOM      6  C   UNL     1       7.732   6.248  18.410  0.00  0.00    +0.000 A 
ATOM      7  C   UNL     1       7.009   5.058  18.425  0.00  0.00    +0.000 A 
BRANCH   2  16
ATOM      8  C   UNL     1       1.598   5.740  19.937  0.00  0.00    +0.000 C 
ATOM      9  C   UNL     1       2.332   4.417  20.132  0.00  0.00    +0.000 C 
ATOM     10  C   UNL     1       2.727   4.246  21.607  0.00  0.00    +0.000 C 
ATOM     11  N   UNL     1       1.437   3.333  19.736  0.00  0.00    +0.000 NA
ATOM     12  C   UNL     1       1.687   2.504  18.780  0.00  0.00    +0.000 C 
ATOM     13  N   UNL     1       0.724   1.528  18.429  0.00  0.00    +0.000 N 
ATOM     14  N   UNL     1       2.905   2.594  18.060  0.00  0.00    +0.000 N 
ATOM     15  C   UNL     1       3.820   3.625  18.378  0.00  0.00    +0.000 C 
ATOM     16  N   UNL     1       5.064   3.721  17.690  0.00  0.00    +0.000 N 
ATOM     17  N   UNL     1       3.546   4.448  19.332  0.00  0.00    +0.000 NA
ATOM     18  H   UNL     1      -0.166   1.466  18.943  0.00  0.00    +0.000 HD
ATOM     19  H   UNL     1       0.886   0.901  17.627  0.00  0.00    +0.000 HD
ATOM     20  H   UNL     1       3.102   1.946  17.283  0.00  0.00    +0.000 HD
ATOM     21  H   UNL     1       5.426   2.876  17.224  0.00  0.00    +0.000 HD
ENDBRANCH   2  16
ENDBRANCH   1   5
BRANCH   1  22
ATOM     22  C   UNL     1       8.580   8.925  19.032  0.00  0.00    +0.000 C 
BRANCH  22  23
ATOM     23  C   UNL     1       9.322  10.230  19.090  0.00  0.00    +0.000 A 
ATOM     24  C   UNL     1       9.785  10.747  20.313  0.00  0.00    +0.000 A 
ATOM     25  C   UNL     1      10.493  11.952  20.348  0.00  0.00    +0.000 A 
ATOM     26  C   UNL     1      10.780  12.638  19.160  0.00  0.00    +0.000 A 
ATOM     27  C   UNL     1      10.302  12.119  17.940  0.00  0.00    +0.000 A 
ATOM     28  C   UNL     1       9.576  10.934  17.907  0.00  0.00    +0.000 A 
BRANCH  26  29
ATOM     29  N   UNL     1      11.537  13.846  19.199  0.00  0.00    +0.000 N 
ATOM     30  C   UNL     1      10.944  15.115  19.486  0.00  0.00    +0.000 C 
ATOM     31  N   UNL     1       9.667  15.259  19.414  0.00  0.00    +0.000 NA
ATOM     32  C   UNL     1       8.956  16.505  19.626  0.00  0.00    +0.000 C 
ATOM     33  C   UNL     1       8.156  16.830  18.358  0.00  0.00    +0.000 C 
ATOM     34  C   UNL     1       8.008  16.311  20.810  0.00  0.00    +0.000 C 
ATOM     35  N   UNL     1       9.861  17.611  19.919  0.00  0.00    +0.000 NA
ATOM     36  C   UNL     1      11.143  17.495  19.991  0.00  0.00    +0.000 C 
ATOM     37  N   UNL     1      11.936  18.628  20.292  0.00  0.00    +0.000 N 
ATOM     38  N   UNL     1      11.759  16.238  19.772  0.00  0.00    +0.000 N 
ATOM     39  H   UNL     1      12.523  13.832  18.895  0.00  0.00    +0.000 HD
ATOM     40  H   UNL     1      11.497  19.550  20.427  0.00  0.00    +0.000 HD
ATOM     41  H   UNL     1      12.958  18.541  20.381  0.00  0.00    +0.000 HD
ATOM     42  H   UNL     1      12.782  16.132  19.847  0.00  0.00    +0.000 HD
ENDBRANCH  26  29
ENDBRANCH  22  23
ENDBRANCH   1  22
TORSDOF 5
ENDMDL
MODEL 3
REMARK VINA RESULT:      -9.3      1.186     11.551
REMARK  Name = 
REMARK  9 active torsions:
REMARK  status: ('A' for Active; 'I' for Inactive)
REMARK    1  A    between atoms: C_1  and  C_2
REMARK    2  A    between atoms: C_2  and  C_3
REMARK    3  A    between atoms: N_9  and  C_10
REMARK    4  A    between atoms: C_13  and  C_14
REMARK    5  A    between atoms: C_14  and  C_15
REMARK    6  A    between atoms: C_15  and  C_16
REMARK    7  A    between atoms: C_19  and  N_20
REMARK    8  A    between atoms: C_23  and  C_24
REMARK    9  A    between atoms: C_23  and  C_25
REMARK                            x       y       z     vdW  Elec       q    Type
REMARK                         _______ _______ _______ _____ _____    ______ ____
ROOT
ATOM      1  C   UNL     1      -0.456  10.141  18.438  0.00  0.00    +0.000 C 
ENDROOT
BRANCH   1   5
ATOM      2  C   UNL     1      -2.783  12.526  21.191  0.00  0.00    +0.000 A 
ATOM      3  C   UNL     1      -1.599  11.907  21.620  0.00  0.00    +0.000 A 
ATOM      4  C   UNL     1      -0.831  11.156  20.726  0.00  0.00    +0.000 A 
ATOM      5  C   UNL     1      -1.255  10.983  19.397  0.00  0.00    +0.000 A 
ATOM      6  C   UNL     1      -2.440  11.589  18.970  0.00  0.00    +0.000 A 
ATOM      7  C   UNL     1      -3.194  12.357  19.854  0.00  0.00    +0.000 A 
BRANCH   2  16
ATOM      8  C   UNL     1      -7.456  11.098  20.983  0.00  0.00    +0.000 C 
ATOM      9  C   UNL     1      -7.110  12.569  21.192  0.00  0.00    +0.000 C 
ATOM     10  C   UNL     1      -7.648  13.407  20.022  0.00  0.00    +0.000 C 
ATOM     11  N   UNL     1      -7.729  13.013  22.438  0.00  0.00    +0.000 NA
ATOM     12  C   UNL     1      -7.069  13.458  23.452  0.00  0.00    +0.000 C 
ATOM     13  N   UNL     1      -7.757  13.803  24.641  0.00  0.00    +0.000 N 
ATOM     14  N   UNL     1      -5.657  13.567  23.392  0.00  0.00    +0.000 N 
ATOM     15  C   UNL     1      -4.983  13.146  22.221  0.00  0.00    +0.000 C 
ATOM     16  N   UNL     1      -3.567  13.270  22.121  0.00  0.00    +0.000 N 
ATOM     17  N   UNL     1      -5.662  12.697  21.221  0.00  0.00    +0.000 NA
ATOM     18  H   UNL     1      -8.782  13.715  24.692  0.00  0.00    +0.000 HD
ATOM     19  H   UNL     1      -7.235  14.099  25.478  0.00  0.00    +0.000 HD
ATOM     20  H   UNL     1      -5.122  13.903  24.205  0.00  0.00    +0.000 HD
ATOM     21  H   UNL     1      -3.096  13.952  22.735  0.00  0.00    +0.000 HD
ENDBRANCH   2  16
ENDBRANCH   1   5
BRANCH   1  22
ATOM     22  C   UNL     1       1.044  10.350  18.673  0.00  0.00    +0.000 C 
BRANCH  22  23
ATOM     23  C   UNL     1       1.805   9.055  18.632  0.00  0.00    +0.000 A 
ATOM     24  C   UNL     1       2.607   8.721  17.526  0.00  0.00    +0.000 A 
ATOM     25  C   UNL     1       3.327   7.522  17.512  0.00  0.00    +0.000 A 
ATOM     26  C   UNL     1       3.283   6.660  18.616  0.00  0.00    +0.000 A 
ATOM     27  C   UNL     1       2.468   6.997  19.715  0.00  0.00    +0.000 A 
ATOM     28  C   UNL     1       1.733   8.177  19.719  0.00  0.00    +0.000 A 
BRANCH  26  29
ATOM     29  N   UNL     1       4.052   5.458  18.612  0.00  0.00    +0.000 N 
ATOM     30  C   UNL     1       3.466   4.172  18.829  0.00  0.00    +0.000 C 
ATOM     31  N   UNL     1       2.288   4.080  19.339  0.00  0.00    +0.000 NA
ATOM     32  C   UNL     1       1.614   2.836  19.658  0.00  0.00    +0.000 C 
ATOM     33  C   UNL     1       1.278   2.834  21.156  0.00  0.00    +0.000 C 
ATOM     34  C   UNL     1       0.329   2.772  18.832  0.00  0.00    +0.000 C 
ATOM     35  N   UNL     1       2.435   1.670  19.350  0.00  0.00    +0.000 NA
ATOM     36  C   UNL     1       3.620   1.736  18.844  0.00  0.00    +0.000 C 
ATOM     37  N   UNL     1       4.334   0.545  18.571  0.00  0.00    +0.000 N 
ATOM     38  N   UNL     1       4.206   2.994  18.560  0.00  0.00    +0.000 N 
ATOM     39  H   UNL     1       5.081   5.519  18.570  0.00  0.00    +0.000 HD
ATOM     40  H   UNL     1       3.924  -0.373  18.798  0.00  0.00    +0.000 HD
ATOM     41  H   UNL     1       5.268   0.584  18.139  0.00  0.00    +0.000 HD
ATOM     42  H   UNL     1       5.145   3.054  18.137  0.00  0.00    +0.000 HD
ENDBRANCH  26  29
ENDBRANCH  22  23
ENDBRANCH   1  22
TORSDOF 5
ENDMDL
MODEL 4
REMARK VINA RESULT:      -9.3      3.748     11.836
REMARK  Name = 
REMARK  9 active torsions:
REMARK  status: ('A' for Active; 'I' for Inactive)
REMARK    1  A    between atoms: C_1  and  C_2
REMARK    2  A    between atoms: C_2  and  C_3
REMARK    3  A    between atoms: N_9  and  C_10
REMARK    4  A    between atoms: C_13  and  C_14
REMARK    5  A    between atoms: C_14  and  C_15
REMARK    6  A    between atoms: C_15  and  C_16
REMARK    7  A    between atoms: C_19  and  N_20
REMARK    8  A    between atoms: C_23  and  C_24
REMARK    9  A    between atoms: C_23  and  C_25
REMARK                            x       y       z     vdW  Elec       q    Type
REMARK                         _______ _______ _______ _____ _____    ______ ____
ROOT
ATOM      1  C   UNL     1      -0.367   8.682  21.611  0.00  0.00    +0.000 C 
ENDROOT
BRANCH   1   5
ATOM      2  C   UNL     1      -1.124  12.758  20.388  0.00  0.00    +0.000 A 
ATOM      3  C   UNL     1      -0.889  12.458  21.739  0.00  0.00    +0.000 A 
ATOM      4  C   UNL     1      -0.618  11.146  22.134  0.00  0.00    +0.000 A 
ATOM      5  C   UNL     1      -0.615  10.105  21.189  0.00  0.00    +0.000 A 
ATOM      6  C   UNL     1      -0.861  10.399  19.844  0.00  0.00    +0.000 A 
ATOM      7  C   UNL     1      -1.106  11.711  19.446  0.00  0.00    +0.000 A 
BRANCH   2  16
ATOM      8  C   UNL     1       2.751  14.784  18.197  0.00  0.00    +0.000 C 
ATOM      9  C   UNL     1       1.873  15.614  19.126  0.00  0.00    +0.000 C 
ATOM     10  C   UNL     1       2.696  16.108  20.326  0.00  0.00    +0.000 C 
ATOM     11  N   UNL     1       1.365  16.759  18.376  0.00  0.00    +0.000 NA
ATOM     12  C   UNL     1       0.113  16.987  18.166  0.00  0.00    +0.000 C 
ATOM     13  N   UNL     1      -0.275  18.090  17.369  0.00  0.00    +0.000 N 
ATOM     14  N   UNL     1      -0.869  16.115  18.700  0.00  0.00    +0.000 N 
ATOM     15  C   UNL     1      -0.455  14.976  19.431  0.00  0.00    +0.000 C 
ATOM     16  N   UNL     1      -1.420  14.099  20.004  0.00  0.00    +0.000 N 
ATOM     17  N   UNL     1       0.802  14.763  19.622  0.00  0.00    +0.000 NA
ATOM     18  H   UNL     1       0.435  18.721  16.970  0.00  0.00    +0.000 HD
ATOM     19  H   UNL     1      -1.268  18.246  17.142  0.00  0.00    +0.000 HD
ATOM     20  H   UNL     1      -1.870  16.281  18.521  0.00  0.00    +0.000 HD
ATOM     21  H   UNL     1      -2.370  14.465  20.170  0.00  0.00    +0.000 HD
ENDBRANCH   2  16
ENDBRANCH   1   5
BRANCH   1  22
ATOM     22  C   UNL     1       1.138   8.422  21.740  0.00  0.00    +0.000 C 
BRANCH  22  23
ATOM     23  C   UNL     1       1.724   7.870  20.471  0.00  0.00    +0.000 A 
ATOM     24  C   UNL     1       1.945   8.697  19.356  0.00  0.00    +0.000 A 
ATOM     25  C   UNL     1       2.511   8.174  18.189  0.00  0.00    +0.000 A 
ATOM     26  C   UNL     1       2.896   6.827  18.134  0.00  0.00    +0.000 A 
ATOM     27  C   UNL     1       2.660   6.003  19.252  0.00  0.00    +0.000 A 
ATOM     28  C   UNL     1       2.075   6.518  20.403  0.00  0.00    +0.000 A 
BRANCH  26  29
ATOM     29  N   UNL     1       3.510   6.309  16.955  0.00  0.00    +0.000 N 
ATOM     30  C   UNL     1       4.923   6.135  16.838  0.00  0.00    +0.000 C 
ATOM     31  N   UNL     1       5.714   6.721  17.667  0.00  0.00    +0.000 NA
ATOM     32  C   UNL     1       7.163   6.667  17.616  0.00  0.00    +0.000 C 
ATOM     33  C   UNL     1       7.699   8.099  17.489  0.00  0.00    +0.000 C 
ATOM     34  C   UNL     1       7.655   6.035  18.918  0.00  0.00    +0.000 C 
ATOM     35  N   UNL     1       7.645   5.873  16.491  0.00  0.00    +0.000 NA
ATOM     36  C   UNL     1       6.874   5.281  15.644  0.00  0.00    +0.000 C 
ATOM     37  N   UNL     1       7.439   4.523  14.590  0.00  0.00    +0.000 N 
ATOM     38  N   UNL     1       5.466   5.383  15.767  0.00  0.00    +0.000 N 
ATOM     39  H   UNL     1       2.934   6.164  16.110  0.00  0.00    +0.000 HD
ATOM     40  H   UNL     1       8.461   4.466  14.480  0.00  0.00    +0.000 HD
ATOM     41  H   UNL     1       6.833   4.021  13.926  0.00  0.00    +0.000 HD
ATOM     42  H   UNL     1       4.843   4.895  15.105  0.00  0.00    +0.000 HD
ENDBRANCH  26  29
ENDBRANCH  22  23
ENDBRANCH   1  22
TORSDOF 5
ENDMDL
MODEL 5
REMARK VINA RESULT:      -9.1      3.766     11.869
REMARK  Name = 
REMARK  9 active torsions:
REMARK  status: ('A' for Active; 'I' for Inactive)
REMARK    1  A    between atoms: C_1  and  C_2
REMARK    2  A    between atoms: C_2  and  C_3
REMARK    3  A    between atoms: N_9  and  C_10
REMARK    4  A    between atoms: C_13  and  C_14
REMARK    5  A    between atoms: C_14  and  C_15
REMARK    6  A    between atoms: C_15  and  C_16
REMARK    7  A    between atoms: C_19  and  N_20
REMARK    8  A    between atoms: C_23  and  C_24
REMARK    9  A    between atoms: C_23  and  C_25
REMARK                            x       y       z     vdW  Elec       q    Type
REMARK                         _______ _______ _______ _____ _____    ______ ____
ROOT
ATOM      1  C   UNL     1      -0.463   8.865  21.516  0.00  0.00    +0.000 C 
ENDROOT
BRANCH   1   5
ATOM      2  C   UNL     1      -1.256  12.954  20.361  0.00  0.00    +0.000 A 
ATOM      3  C   UNL     1      -1.284  11.931  19.401  0.00  0.00    +0.000 A 
ATOM      4  C   UNL     1      -1.054  10.604  19.775  0.00  0.00    +0.000 A 
ATOM      5  C   UNL     1      -0.754  10.285  21.111  0.00  0.00    +0.000 A 
ATOM      6  C   UNL     1      -0.714  11.304  22.068  0.00  0.00    +0.000 A 
ATOM      7  C   UNL     1      -0.967  12.622  21.700  0.00  0.00    +0.000 A 
BRANCH   2  16
ATOM      8  C   UNL     1       2.744  14.724  18.174  0.00  0.00    +0.000 C 
ATOM      9  C   UNL     1       1.910  15.615  19.088  0.00  0.00    +0.000 C 
ATOM     10  C   UNL     1       2.753  16.074  20.288  0.00  0.00    +0.000 C 
ATOM     11  N   UNL     1       1.475  16.779  18.321  0.00  0.00    +0.000 NA
ATOM     12  C   UNL     1       0.240  17.076  18.100  0.00  0.00    +0.000 C 
ATOM     13  N   UNL     1      -0.079  18.191  17.287  0.00  0.00    +0.000 N 
ATOM     14  N   UNL     1      -0.795  16.270  18.637  0.00  0.00    +0.000 N 
ATOM     15  C   UNL     1      -0.452  15.117  19.384  0.00  0.00    +0.000 C 
ATOM     16  N   UNL     1      -1.471  14.305  19.960  0.00  0.00    +0.000 N 
ATOM     17  N   UNL     1       0.789  14.834  19.586  0.00  0.00    +0.000 NA
ATOM     18  H   UNL     1       0.670  18.774  16.887  0.00  0.00    +0.000 HD
ATOM     19  H   UNL     1      -1.059  18.402  17.052  0.00  0.00    +0.000 HD
ATOM     20  H   UNL     1      -1.783  16.491  18.449  0.00  0.00    +0.000 HD
ATOM     21  H   UNL     1      -2.399  14.727  20.115  0.00  0.00    +0.000 HD
ENDBRANCH   2  16
ENDBRANCH   1   5
BRANCH   1  22
ATOM     22  C   UNL     1       1.045   8.669  21.712  0.00  0.00    +0.000 C 
BRANCH  22  23
ATOM     23  C   UNL     1       1.702   8.100  20.486  0.00  0.00    +0.000 A 
ATOM     24  C   UNL     1       2.130   6.761  20.450  0.00  0.00    +0.000 A 
ATOM     25  C   UNL     1       2.720   6.239  19.294  0.00  0.00    +0.000 A 
ATOM     26  C   UNL     1       2.857   7.037  18.150  0.00  0.00    +0.000 A 
ATOM     27  C   UNL     1       2.436   8.380  18.199  0.00  0.00    +0.000 A 
ATOM     28  C   UNL     1       1.872   8.906  19.356  0.00  0.00    +0.000 A 
BRANCH  26  29
ATOM     29  N   UNL     1       3.423   6.486  16.961  0.00  0.00    +0.000 N 
ATOM     30  C   UNL     1       4.824   6.236  16.823  0.00  0.00    +0.000 C 
ATOM     31  N   UNL     1       5.658   6.780  17.639  0.00  0.00    +0.000 NA
ATOM     32  C   UNL     1       7.100   6.648  17.567  0.00  0.00    +0.000 C 
ATOM     33  C   UNL     1       7.711   8.049  17.430  0.00  0.00    +0.000 C 
ATOM     34  C   UNL     1       7.578   5.990  18.862  0.00  0.00    +0.000 C 
ATOM     35  N   UNL     1       7.521   5.828  16.435  0.00  0.00    +0.000 NA
ATOM     36  C   UNL     1       6.707   5.278  15.601  0.00  0.00    +0.000 C 
ATOM     37  N   UNL     1       7.214   4.491  14.539  0.00  0.00    +0.000 N 
ATOM     38  N   UNL     1       5.309   5.456  15.745  0.00  0.00    +0.000 N 
ATOM     39  H   UNL     1       2.828   6.373  16.126  0.00  0.00    +0.000 HD
ATOM     40  H   UNL     1       8.230   4.379  14.413  0.00  0.00    +0.000 HD
ATOM     41  H   UNL     1       6.572   4.022  13.884  0.00  0.00    +0.000 HD
ATOM     42  H   UNL     1       4.650   5.003  15.093  0.00  0.00    +0.000 HD
ENDBRANCH  26  29
ENDBRANCH  22  23
ENDBRANCH   1  22
TORSDOF 5
ENDMDL
MODEL 6
REMARK VINA RESULT:      -9.1      3.508     11.843
REMARK  Name = 
REMARK  9 active torsions:
REMARK  status: ('A' for Active; 'I' for Inactive)
REMARK    1  A    between atoms: C_1  and  C_2
REMARK    2  A    between atoms: C_2  and  C_3
REMARK    3  A    between atoms: N_9  and  C_10
REMARK    4  A    between atoms: C_13  and  C_14
REMARK    5  A    between atoms: C_14  and  C_15
REMARK    6  A    between atoms: C_15  and  C_16
REMARK    7  A    between atoms: C_19  and  N_20
REMARK    8  A    between atoms: C_23  and  C_24
REMARK    9  A    between atoms: C_23  and  C_25
REMARK                            x       y       z     vdW  Elec       q    Type
REMARK                         _______ _______ _______ _____ _____    ______ ____
ROOT
ATOM      1  C   UNL     1      -0.321   9.150  22.104  0.00  0.00    +0.000 C 
ENDROOT
BRANCH   1   5
ATOM      2  C   UNL     1      -1.358  13.090  20.661  0.00  0.00    +0.000 A 
ATOM      3  C   UNL     1      -1.094  12.053  19.754  0.00  0.00    +0.000 A 
ATOM      4  C   UNL     1      -0.784  10.772  20.217  0.00  0.00    +0.000 A 
ATOM      5  C   UNL     1      -0.696  10.516  21.596  0.00  0.00    +0.000 A 
ATOM      6  C   UNL     1      -0.947  11.551  22.503  0.00  0.00    +0.000 A 
ATOM      7  C   UNL     1      -1.280  12.822  22.042  0.00  0.00    +0.000 A 
BRANCH   2  16
ATOM      8  C   UNL     1       2.547  14.957  18.383  0.00  0.00    +0.000 C 
ATOM      9  C   UNL     1       1.653  15.853  19.235  0.00  0.00    +0.000 C 
ATOM     10  C   UNL     1       2.456  16.437  20.407  0.00  0.00    +0.000 C 
ATOM     11  N   UNL     1       1.155  16.937  18.393  0.00  0.00    +0.000 NA
ATOM     12  C   UNL     1      -0.095  17.144  18.148  0.00  0.00    +0.000 C 
ATOM     13  N   UNL     1      -0.473  18.184  17.264  0.00  0.00    +0.000 N 
ATOM     14  N   UNL     1      -1.083  16.312  18.731  0.00  0.00    +0.000 N 
ATOM     15  C   UNL     1      -0.678  15.232  19.551  0.00  0.00    +0.000 C 
ATOM     16  N   UNL     1      -1.650  14.397  20.173  0.00  0.00    +0.000 N 
ATOM     17  N   UNL     1       0.576  15.038  19.777  0.00  0.00    +0.000 NA
ATOM     18  H   UNL     1       0.243  18.785  16.830  0.00  0.00    +0.000 HD
ATOM     19  H   UNL     1      -1.462  18.319  17.012  0.00  0.00    +0.000 HD
ATOM     20  H   UNL     1      -2.081  16.461  18.524  0.00  0.00    +0.000 HD
ATOM     21  H   UNL     1      -2.603  14.772  20.297  0.00  0.00    +0.000 HD
ENDBRANCH   2  16
ENDBRANCH   1   5
BRANCH   1  22
ATOM     22  C   UNL     1       1.199   8.960  22.041  0.00  0.00    +0.000 C 
BRANCH  22  23
ATOM     23  C   UNL     1       1.613   8.124  20.863  0.00  0.00    +0.000 A 
ATOM     24  C   UNL     1       1.886   8.715  19.617  0.00  0.00    +0.000 A 
ATOM     25  C   UNL     1       2.292   7.927  18.535  0.00  0.00    +0.000 A 
ATOM     26  C   UNL     1       2.463   6.545  18.694  0.00  0.00    +0.000 A 
ATOM     27  C   UNL     1       2.176   5.960  19.943  0.00  0.00    +0.000 A 
ATOM     28  C   UNL     1       1.749   6.740  21.012  0.00  0.00    +0.000 A 
BRANCH  26  29
ATOM     29  N   UNL     1       2.915   5.753  17.597  0.00  0.00    +0.000 N 
ATOM     30  C   UNL     1       4.297   5.453  17.384  0.00  0.00    +0.000 C 
ATOM     31  N   UNL     1       5.204   6.136  17.991  0.00  0.00    +0.000 NA
ATOM     32  C   UNL     1       6.633   5.964  17.814  0.00  0.00    +0.000 C 
ATOM     33  C   UNL     1       7.228   7.296  17.337  0.00  0.00    +0.000 C 
ATOM     34  C   UNL     1       7.231   5.576  19.166  0.00  0.00    +0.000 C 
ATOM     35  N   UNL     1       6.946   4.923  16.841  0.00  0.00    +0.000 NA
ATOM     36  C   UNL     1       6.056   4.230  16.215  0.00  0.00    +0.000 C 
ATOM     37  N   UNL     1       6.461   3.233  15.295  0.00  0.00    +0.000 N 
ATOM     38  N   UNL     1       4.678   4.460  16.449  0.00  0.00    +0.000 N 
ATOM     39  H   UNL     1       2.244   5.482  16.861  0.00  0.00    +0.000 HD
ATOM     40  H   UNL     1       7.461   3.078  15.102  0.00  0.00    +0.000 HD
ATOM     41  H   UNL     1       5.760   2.652  14.813  0.00  0.00    +0.000 HD
ATOM     42  H   UNL     1       3.961   3.895  15.968  0.00  0.00    +0.000 HD
ENDBRANCH  26  29
ENDBRANCH  22  23
ENDBRANCH   1  22
TORSDOF 5
ENDMDL
MODEL 7
REMARK VINA RESULT:      -9.1      7.451     12.715
REMARK  Name = 
REMARK  9 active torsions:
REMARK  status: ('A' for Active; 'I' for Inactive)
REMARK    1  A    between atoms: C_1  and  C_2
REMARK    2  A    between atoms: C_2  and  C_3
REMARK    3  A    between atoms: N_9  and  C_10
REMARK    4  A    between atoms: C_13  and  C_14
REMARK    5  A    between atoms: C_14  and  C_15
REMARK    6  A    between atoms: C_15  and  C_16
REMARK    7  A    between atoms: C_19  and  N_20
REMARK    8  A    between atoms: C_23  and  C_24
REMARK    9  A    between atoms: C_23  and  C_25
REMARK                            x       y       z     vdW  Elec       q    Type
REMARK                         _______ _______ _______ _____ _____    ______ ____
ROOT
ATOM      1  C   UNL     1       8.692   8.793  19.019  0.00  0.00    +0.000 C 
ENDROOT
BRANCH   1   5
ATOM      2  C   UNL     1      10.575  12.676  19.268  0.00  0.00    +0.000 A 
ATOM      3  C   UNL     1      10.314  12.096  18.017  0.00  0.00    +0.000 A 
ATOM      4  C   UNL     1       9.682  10.853  17.932  0.00  0.00    +0.000 A 
ATOM      5  C   UNL     1       9.334  10.152  19.100  0.00  0.00    +0.000 A 
ATOM      6  C   UNL     1       9.605  10.721  20.348  0.00  0.00    +0.000 A 
ATOM      7  C   UNL     1      10.212  11.971  20.433  0.00  0.00    +0.000 A 
BRANCH   2  16
ATOM      8  C   UNL     1       7.490  16.133  20.831  0.00  0.00    +0.000 C 
ATOM      9  C   UNL     1       8.523  16.454  19.756  0.00  0.00    +0.000 C 
ATOM     10  C   UNL     1       7.819  16.865  18.454  0.00  0.00    +0.000 C 
ATOM     11  N   UNL     1       9.353  17.557  20.233  0.00  0.00    +0.000 NA
ATOM     12  C   UNL     1      10.627  17.474  20.416  0.00  0.00    +0.000 C 
ATOM     13  N   UNL     1      11.334  18.582  20.945  0.00  0.00    +0.000 N 
ATOM     14  N   UNL     1      11.312  16.268  20.123  0.00  0.00    +0.000 N 
ATOM     15  C   UNL     1      10.575  15.150  19.667  0.00  0.00    +0.000 C 
ATOM     16  N   UNL     1      11.241  13.934  19.338  0.00  0.00    +0.000 N 
ATOM     17  N   UNL     1       9.301  15.252  19.498  0.00  0.00    +0.000 NA
ATOM     18  H   UNL     1      10.838  19.457  21.168  0.00  0.00    +0.000 HD
ATOM     19  H   UNL     1      12.339  18.507  21.154  0.00  0.00    +0.000 HD
ATOM     20  H   UNL     1      12.327  16.190  20.284  0.00  0.00    +0.000 HD
ATOM     21  H   UNL     1      12.247  13.978  19.114  0.00  0.00    +0.000 HD
ENDBRANCH   2  16
ENDBRANCH   1   5
BRANCH   1  22
ATOM     22  C   UNL     1       8.021   8.604  17.653  0.00  0.00    +0.000 C 
BRANCH  22  23
ATOM     23  C   UNL     1       7.217   7.337  17.593  0.00  0.00    +0.000 A 
ATOM     24  C   UNL     1       7.670   6.161  18.218  0.00  0.00    +0.000 A 
ATOM     25  C   UNL     1       6.900   4.995  18.172  0.00  0.00    +0.000 A 
ATOM     26  C   UNL     1       5.653   4.997  17.532  0.00  0.00    +0.000 A 
ATOM     27  C   UNL     1       5.213   6.175  16.897  0.00  0.00    +0.000 A 
ATOM     28  C   UNL     1       5.990   7.328  16.922  0.00  0.00    +0.000 A 
BRANCH  26  29
ATOM     29  N   UNL     1       4.855   3.814  17.522  0.00  0.00    +0.000 N 
ATOM     30  C   UNL     1       3.648   3.697  18.279  0.00  0.00    +0.000 C 
ATOM     31  N   UNL     1       3.401   4.529  19.228  0.00  0.00    +0.000 NA
ATOM     32  C   UNL     1       2.242   4.479  20.100  0.00  0.00    +0.000 C 
ATOM     33  C   UNL     1       2.729   4.362  21.550  0.00  0.00    +0.000 C 
ATOM     34  C   UNL     1       1.456   5.777  19.913  0.00  0.00    +0.000 C 
ATOM     35  N   UNL     1       1.372   3.349  19.793  0.00  0.00    +0.000 NA
ATOM     36  C   UNL     1       1.601   2.497  18.851  0.00  0.00    +0.000 C 
ATOM     37  N   UNL     1       0.689   1.438  18.625  0.00  0.00    +0.000 N 
ATOM     38  N   UNL     1       2.757   2.621  18.043  0.00  0.00    +0.000 N 
ATOM     39  H   UNL     1       5.214   2.969  17.052  0.00  0.00    +0.000 HD
ATOM     40  H   UNL     1      -0.141   1.329  19.225  0.00  0.00    +0.000 HD
ATOM     41  H   UNL     1       0.845   0.771  17.857  0.00  0.00    +0.000 HD
ATOM     42  H   UNL     1       2.936   1.956  17.275  0.00  0.00    +0.000 HD
ENDBRANCH  26  29
ENDBRANCH  22  23
ENDBRANCH   1  22
TORSDOF 5
ENDMDL
MODEL 8
REMARK VINA RESULT:      -9.0      5.820     11.218
REMARK  Name = 
REMARK  9 active torsions:
REMARK  status: ('A' for Active; 'I' for Inactive)
REMARK    1  A    between atoms: C_1  and  C_2
REMARK    2  A    between atoms: C_2  and  C_3
REMARK    3  A    between atoms: N_9  and  C_10
REMARK    4  A    between atoms: C_13  and  C_14
REMARK    5  A    between atoms: C_14  and  C_15
REMARK    6  A    between atoms: C_15  and  C_16
REMARK    7  A    between atoms: C_19  and  N_20
REMARK    8  A    between atoms: C_23  and  C_24
REMARK    9  A    between atoms: C_23  and  C_25
REMARK                            x       y       z     vdW  Elec       q    Type
REMARK                         _______ _______ _______ _____ _____    ______ ____
ROOT
ATOM      1  C   UNL     1       1.712  12.823  19.917  0.00  0.00    +0.000 C 
ENDROOT
BRANCH   1   5
ATOM      2  C   UNL     1       5.147  15.214  18.833  0.00  0.00    +0.000 A 
ATOM      3  C   UNL     1       4.387  14.578  17.839  0.00  0.00    +0.000 A 
ATOM      4  C   UNL     1       3.261  13.826  18.184  0.00  0.00    +0.000 A 
ATOM      5  C   UNL     1       2.898  13.667  19.533  0.00  0.00    +0.000 A 
ATOM      6  C   UNL     1       3.661  14.289  20.526  0.00  0.00    +0.000 A 
ATOM      7  C   UNL     1       4.769  15.058  20.182  0.00  0.00    +0.000 A 
BRANCH   2  16
ATOM      8  C   UNL     1       8.844  12.186  17.792  0.00  0.00    +0.000 C 
ATOM      9  C   UNL     1       9.108  13.499  18.523  0.00  0.00    +0.000 C 
ATOM     10  C   UNL     1       9.691  13.217  19.916  0.00  0.00    +0.000 C 
ATOM     11  N   UNL     1      10.064  14.276  17.739  0.00  0.00    +0.000 NA
ATOM     12  C   UNL     1       9.811  15.438  17.240  0.00  0.00    +0.000 C 
ATOM     13  N   UNL     1      10.783  16.083  16.437  0.00  0.00    +0.000 N 
ATOM     14  N   UNL     1       8.553  16.051  17.462  0.00  0.00    +0.000 N 
ATOM     15  C   UNL     1       7.569  15.355  18.204  0.00  0.00    +0.000 C 
ATOM     16  N   UNL     1       6.306  15.959  18.467  0.00  0.00    +0.000 N 
ATOM     17  N   UNL     1       7.839  14.191  18.687  0.00  0.00    +0.000 NA
ATOM     18  H   UNL     1      11.696  15.636  16.265  0.00  0.00    +0.000 HD
ATOM     19  H   UNL     1      10.570  16.981  15.982  0.00  0.00    +0.000 HD
ATOM     20  H   UNL     1       8.338  16.971  17.051  0.00  0.00    +0.000 HD
ATOM     21  H   UNL     1       6.239  16.987  18.415  0.00  0.00    +0.000 HD
ENDBRANCH   2  16
ENDBRANCH   1   5
BRANCH   1  22
ATOM     22  C   UNL     1       1.248  11.986  18.719  0.00  0.00    +0.000 C 
BRANCH  22  23
ATOM     23  C   UNL     1       1.458  10.516  18.946  0.00  0.00    +0.000 A 
ATOM     24  C   UNL     1       1.978   9.694  17.931  0.00  0.00    +0.000 A 
ATOM     25  C   UNL     1       2.189   8.331  18.164  0.00  0.00    +0.000 A 
ATOM     26  C   UNL     1       1.917   7.780  19.423  0.00  0.00    +0.000 A 
ATOM     27  C   UNL     1       1.385   8.608  20.431  0.00  0.00    +0.000 A 
ATOM     28  C   UNL     1       1.152   9.958  20.192  0.00  0.00    +0.000 A 
BRANCH  26  29
ATOM     29  N   UNL     1       2.171   6.397  19.666  0.00  0.00    +0.000 N 
ATOM     30  C   UNL     1       3.342   5.736  19.181  0.00  0.00    +0.000 C 
ATOM     31  N   UNL     1       4.051   6.280  18.255  0.00  0.00    +0.000 NA
ATOM     32  C   UNL     1       5.223   5.682  17.644  0.00  0.00    +0.000 C 
ATOM     33  C   UNL     1       4.977   5.563  16.134  0.00  0.00    +0.000 C 
ATOM     34  C   UNL     1       6.413   6.604  17.911  0.00  0.00    +0.000 C 
ATOM     35  N   UNL     1       5.514   4.361  18.189  0.00  0.00    +0.000 NA
ATOM     36  C   UNL     1       4.816   3.792  19.112  0.00  0.00    +0.000 C 
ATOM     37  N   UNL     1       5.187   2.509  19.583  0.00  0.00    +0.000 N 
ATOM     38  N   UNL     1       3.685   4.447  19.657  0.00  0.00    +0.000 N 
ATOM     39  H   UNL     1       1.436   5.819  20.102  0.00  0.00    +0.000 HD
ATOM     40  H   UNL     1       5.993   2.017  19.173  0.00  0.00    +0.000 HD
ATOM     41  H   UNL     1       4.655   2.058  20.341  0.00  0.00    +0.000 HD
ATOM     42  H   UNL     1       3.134   4.007  20.411  0.00  0.00    +0.000 HD
ENDBRANCH  26  29
ENDBRANCH  22  23
ENDBRANCH   1  22
TORSDOF 5
ENDMDL
MODEL 9
REMARK VINA RESULT:      -9.0      7.504      9.647
REMARK  Name = 
REMARK  9 active torsions:
REMARK  status: ('A' for Active; 'I' for Inactive)
REMARK    1  A    between atoms: C_1  and  C_2
REMARK    2  A    between atoms: C_2  and  C_3
REMARK    3  A    between atoms: N_9  and  C_10
REMARK    4  A    between atoms: C_13  and  C_14
REMARK    5  A    between atoms: C_14  and  C_15
REMARK    6  A    between atoms: C_15  and  C_16
REMARK    7  A    between atoms: C_19  and  N_20
REMARK    8  A    between atoms: C_23  and  C_24
REMARK    9  A    between atoms: C_23  and  C_25
REMARK                            x       y       z     vdW  Elec       q    Type
REMARK                         _______ _______ _______ _____ _____    ______ ____
ROOT
ATOM      1  C   UNL     1       7.862   8.323  17.409  0.00  0.00    +0.000 C 
ENDROOT
BRANCH   1   5
ATOM      2  C   UNL     1       5.457   4.740  17.655  0.00  0.00    +0.000 A 
ATOM      3  C   UNL     1       6.583   4.893  18.478  0.00  0.00    +0.000 A 
ATOM      4  C   UNL     1       7.348   6.060  18.420  0.00  0.00    +0.000 A 
ATOM      5  C   UNL     1       7.020   7.080  17.509  0.00  0.00    +0.000 A 
ATOM      6  C   UNL     1       5.905   6.925  16.679  0.00  0.00    +0.000 A 
ATOM      7  C   UNL     1       5.129   5.772  16.754  0.00  0.00    +0.000 A 
BRANCH   2  16
ATOM      8  C   UNL     1       1.363   5.431  20.239  0.00  0.00    +0.000 C 
ATOM      9  C   UNL     1       2.126   4.115  20.345  0.00  0.00    +0.000 C 
ATOM     10  C   UNL     1       2.619   3.908  21.786  0.00  0.00    +0.000 C 
ATOM     11  N   UNL     1       1.222   3.029  19.976  0.00  0.00    +0.000 NA
ATOM     12  C   UNL     1       1.420   2.232  18.982  0.00  0.00    +0.000 C 
ATOM     13  N   UNL     1       0.449   1.251  18.665  0.00  0.00    +0.000 N 
ATOM     14  N   UNL     1       2.586   2.362  18.187  0.00  0.00    +0.000 N 
ATOM     15  C   UNL     1       3.506   3.398  18.475  0.00  0.00    +0.000 C 
ATOM     16  N   UNL     1       4.701   3.533  17.711  0.00  0.00    +0.000 N 
ATOM     17  N   UNL     1       3.285   4.188  19.469  0.00  0.00    +0.000 NA
ATOM     18  H   UNL     1      -0.404   1.161  19.234  0.00  0.00    +0.000 HD
ATOM     19  H   UNL     1       0.567   0.651  17.836  0.00  0.00    +0.000 HD
ATOM     20  H   UNL     1       2.741   1.740  17.380  0.00  0.00    +0.000 HD
ATOM     21  H   UNL     1       5.043   2.707  17.197  0.00  0.00    +0.000 HD
ENDBRANCH   2  16
ENDBRANCH   1   5
BRANCH   1  22
ATOM     22  C   UNL     1       8.603   8.569  18.728  0.00  0.00    +0.000 C 
BRANCH  22  23
ATOM     23  C   UNL     1       9.045   9.998  18.867  0.00  0.00    +0.000 A 
ATOM     24  C   UNL     1       8.836  10.924  17.830  0.00  0.00    +0.000 A 
ATOM     25  C   UNL     1       9.233  12.257  17.982  0.00  0.00    +0.000 A 
ATOM     26  C   UNL     1       9.810  12.689  19.185  0.00  0.00    +0.000 A 
ATOM     27  C   UNL     1      10.025  11.751  20.214  0.00  0.00    +0.000 A 
ATOM     28  C   UNL     1       9.654  10.421  20.053  0.00  0.00    +0.000 A 
BRANCH  26  29
ATOM     29  N   UNL     1      10.176  14.058  19.348  0.00  0.00    +0.000 N 
ATOM     30  C   UNL     1       9.232  15.066  19.717  0.00  0.00    +0.000 C 
ATOM     31  N   UNL     1       7.970  14.834  19.616  0.00  0.00    +0.000 NA
ATOM     32  C   UNL     1       6.921  15.793  19.905  0.00  0.00    +0.000 C 
ATOM     33  C   UNL     1       6.069  15.978  18.642  0.00  0.00    +0.000 C 
ATOM     34  C   UNL     1       6.065  15.225  21.037  0.00  0.00    +0.000 C 
ATOM     35  N   UNL     1       7.456  17.086  20.317  0.00  0.00    +0.000 NA
ATOM     36  C   UNL     1       8.715  17.345  20.421  0.00  0.00    +0.000 C 
ATOM     37  N   UNL     1       9.135  18.631  20.840  0.00  0.00    +0.000 N 
ATOM     38  N   UNL     1       9.676  16.349  20.120  0.00  0.00    +0.000 N 
ATOM     39  H   UNL     1      11.124  14.361  19.076  0.00  0.00    +0.000 HD
ATOM     40  H   UNL     1       8.442  19.367  21.035  0.00  0.00    +0.000 HD
ATOM     41  H   UNL     1      10.137  18.840  20.955  0.00  0.00    +0.000 HD
ATOM     42  H   UNL     1      10.685  16.543  20.221  0.00  0.00    +0.000 HD
ENDBRANCH  26  29
ENDBRANCH  22  23
ENDBRANCH   1  22
TORSDOF 5
ENDMDL
