MODEL 1
REMARK VINA RESULT:      -8.2      0.000      0.000
REMARK  Name = 
REMARK  5 active torsions:
REMARK  status: ('A' for Active; 'I' for Inactive)
REMARK    1  A    between atoms: N_1  and  C_2
REMARK    2  A    between atoms: C_2  and  C_3
REMARK    3  A    between atoms: C_5  and  N_6
REMARK    4  A    between atoms: C_11  and  C_12
REMARK    5  A    between atoms: C_21  and  O_22
REMARK                            x       y       z     vdW  Elec       q    Type
REMARK                         _______ _______ _______ _____ _____    ______ ____
ROOT
ATOM      1  N   UNL     1       3.140   6.017  19.148  0.00  0.00    +0.000 N 
ATOM      2  C   UNL     1       2.519   7.255  18.943  0.00  0.00    +0.000 A 
ATOM      3  N   UNL     1       2.723   7.936  17.822  0.00  0.00    +0.000 NA
ATOM      4  C   UNL     1       2.163   9.134  17.757  0.00  0.00    +0.000 A 
ATOM      5  N   UNL     1       1.433   9.693  18.704  0.00  0.00    +0.000 NA
ATOM      6  C   UNL     1       1.270   8.939  19.793  0.00  0.00    +0.000 A 
ATOM      7  N   UNL     1       1.775   7.708  19.952  0.00  0.00    +0.000 NA
ATOM      8  H   UNL     1       2.929   5.697  20.083  0.00  0.00    +0.000 HD
ENDROOT
BRANCH   1  11
ATOM      9  C   UNL     1       6.773   5.378  18.588  0.00  0.00    +0.000 A 
ATOM     10  C   UNL     1       5.555   5.830  19.141  0.00  0.00    +0.000 A 
ATOM     11  C   UNL     1       4.315   5.495  18.577  0.00  0.00    +0.000 A 
ATOM     12  C   UNL     1       4.320   4.635  17.473  0.00  0.00    +0.000 A 
ATOM     13  C   UNL     1       5.511   4.182  16.903  0.00  0.00    +0.000 A 
ATOM     14  C   UNL     1       6.727   4.564  17.454  0.00  0.00    +0.000 A 
BRANCH  14  15
ATOM     15  O   UNL     1       7.892   4.132  16.885  0.00  0.00    +0.000 OA
ATOM     16  H   UNL     1       8.599   4.755  17.122  0.00  0.00    +0.000 HD
ENDBRANCH  14  15
BRANCH   9  17
ATOM     17  C   UNL     1       8.075   5.797  19.216  0.00  0.00    +0.000 C 
BRANCH  17  18
ATOM     18  N   UNL     1       8.167   5.341  20.603  0.00  0.00    +0.000 NA
ATOM     19  H   UNL     1       7.641   4.473  20.693  0.00  0.00    +0.000 HD
ATOM     20  H   UNL     1       7.680   6.022  21.186  0.00  0.00    +0.000 HD
ENDBRANCH  17  18
ENDBRANCH   9  17
ENDBRANCH   1  11
BRANCH   6  21
ATOM     21  C   UNL     1       0.547   9.555  20.926  0.00  0.00    +0.000 A 
ATOM     22  C   UNL     1       0.590   8.977  22.212  0.00  0.00    +0.000 A 
ATOM     23  C   UNL     1      -0.129   9.512  23.285  0.00  0.00    +0.000 A 
ATOM     24  C   UNL     1      -0.908  10.646  23.096  0.00  0.00    +0.000 A 
ATOM     25  C   UNL     1      -0.961  11.251  21.843  0.00  0.00    +0.000 A 
ATOM     26  C   UNL     1      -0.239  10.712  20.772  0.00  0.00    +0.000 A 
ENDBRANCH   6  21
TORSDOF 5
ENDMDL
MODEL 2
REMARK VINA RESULT:      -8.2      0.114      1.023
REMARK  Name = 
REMARK  5 active torsions:
REMARK  status: ('A' for Active; 'I' for Inactive)
REMARK    1  A    between atoms: N_1  and  C_2
REMARK    2  A    between atoms: C_2  and  C_3
REMARK    3  A    between atoms: C_5  and  N_6
REMARK    4  A    between atoms: C_11  and  C_12
REMARK    5  A    between atoms: C_21  and  O_22
REMARK                            x       y       z     vdW  Elec       q    Type
REMARK                         _______ _______ _______ _____ _____    ______ ____
ROOT
ATOM      1  N   UNL     1       3.150   5.995  19.169  0.00  0.00    +0.000 N 
ATOM      2  C   UNL     1       2.519   7.227  18.955  0.00  0.00    +0.000 A 
ATOM      3  N   UNL     1       2.728   7.907  17.833  0.00  0.00    +0.000 NA
ATOM      4  C   UNL     1       2.157   9.099  17.760  0.00  0.00    +0.000 A 
ATOM      5  N   UNL     1       1.412   9.653  18.698  0.00  0.00    +0.000 NA
ATOM      6  C   UNL     1       1.246   8.901  19.788  0.00  0.00    +0.000 A 
ATOM      7  N   UNL     1       1.761   7.676  19.955  0.00  0.00    +0.000 NA
ATOM      8  H   UNL     1       2.933   5.676  20.103  0.00  0.00    +0.000 HD
ENDROOT
BRANCH   1  11
ATOM      9  C   UNL     1       6.794   5.392  18.644  0.00  0.00    +0.000 A 
ATOM     10  C   UNL     1       5.567   5.833  19.184  0.00  0.00    +0.000 A 
ATOM     11  C   UNL     1       4.335   5.483  18.611  0.00  0.00    +0.000 A 
ATOM     12  C   UNL     1       4.359   4.618  17.511  0.00  0.00    +0.000 A 
ATOM     13  C   UNL     1       5.559   4.175  16.954  0.00  0.00    +0.000 A 
ATOM     14  C   UNL     1       6.767   4.572  17.513  0.00  0.00    +0.000 A 
BRANCH  14  15
ATOM     15  O   UNL     1       7.941   4.150  16.957  0.00  0.00    +0.000 OA
ATOM     16  H   UNL     1       8.653   4.739  17.257  0.00  0.00    +0.000 HD
ENDBRANCH  14  15
BRANCH   9  17
ATOM     17  C   UNL     1       8.087   5.827  19.281  0.00  0.00    +0.000 C 
BRANCH  17  18
ATOM     18  N   UNL     1       8.220   5.286  20.634  0.00  0.00    +0.000 NA
ATOM     19  H   UNL     1       8.204   4.270  20.578  0.00  0.00    +0.000 HD
ATOM     20  H   UNL     1       7.385   5.549  21.156  0.00  0.00    +0.000 HD
ENDBRANCH  17  18
ENDBRANCH   9  17
ENDBRANCH   1  11
BRANCH   6  21
ATOM     21  C   UNL     1       0.507   9.514  20.912  0.00  0.00    +0.000 A 
ATOM     22  C   UNL     1      -0.068  10.797  20.786  0.00  0.00    +0.000 A 
ATOM     23  C   UNL     1      -0.723  11.418  21.852  0.00  0.00    +0.000 A 
ATOM     24  C   UNL     1      -0.826  10.766  23.075  0.00  0.00    +0.000 A 
ATOM     25  C   UNL     1      -0.284   9.492  23.228  0.00  0.00    +0.000 A 
ATOM     26  C   UNL     1       0.373   8.874  22.158  0.00  0.00    +0.000 A 
ENDBRANCH   6  21
TORSDOF 5
ENDMDL
MODEL 3
REMARK VINA RESULT:      -7.8      1.355      2.239
REMARK  Name = 
REMARK  5 active torsions:
REMARK  status: ('A' for Active; 'I' for Inactive)
REMARK    1  A    between atoms: N_1  and  C_2
REMARK    2  A    between atoms: C_2  and  C_3
REMARK    3  A    between atoms: C_5  and  N_6
REMARK    4  A    between atoms: C_11  and  C_12
REMARK    5  A    between atoms: C_21  and  O_22
REMARK                            x       y       z     vdW  Elec       q    Type
REMARK                         _______ _______ _______ _____ _____    ______ ____
ROOT
ATOM      1  N   UNL     1       3.298   6.112  19.135  0.00  0.00    +0.000 N 
ATOM      2  C   UNL     1       2.616   7.318  18.934  0.00  0.00    +0.000 A 
ATOM      3  N   UNL     1       2.801   8.021  17.822  0.00  0.00    +0.000 NA
ATOM      4  C   UNL     1       2.180   9.188  17.761  0.00  0.00    +0.000 A 
ATOM      5  N   UNL     1       1.407   9.698  18.702  0.00  0.00    +0.000 NA
ATOM      6  C   UNL     1       1.269   8.925  19.782  0.00  0.00    +0.000 A 
ATOM      7  N   UNL     1       1.836   7.721  19.935  0.00  0.00    +0.000 NA
ATOM      8  H   UNL     1       3.092   5.771  20.064  0.00  0.00    +0.000 HD
ENDROOT
BRANCH   1  11
ATOM      9  C   UNL     1       5.714   4.822  16.600  0.00  0.00    +0.000 A 
ATOM     10  C   UNL     1       4.547   5.327  17.213  0.00  0.00    +0.000 A 
ATOM     11  C   UNL     1       4.507   5.658  18.576  0.00  0.00    +0.000 A 
ATOM     12  C   UNL     1       5.695   5.530  19.305  0.00  0.00    +0.000 A 
ATOM     13  C   UNL     1       6.859   5.025  18.724  0.00  0.00    +0.000 A 
ATOM     14  C   UNL     1       6.860   4.663  17.384  0.00  0.00    +0.000 A 
BRANCH  14  15
ATOM     15  O   UNL     1       7.996   4.154  16.821  0.00  0.00    +0.000 OA
ATOM     16  H   UNL     1       8.131   3.254  17.160  0.00  0.00    +0.000 HD
ENDBRANCH  14  15
BRANCH   9  17
ATOM     17  C   UNL     1       5.688   4.453  15.142  0.00  0.00    +0.000 C 
BRANCH  17  18
ATOM     18  N   UNL     1       6.731   5.159  14.397  0.00  0.00    +0.000 NA
ATOM     19  H   UNL     1       7.507   4.518  14.240  0.00  0.00    +0.000 HD
ATOM     20  H   UNL     1       7.097   5.896  15.000  0.00  0.00    +0.000 HD
ENDBRANCH  17  18
ENDBRANCH   9  17
ENDBRANCH   1  11
BRANCH   6  21
ATOM     21  C   UNL     1       0.499   9.491  20.910  0.00  0.00    +0.000 A 
ATOM     22  C   UNL     1      -0.346  10.604  20.722  0.00  0.00    +0.000 A 
ATOM     23  C   UNL     1      -1.041  11.190  21.784  0.00  0.00    +0.000 A 
ATOM     24  C   UNL     1      -0.910  10.669  23.066  0.00  0.00    +0.000 A 
ATOM     25  C   UNL     1      -0.096   9.560  23.283  0.00  0.00    +0.000 A 
ATOM     26  C   UNL     1       0.598   8.978  22.216  0.00  0.00    +0.000 A 
ENDBRANCH   6  21
TORSDOF 5
ENDMDL
MODEL 4
REMARK VINA RESULT:      -7.8      1.347      2.001
REMARK  Name = 
REMARK  5 active torsions:
REMARK  status: ('A' for Active; 'I' for Inactive)
REMARK    1  A    between atoms: N_1  and  C_2
REMARK    2  A    between atoms: C_2  and  C_3
REMARK    3  A    between atoms: C_5  and  N_6
REMARK    4  A    between atoms: C_11  and  C_12
REMARK    5  A    between atoms: C_21  and  O_22
REMARK                            x       y       z     vdW  Elec       q    Type
REMARK                         _______ _______ _______ _____ _____    ______ ____
ROOT
ATOM      1  N   UNL     1       3.244   6.163  19.144  0.00  0.00    +0.000 N 
ATOM      2  C   UNL     1       2.572   7.374  18.938  0.00  0.00    +0.000 A 
ATOM      3  N   UNL     1       2.746   8.061  17.815  0.00  0.00    +0.000 NA
ATOM      4  C   UNL     1       2.138   9.235  17.749  0.00  0.00    +0.000 A 
ATOM      5  N   UNL     1       1.387   9.765  18.696  0.00  0.00    +0.000 NA
ATOM      6  C   UNL     1       1.258   9.007  19.788  0.00  0.00    +0.000 A 
ATOM      7  N   UNL     1       1.813   7.799  19.947  0.00  0.00    +0.000 NA
ATOM      8  H   UNL     1       3.049   5.836  20.079  0.00  0.00    +0.000 HD
ENDROOT
BRANCH   1  11
ATOM      9  C   UNL     1       5.614   4.860  16.574  0.00  0.00    +0.000 A 
ATOM     10  C   UNL     1       4.463   5.384  17.201  0.00  0.00    +0.000 A 
ATOM     11  C   UNL     1       4.438   5.688  18.571  0.00  0.00    +0.000 A 
ATOM     12  C   UNL     1       5.624   5.515  19.291  0.00  0.00    +0.000 A 
ATOM     13  C   UNL     1       6.772   4.989  18.696  0.00  0.00    +0.000 A 
ATOM     14  C   UNL     1       6.758   4.655  17.349  0.00  0.00    +0.000 A 
BRANCH  14  15
ATOM     15  O   UNL     1       7.879   4.127  16.771  0.00  0.00    +0.000 OA
ATOM     16  H   UNL     1       8.555   4.013  17.460  0.00  0.00    +0.000 HD
ENDBRANCH  14  15
BRANCH   9  17
ATOM     17  C   UNL     1       5.574   4.520  15.108  0.00  0.00    +0.000 C 
BRANCH  17  18
ATOM     18  N   UNL     1       6.653   5.186  14.379  0.00  0.00    +0.000 NA
ATOM     19  H   UNL     1       6.382   5.262  13.400  0.00  0.00    +0.000 HD
ATOM     20  H   UNL     1       7.464   4.569  14.395  0.00  0.00    +0.000 HD
ENDBRANCH  17  18
ENDBRANCH   9  17
ENDBRANCH   1  11
BRANCH   6  21
ATOM     21  C   UNL     1       0.513   9.596  20.921  0.00  0.00    +0.000 A 
ATOM     22  C   UNL     1       0.595   9.032  22.212  0.00  0.00    +0.000 A 
ATOM     23  C   UNL     1      -0.143   9.539  23.285  0.00  0.00    +0.000 A 
ATOM     24  C   UNL     1      -0.980  10.631  23.094  0.00  0.00    +0.000 A 
ATOM     25  C   UNL     1      -1.072  11.221  21.836  0.00  0.00    +0.000 A 
ATOM     26  C   UNL     1      -0.332  10.710  20.764  0.00  0.00    +0.000 A 
ENDBRANCH   6  21
TORSDOF 5
ENDMDL
MODEL 5
REMARK VINA RESULT:      -7.6      3.520      8.520
REMARK  Name = 
REMARK  5 active torsions:
REMARK  status: ('A' for Active; 'I' for Inactive)
REMARK    1  A    between atoms: N_1  and  C_2
REMARK    2  A    between atoms: C_2  and  C_3
REMARK    3  A    between atoms: C_5  and  N_6
REMARK    4  A    between atoms: C_11  and  C_12
REMARK    5  A    between atoms: C_21  and  O_22
REMARK                            x       y       z     vdW  Elec       q    Type
REMARK                         _______ _______ _______ _____ _____    ______ ____
ROOT
ATOM      1  N   UNL     1       3.408   5.653  17.801  0.00  0.00    +0.000 N 
ATOM      2  C   UNL     1       4.728   5.731  17.338  0.00  0.00    +0.000 A 
ATOM      3  N   UNL     1       5.645   6.406  18.022  0.00  0.00    +0.000 NA
ATOM      4  C   UNL     1       6.840   6.495  17.461  0.00  0.00    +0.000 A 
ATOM      5  N   UNL     1       7.184   5.976  16.297  0.00  0.00    +0.000 NA
ATOM      6  C   UNL     1       6.207   5.309  15.680  0.00  0.00    +0.000 A 
ATOM      7  N   UNL     1       4.971   5.141  16.169  0.00  0.00    +0.000 NA
ATOM      8  H   UNL     1       2.848   5.173  17.111  0.00  0.00    +0.000 HD
ENDROOT
BRANCH   1  11
ATOM      9  C   UNL     1       1.653   8.711  19.020  0.00  0.00    +0.000 A 
ATOM     10  C   UNL     1       2.319   7.781  18.194  0.00  0.00    +0.000 A 
ATOM     11  C   UNL     1       2.705   6.515  18.661  0.00  0.00    +0.000 A 
ATOM     12  C   UNL     1       2.347   6.176  19.971  0.00  0.00    +0.000 A 
ATOM     13  C   UNL     1       1.696   7.082  20.810  0.00  0.00    +0.000 A 
ATOM     14  C   UNL     1       1.365   8.344  20.337  0.00  0.00    +0.000 A 
BRANCH  14  15
ATOM     15  O   UNL     1       0.741   9.235  21.165  0.00  0.00    +0.000 OA
ATOM     16  H   UNL     1      -0.218   9.095  21.100  0.00  0.00    +0.000 HD
ENDBRANCH  14  15
BRANCH   9  17
ATOM     17  C   UNL     1       1.293  10.067  18.474  0.00  0.00    +0.000 C 
BRANCH  17  18
ATOM     18  N   UNL     1       2.200  10.464  17.397  0.00  0.00    +0.000 NA
ATOM     19  H   UNL     1       2.143   9.769  16.655  0.00  0.00    +0.000 HD
ATOM     20  H   UNL     1       3.152  10.407  17.759  0.00  0.00    +0.000 HD
ENDBRANCH  17  18
ENDBRANCH   9  17
ENDBRANCH   1  11
BRANCH   6  21
ATOM     21  C   UNL     1       6.506   4.795  14.327  0.00  0.00    +0.000 A 
ATOM     22  C   UNL     1       7.560   5.339  13.562  0.00  0.00    +0.000 A 
ATOM     23  C   UNL     1       7.826   4.907  12.260  0.00  0.00    +0.000 A 
ATOM     24  C   UNL     1       7.043   3.910  11.690  0.00  0.00    +0.000 A 
ATOM     25  C   UNL     1       6.005   3.341  12.422  0.00  0.00    +0.000 A 
ATOM     26  C   UNL     1       5.742   3.778  13.726  0.00  0.00    +0.000 A 
ENDBRANCH   6  21
TORSDOF 5
ENDMDL
MODEL 6
REMARK VINA RESULT:      -7.4      3.568      8.510
REMARK  Name = 
REMARK  5 active torsions:
REMARK  status: ('A' for Active; 'I' for Inactive)
REMARK    1  A    between atoms: N_1  and  C_2
REMARK    2  A    between atoms: C_2  and  C_3
REMARK    3  A    between atoms: C_5  and  N_6
REMARK    4  A    between atoms: C_11  and  C_12
REMARK    5  A    between atoms: C_21  and  O_22
REMARK                            x       y       z     vdW  Elec       q    Type
REMARK                         _______ _______ _______ _____ _____    ______ ____
ROOT
ATOM      1  N   UNL     1       3.493   5.276  17.807  0.00  0.00    +0.000 N 
ATOM      2  C   UNL     1       4.778   5.449  17.278  0.00  0.00    +0.000 A 
ATOM      3  N   UNL     1       5.689   6.159  17.934  0.00  0.00    +0.000 NA
ATOM      4  C   UNL     1       6.844   6.339  17.314  0.00  0.00    +0.000 A 
ATOM      5  N   UNL     1       7.155   5.877  16.118  0.00  0.00    +0.000 NA
ATOM      6  C   UNL     1       6.187   5.168  15.532  0.00  0.00    +0.000 A 
ATOM      7  N   UNL     1       4.992   4.910  16.079  0.00  0.00    +0.000 NA
ATOM      8  H   UNL     1       2.926   4.783  17.132  0.00  0.00    +0.000 HD
ENDROOT
BRANCH   1  11
ATOM      9  C   UNL     1       1.779   8.246  19.279  0.00  0.00    +0.000 A 
ATOM     10  C   UNL     1       2.446   7.384  18.382  0.00  0.00    +0.000 A 
ATOM     11  C   UNL     1       2.787   6.068  18.731  0.00  0.00    +0.000 A 
ATOM     12  C   UNL     1       2.383   5.611  19.990  0.00  0.00    +0.000 A 
ATOM     13  C   UNL     1       1.732   6.447  20.899  0.00  0.00    +0.000 A 
ATOM     14  C   UNL     1       1.445   7.758  20.545  0.00  0.00    +0.000 A 
BRANCH  14  15
ATOM     15  O   UNL     1       0.820   8.579  21.441  0.00  0.00    +0.000 OA
ATOM     16  H   UNL     1       1.323   9.408  21.501  0.00  0.00    +0.000 HD
ENDBRANCH  14  15
BRANCH   9  17
ATOM     17  C   UNL     1       1.468   9.658  18.862  0.00  0.00    +0.000 C 
BRANCH  17  18
ATOM     18  N   UNL     1       1.833   9.892  17.465  0.00  0.00    +0.000 NA
ATOM     19  H   UNL     1       2.124   9.006  17.055  0.00  0.00    +0.000 HD
ATOM     20  H   UNL     1       2.661  10.487  17.456  0.00  0.00    +0.000 HD
ENDBRANCH  17  18
ENDBRANCH   9  17
ENDBRANCH   1  11
BRANCH   6  21
ATOM     21  C   UNL     1       6.442   4.713  14.148  0.00  0.00    +0.000 A 
ATOM     22  C   UNL     1       5.649   3.705  13.560  0.00  0.00    +0.000 A 
ATOM     23  C   UNL     1       5.906   3.221  12.275  0.00  0.00    +0.000 A 
ATOM     24  C   UNL     1       6.964   3.740  11.540  0.00  0.00    +0.000 A 
ATOM     25  C   UNL     1       7.757   4.747  12.084  0.00  0.00    +0.000 A 
ATOM     26  C   UNL     1       7.496   5.228  13.373  0.00  0.00    +0.000 A 
ENDBRANCH   6  21
TORSDOF 5
ENDMDL
MODEL 7
REMARK VINA RESULT:      -7.2      1.155      1.164
REMARK  Name = 
REMARK  5 active torsions:
REMARK  status: ('A' for Active; 'I' for Inactive)
REMARK    1  A    between atoms: N_1  and  C_2
REMARK    2  A    between atoms: C_2  and  C_3
REMARK    3  A    between atoms: C_5  and  N_6
REMARK    4  A    between atoms: C_11  and  C_12
REMARK    5  A    between atoms: C_21  and  O_22
REMARK                            x       y       z     vdW  Elec       q    Type
REMARK                         _______ _______ _______ _____ _____    ______ ____
ROOT
ATOM      1  N   UNL     1       2.538   6.231  18.779  0.00  0.00    +0.000 N 
ATOM      2  C   UNL     1       2.101   7.560  18.712  0.00  0.00    +0.000 A 
ATOM      3  N   UNL     1       2.447   8.335  17.690  0.00  0.00    +0.000 NA
ATOM      4  C   UNL     1       2.058   9.598  17.759  0.00  0.00    +0.000 A 
ATOM      5  N   UNL     1       1.369  10.137  18.747  0.00  0.00    +0.000 NA
ATOM      6  C   UNL     1       1.056   9.289  19.730  0.00  0.00    +0.000 A 
ATOM      7  N   UNL     1       1.382   7.990  19.748  0.00  0.00    +0.000 NA
ATOM      8  H   UNL     1       2.245   5.835  19.660  0.00  0.00    +0.000 HD
ENDROOT
BRANCH   1  11
ATOM      9  C   UNL     1       6.075   5.668  17.733  0.00  0.00    +0.000 A 
ATOM     10  C   UNL     1       4.922   6.203  18.346  0.00  0.00    +0.000 A 
ATOM     11  C   UNL     1       3.656   5.621  18.180  0.00  0.00    +0.000 A 
ATOM     12  C   UNL     1       3.582   4.441  17.431  0.00  0.00    +0.000 A 
ATOM     13  C   UNL     1       4.707   3.898  16.808  0.00  0.00    +0.000 A 
ATOM     14  C   UNL     1       5.941   4.518  16.951  0.00  0.00    +0.000 A 
BRANCH  14  15
ATOM     15  O   UNL     1       7.038   3.993  16.328  0.00  0.00    +0.000 OA
ATOM     16  H   UNL     1       7.631   4.723  16.083  0.00  0.00    +0.000 HD
ENDBRANCH  14  15
BRANCH   9  17
ATOM     17  C   UNL     1       7.402   6.354  17.919  0.00  0.00    +0.000 C 
BRANCH  17  18
ATOM     18  N   UNL     1       7.767   7.134  16.736  0.00  0.00    +0.000 NA
ATOM     19  H   UNL     1       8.767   7.029  16.575  0.00  0.00    +0.000 HD
ATOM     20  H   UNL     1       7.624   8.119  16.959  0.00  0.00    +0.000 HD
ENDBRANCH  17  18
ENDBRANCH   9  17
ENDBRANCH   1  11
BRANCH   6  21
ATOM     21  C   UNL     1       0.374   9.862  20.909  0.00  0.00    +0.000 A 
ATOM     22  C   UNL     1       0.325   9.156  22.130  0.00  0.00    +0.000 A 
ATOM     23  C   UNL     1      -0.361   9.653  23.242  0.00  0.00    +0.000 A 
ATOM     24  C   UNL     1      -1.012  10.877  23.161  0.00  0.00    +0.000 A 
ATOM     25  C   UNL     1      -0.970  11.607  21.976  0.00  0.00    +0.000 A 
ATOM     26  C   UNL     1      -0.282  11.105  20.865  0.00  0.00    +0.000 A 
ENDBRANCH   6  21
TORSDOF 5
ENDMDL
MODEL 8
REMARK VINA RESULT:      -7.2      2.788      4.088
REMARK  Name = 
REMARK  5 active torsions:
REMARK  status: ('A' for Active; 'I' for Inactive)
REMARK    1  A    between atoms: N_1  and  C_2
REMARK    2  A    between atoms: C_2  and  C_3
REMARK    3  A    between atoms: C_5  and  N_6
REMARK    4  A    between atoms: C_11  and  C_12
REMARK    5  A    between atoms: C_21  and  O_22
REMARK                            x       y       z     vdW  Elec       q    Type
REMARK                         _______ _______ _______ _____ _____    ______ ____
ROOT
ATOM      1  N   UNL     1       2.900   6.874  17.921  0.00  0.00    +0.000 N 
ATOM      2  C   UNL     1       2.288   7.685  18.884  0.00  0.00    +0.000 A 
ATOM      3  N   UNL     1       2.117   7.247  20.127  0.00  0.00    +0.000 NA
ATOM      4  C   UNL     1       1.451   8.051  20.941  0.00  0.00    +0.000 A 
ATOM      5  N   UNL     1       0.954   9.230  20.620  0.00  0.00    +0.000 NA
ATOM      6  C   UNL     1       1.177   9.598  19.356  0.00  0.00    +0.000 A 
ATOM      7  N   UNL     1       1.855   8.871  18.458  0.00  0.00    +0.000 NA
ATOM      8  H   UNL     1       2.866   7.345  17.028  0.00  0.00    +0.000 HD
ENDROOT
BRANCH   1  11
ATOM      9  C   UNL     1       2.006   3.274  18.323  0.00  0.00    +0.000 A 
ATOM     10  C   UNL     1       1.940   4.684  18.309  0.00  0.00    +0.000 A 
ATOM     11  C   UNL     1       3.013   5.472  17.866  0.00  0.00    +0.000 A 
ATOM     12  C   UNL     1       4.141   4.808  17.372  0.00  0.00    +0.000 A 
ATOM     13  C   UNL     1       4.234   3.415  17.385  0.00  0.00    +0.000 A 
ATOM     14  C   UNL     1       3.175   2.658  17.870  0.00  0.00    +0.000 A 
BRANCH  14  15
ATOM     15  O   UNL     1       3.274   1.295  17.895  0.00  0.00    +0.000 OA
ATOM     16  H   UNL     1       3.869   1.044  18.621  0.00  0.00    +0.000 HD
ENDBRANCH  14  15
BRANCH   9  17
ATOM     17  C   UNL     1       0.837   2.479  18.841  0.00  0.00    +0.000 C 
BRANCH  17  18
ATOM     18  N   UNL     1       0.436   2.931  20.173  0.00  0.00    +0.000 NA
ATOM     19  H   UNL     1      -0.223   2.257  20.558  0.00  0.00    +0.000 HD
ATOM     20  H   UNL     1      -0.087   3.800  20.061  0.00  0.00    +0.000 HD
ENDBRANCH  17  18
ENDBRANCH   9  17
ENDBRANCH   1  11
BRANCH   6  21
ATOM     21  C   UNL     1       0.554  10.863  18.912  0.00  0.00    +0.000 A 
ATOM     22  C   UNL     1       1.289  12.068  18.903  0.00  0.00    +0.000 A 
ATOM     23  C   UNL     1       0.705  13.284  18.540  0.00  0.00    +0.000 A 
ATOM     24  C   UNL     1      -0.633  13.325  18.170  0.00  0.00    +0.000 A 
ATOM     25  C   UNL     1      -1.383  12.152  18.153  0.00  0.00    +0.000 A 
ATOM     26  C   UNL     1      -0.794  10.936  18.518  0.00  0.00    +0.000 A 
ENDBRANCH   6  21
TORSDOF 5
ENDMDL
MODEL 9
REMARK VINA RESULT:      -7.2      2.843      3.701
REMARK  Name = 
REMARK  5 active torsions:
REMARK  status: ('A' for Active; 'I' for Inactive)
REMARK    1  A    between atoms: N_1  and  C_2
REMARK    2  A    between atoms: C_2  and  C_3
REMARK    3  A    between atoms: C_5  and  N_6
REMARK    4  A    between atoms: C_11  and  C_12
REMARK    5  A    between atoms: C_21  and  O_22
REMARK                            x       y       z     vdW  Elec       q    Type
REMARK                         _______ _______ _______ _____ _____    ______ ____
ROOT
ATOM      1  N   UNL     1       2.501   8.113  17.567  0.00  0.00    +0.000 N 
ATOM      2  C   UNL     1       1.587   8.804  18.372  0.00  0.00    +0.000 A 
ATOM      3  N   UNL     1       1.758   8.866  19.688  0.00  0.00    +0.000 NA
ATOM      4  C   UNL     1       0.796   9.466  20.372  0.00  0.00    +0.000 A 
ATOM      5  N   UNL     1      -0.297   9.996  19.857  0.00  0.00    +0.000 NA
ATOM      6  C   UNL     1      -0.386   9.898  18.529  0.00  0.00    +0.000 A 
ATOM      7  N   UNL     1       0.538   9.331  17.742  0.00  0.00    +0.000 NA
ATOM      8  H   UNL     1       2.161   8.109  16.616  0.00  0.00    +0.000 HD
ENDROOT
BRANCH   1  11
ATOM      9  C   UNL     1       5.622   6.071  17.673  0.00  0.00    +0.000 A 
ATOM     10  C   UNL     1       4.700   7.108  17.414  0.00  0.00    +0.000 A 
ATOM     11  C   UNL     1       3.385   7.071  17.901  0.00  0.00    +0.000 A 
ATOM     12  C   UNL     1       3.030   5.990  18.716  0.00  0.00    +0.000 A 
ATOM     13  C   UNL     1       3.921   4.948  18.979  0.00  0.00    +0.000 A 
ATOM     14  C   UNL     1       5.203   4.987  18.448  0.00  0.00    +0.000 A 
BRANCH  14  15
ATOM     15  O   UNL     1       6.069   3.959  18.695  0.00  0.00    +0.000 OA
ATOM     16  H   UNL     1       5.985   3.308  17.979  0.00  0.00    +0.000 HD
ENDBRANCH  14  15
BRANCH   9  17
ATOM     17  C   UNL     1       7.010   6.148  17.096  0.00  0.00    +0.000 C 
BRANCH  17  18
ATOM     18  N   UNL     1       7.305   4.982  16.264  0.00  0.00    +0.000 NA
ATOM     19  H   UNL     1       8.191   4.583  16.569  0.00  0.00    +0.000 HD
ATOM     20  H   UNL     1       7.463   5.313  15.312  0.00  0.00    +0.000 HD
ENDBRANCH  17  18
ENDBRANCH   9  17
ENDBRANCH   1  11
BRANCH   6  21
ATOM     21  C   UNL     1      -1.638  10.383  17.909  0.00  0.00    +0.000 A 
ATOM     22  C   UNL     1      -2.476  11.293  18.588  0.00  0.00    +0.000 A 
ATOM     23  C   UNL     1      -3.690  11.722  18.046  0.00  0.00    +0.000 A 
ATOM     24  C   UNL     1      -4.095  11.254  16.802  0.00  0.00    +0.000 A 
ATOM     25  C   UNL     1      -3.284  10.367  16.098  0.00  0.00    +0.000 A 
ATOM     26  C   UNL     1      -2.069   9.940  16.646  0.00  0.00    +0.000 A 
ENDBRANCH   6  21
TORSDOF 5
ENDMDL
