MODEL 1
REMARK VINA RESULT:      -7.8      0.000      0.000
REMARK  Name = 
REMARK  4 active torsions:
REMARK  status: ('A' for Active; 'I' for Inactive)
REMARK    1  A    between atoms: C_2  and  C_18
REMARK    2  A    between atoms: N_3  and  C_4
REMARK    3  A    between atoms: C_4  and  N_5
REMARK    4  A    between atoms: N_8  and  C_9
REMARK                            x       y       z     vdW  Elec       q    Type
REMARK                         _______ _______ _______ _____ _____    ______ ____
ROOT
ATOM      1  N   UNL     1       7.748   5.958  18.139  0.00  0.00    +0.000 NA
ATOM      2  C   UNL     1       6.983   5.726  19.392  0.00  0.00    +0.000 C 
ATOM      3  C   UNL     1       5.443   5.701  19.254  0.00  0.00    +0.000 C 
ATOM      4  N   UNL     1       5.066   4.717  18.230  0.00  0.00    +0.000 N 
ATOM      5  C   UNL     1       5.714   4.933  16.927  0.00  0.00    +0.000 C 
ATOM      6  C   UNL     1       7.257   4.975  17.125  0.00  0.00    +0.000 C 
ENDROOT
BRANCH   4   7
ATOM      7  C   UNL     1       3.922   3.942  18.375  0.00  0.00    +0.000 A 
ATOM      8  C   UNL     1       4.031   2.542  18.513  0.00  0.00    +0.000 A 
ATOM      9  C   UNL     1       2.912   1.700  18.553  0.00  0.00    +0.000 A 
ATOM     10  C   UNL     1       1.635   2.236  18.477  0.00  0.00    +0.000 A 
ATOM     11  C   UNL     1       1.482   3.615  18.364  0.00  0.00    +0.000 A 
ATOM     12  C   UNL     1       2.605   4.457  18.303  0.00  0.00    +0.000 A 
ATOM     13 CL   UNL     1       2.259   6.129  17.986  0.00  0.00    +0.000 Cl
ENDBRANCH   4   7
BRANCH   1  14
ATOM     14  C   UNL     1       7.591   7.310  17.620  0.00  0.00    +0.000 C 
BRANCH  14  17
ATOM     15  O   UNL     1       7.631  10.073  17.391  0.00  0.00    +0.000 OA
ATOM     16  C   UNL     1       8.385   9.537  18.199  0.00  0.00    +0.000 C 
ATOM     17  N   UNL     1       8.432   8.178  18.394  0.00  0.00    +0.000 N 
ATOM     18  H   UNL     1       9.218   7.740  18.847  0.00  0.00    +0.000 HD
BRANCH  16  19
ATOM     19  C   UNL     1       9.303  10.377  19.012  0.00  0.00    +0.000 A 
ATOM     20  C   UNL     1      10.550  10.720  18.462  0.00  0.00    +0.000 A 
ATOM     21  C   UNL     1      11.424  11.554  19.159  0.00  0.00    +0.000 A 
ATOM     22  C   UNL     1      11.058  12.060  20.404  0.00  0.00    +0.000 A 
ATOM     23  C   UNL     1       9.814  11.728  20.945  0.00  0.00    +0.000 A 
ATOM     24 CL   UNL     1       9.354  12.383  22.470  0.00  0.00    +0.000 Cl
ATOM     25  C   UNL     1       8.934  10.890  20.261  0.00  0.00    +0.000 A 
ENDBRANCH  16  19
ENDBRANCH  14  17
ENDBRANCH   1  14
TORSDOF 4
ENDMDL
MODEL 2
REMARK VINA RESULT:      -7.8      1.152      1.482
REMARK  Name = 
REMARK  4 active torsions:
REMARK  status: ('A' for Active; 'I' for Inactive)
REMARK    1  A    between atoms: C_2  and  C_18
REMARK    2  A    between atoms: N_3  and  C_4
REMARK    3  A    between atoms: C_4  and  N_5
REMARK    4  A    between atoms: N_8  and  C_9
REMARK                            x       y       z     vdW  Elec       q    Type
REMARK                         _______ _______ _______ _____ _____    ______ ____
ROOT
ATOM      1  N   UNL     1       7.682   5.849  18.243  0.00  0.00    +0.000 NA
ATOM      2  C   UNL     1       6.849   5.723  19.468  0.00  0.00    +0.000 C 
ATOM      3  C   UNL     1       5.320   5.641  19.246  0.00  0.00    +0.000 C 
ATOM      4  N   UNL     1       5.026   4.548  18.309  0.00  0.00    +0.000 N 
ATOM      5  C   UNL     1       5.746   4.649  17.029  0.00  0.00    +0.000 C 
ATOM      6  C   UNL     1       7.274   4.755  17.310  0.00  0.00    +0.000 C 
ENDROOT
BRANCH   4   7
ATOM      7  C   UNL     1       3.894   3.760  18.467  0.00  0.00    +0.000 A 
ATOM      8  C   UNL     1       4.022   2.366  18.639  0.00  0.00    +0.000 A 
ATOM      9  C   UNL     1       2.915   1.509  18.694  0.00  0.00    +0.000 A 
ATOM     10  C   UNL     1       1.632   2.024  18.600  0.00  0.00    +0.000 A 
ATOM     11  C   UNL     1       1.459   3.397  18.453  0.00  0.00    +0.000 A 
ATOM     12  C   UNL     1       2.570   4.254  18.377  0.00  0.00    +0.000 A 
ATOM     13 CL   UNL     1       2.201   5.913  18.018  0.00  0.00    +0.000 Cl
ENDBRANCH   4   7
BRANCH   1  14
ATOM     14  C   UNL     1       7.526   7.135  17.580  0.00  0.00    +0.000 C 
BRANCH  14  17
ATOM     15  O   UNL     1       7.516   9.867  17.099  0.00  0.00    +0.000 OA
ATOM     16  C   UNL     1       8.285   9.419  17.945  0.00  0.00    +0.000 C 
ATOM     17  N   UNL     1       8.358   8.085  18.264  0.00  0.00    +0.000 N 
ATOM     18  H   UNL     1       9.155   7.704  18.748  0.00  0.00    +0.000 HD
BRANCH  16  19
ATOM     19  C   UNL     1       9.195  10.347  18.669  0.00  0.00    +0.000 A 
ATOM     20  C   UNL     1       9.129  10.378  20.072  0.00  0.00    +0.000 A 
ATOM     21  C   UNL     1      10.001  11.188  20.801  0.00  0.00    +0.000 A 
ATOM     22  C   UNL     1      10.949  11.963  20.138  0.00  0.00    +0.000 A 
ATOM     23  C   UNL     1      11.020  11.923  18.744  0.00  0.00    +0.000 A 
ATOM     24 CL   UNL     1      12.215  12.860  17.932  0.00  0.00    +0.000 Cl
ATOM     25  C   UNL     1      10.151  11.123  18.004  0.00  0.00    +0.000 A 
ENDBRANCH  16  19
ENDBRANCH  14  17
ENDBRANCH   1  14
TORSDOF 4
ENDMDL
MODEL 3
REMARK VINA RESULT:      -7.6      4.304      7.586
REMARK  Name = 
REMARK  4 active torsions:
REMARK  status: ('A' for Active; 'I' for Inactive)
REMARK    1  A    between atoms: C_2  and  C_18
REMARK    2  A    between atoms: N_3  and  C_4
REMARK    3  A    between atoms: C_4  and  N_5
REMARK    4  A    between atoms: N_8  and  C_9
REMARK                            x       y       z     vdW  Elec       q    Type
REMARK                         _______ _______ _______ _____ _____    ______ ____
ROOT
ATOM      1  N   UNL     1       6.205   6.150  16.443  0.00  0.00    +0.000 NA
ATOM      2  C   UNL     1       4.842   5.672  16.093  0.00  0.00    +0.000 C 
ATOM      3  C   UNL     1       4.297   4.493  16.933  0.00  0.00    +0.000 C 
ATOM      4  N   UNL     1       4.371   4.841  18.358  0.00  0.00    +0.000 N 
ATOM      5  C   UNL     1       5.714   5.240  18.807  0.00  0.00    +0.000 C 
ATOM      6  C   UNL     1       6.225   6.409  17.915  0.00  0.00    +0.000 C 
ENDROOT
BRANCH   4   7
ATOM      7  C   UNL     1       3.380   4.435  19.243  0.00  0.00    +0.000 A 
ATOM      8  C   UNL     1       3.154   3.061  19.467  0.00  0.00    +0.000 A 
ATOM      9  C   UNL     1       2.101   2.590  20.262  0.00  0.00    +0.000 A 
ATOM     10  C   UNL     1       1.244   3.487  20.882  0.00  0.00    +0.000 A 
ATOM     11  C   UNL     1       1.445   4.853  20.706  0.00  0.00    +0.000 A 
ATOM     12  C   UNL     1       2.489   5.323  19.893  0.00  0.00    +0.000 A 
ATOM     13 CL   UNL     1       2.506   7.040  19.629  0.00  0.00    +0.000 Cl
ENDBRANCH   4   7
BRANCH   1  14
ATOM     14  C   UNL     1       7.247   5.191  16.105  0.00  0.00    +0.000 C 
BRANCH  14  17
ATOM     15  O   UNL     1       7.809   5.530  13.410  0.00  0.00    +0.000 OA
ATOM     16  C   UNL     1       7.074   4.606  13.748  0.00  0.00    +0.000 C 
ATOM     17  N   UNL     1       6.744   4.348  15.057  0.00  0.00    +0.000 N 
ATOM     18  H   UNL     1       5.951   3.775  15.295  0.00  0.00    +0.000 HD
BRANCH  16  19
ATOM     19  C   UNL     1       6.496   3.714  12.708  0.00  0.00    +0.000 A 
ATOM     20  C   UNL     1       7.321   2.720  12.156  0.00  0.00    +0.000 A 
ATOM     21  C   UNL     1       6.811   1.820  11.219  0.00  0.00    +0.000 A 
ATOM     22  C   UNL     1       5.475   1.899  10.834  0.00  0.00    +0.000 A 
ATOM     23  C   UNL     1       4.653   2.880  11.393  0.00  0.00    +0.000 A 
ATOM     24 CL   UNL     1       2.994   2.953  10.936  0.00  0.00    +0.000 Cl
ATOM     25  C   UNL     1       5.152   3.789  12.325  0.00  0.00    +0.000 A 
ENDBRANCH  16  19
ENDBRANCH  14  17
ENDBRANCH   1  14
TORSDOF 4
ENDMDL
MODEL 4
REMARK VINA RESULT:      -7.6      1.880      2.531
REMARK  Name = 
REMARK  4 active torsions:
REMARK  status: ('A' for Active; 'I' for Inactive)
REMARK    1  A    between atoms: C_2  and  C_18
REMARK    2  A    between atoms: N_3  and  C_4
REMARK    3  A    between atoms: C_4  and  N_5
REMARK    4  A    between atoms: N_8  and  C_9
REMARK                            x       y       z     vdW  Elec       q    Type
REMARK                         _______ _______ _______ _____ _____    ______ ____
ROOT
ATOM      1  N   UNL     1       5.869   6.279  16.232  0.00  0.00    +0.000 NA
ATOM      2  C   UNL     1       5.319   4.908  16.068  0.00  0.00    +0.000 C 
ATOM      3  C   UNL     1       4.905   4.181  17.370  0.00  0.00    +0.000 C 
ATOM      4  N   UNL     1       3.965   5.027  18.117  0.00  0.00    +0.000 N 
ATOM      5  C   UNL     1       4.473   6.378  18.400  0.00  0.00    +0.000 C 
ATOM      6  C   UNL     1       4.899   7.054  17.064  0.00  0.00    +0.000 C 
ENDROOT
BRANCH   4   7
ATOM      7  C   UNL     1       2.907   4.465  18.821  0.00  0.00    +0.000 A 
ATOM      8  C   UNL     1       2.497   5.029  20.048  0.00  0.00    +0.000 A 
ATOM      9  C   UNL     1       1.511   4.445  20.853  0.00  0.00    +0.000 A 
ATOM     10  C   UNL     1       0.881   3.279  20.444  0.00  0.00    +0.000 A 
ATOM     11  C   UNL     1       1.238   2.702  19.229  0.00  0.00    +0.000 A 
ATOM     12  C   UNL     1       2.242   3.278  18.432  0.00  0.00    +0.000 A 
ATOM     13 CL   UNL     1       2.699   2.352  17.036  0.00  0.00    +0.000 Cl
ENDBRANCH   4   7
BRANCH   1  14
ATOM     14  C   UNL     1       7.177   6.294  16.872  0.00  0.00    +0.000 C 
BRANCH  14  17
ATOM     15  O   UNL     1       8.547   7.266  19.078  0.00  0.00    +0.000 OA
ATOM     16  C   UNL     1       8.231   8.050  18.187  0.00  0.00    +0.000 C 
ATOM     17  N   UNL     1       7.561   7.665  17.051  0.00  0.00    +0.000 N 
ATOM     18  H   UNL     1       7.083   8.337  16.472  0.00  0.00    +0.000 HD
BRANCH  16  19
ATOM     19  C   UNL     1       8.574   9.490  18.326  0.00  0.00    +0.000 A 
ATOM     20  C   UNL     1       7.966  10.404  17.449  0.00  0.00    +0.000 A 
ATOM     21  C   UNL     1       8.209  11.772  17.575  0.00  0.00    +0.000 A 
ATOM     22  C   UNL     1       9.053  12.239  18.579  0.00  0.00    +0.000 A 
ATOM     23  C   UNL     1       9.649  11.331  19.457  0.00  0.00    +0.000 A 
ATOM     24 CL   UNL     1      10.666  11.917  20.717  0.00  0.00    +0.000 Cl
ATOM     25  C   UNL     1       9.418   9.961  19.338  0.00  0.00    +0.000 A 
ENDBRANCH  16  19
ENDBRANCH  14  17
ENDBRANCH   1  14
TORSDOF 4
ENDMDL
MODEL 5
REMARK VINA RESULT:      -7.5      1.987      2.535
REMARK  Name = 
REMARK  4 active torsions:
REMARK  status: ('A' for Active; 'I' for Inactive)
REMARK    1  A    between atoms: C_2  and  C_18
REMARK    2  A    between atoms: N_3  and  C_4
REMARK    3  A    between atoms: C_4  and  N_5
REMARK    4  A    between atoms: N_8  and  C_9
REMARK                            x       y       z     vdW  Elec       q    Type
REMARK                         _______ _______ _______ _____ _____    ______ ____
ROOT
ATOM      1  N   UNL     1       5.671   6.473  16.058  0.00  0.00    +0.000 NA
ATOM      2  C   UNL     1       5.142   5.138  15.675  0.00  0.00    +0.000 C 
ATOM      3  C   UNL     1       4.823   4.172  16.840  0.00  0.00    +0.000 C 
ATOM      4  N   UNL     1       3.913   4.836  17.783  0.00  0.00    +0.000 N 
ATOM      5  C   UNL     1       4.409   6.128  18.282  0.00  0.00    +0.000 C 
ATOM      6  C   UNL     1       4.737   7.051  17.072  0.00  0.00    +0.000 C 
ENDROOT
BRANCH   4   7
ATOM      7  C   UNL     1       2.911   4.122  18.429  0.00  0.00    +0.000 A 
ATOM      8  C   UNL     1       2.613   2.803  18.026  0.00  0.00    +0.000 A 
ATOM      9  C   UNL     1       1.545   2.075  18.565  0.00  0.00    +0.000 A 
ATOM     10  C   UNL     1       0.746   2.637  19.550  0.00  0.00    +0.000 A 
ATOM     11  C   UNL     1       1.021   3.927  19.993  0.00  0.00    +0.000 A 
ATOM     12  C   UNL     1       2.079   4.665  19.438  0.00  0.00    +0.000 A 
ATOM     13 CL   UNL     1       2.188   6.316  19.966  0.00  0.00    +0.000 Cl
ENDBRANCH   4   7
BRANCH   1  14
ATOM     14  C   UNL     1       7.015   6.412  16.616  0.00  0.00    +0.000 C 
BRANCH  14  17
ATOM     15  O   UNL     1       8.432   7.139  18.886  0.00  0.00    +0.000 OA
ATOM     16  C   UNL     1       8.114   8.013  18.083  0.00  0.00    +0.000 C 
ATOM     17  N   UNL     1       7.422   7.753  16.925  0.00  0.00    +0.000 N 
ATOM     18  H   UNL     1       6.945   8.485  16.424  0.00  0.00    +0.000 HD
BRANCH  16  19
ATOM     19  C   UNL     1       8.481   9.427  18.360  0.00  0.00    +0.000 A 
ATOM     20  C   UNL     1       9.429   9.682  19.364  0.00  0.00    +0.000 A 
ATOM     21  C   UNL     1       9.850  10.987  19.623  0.00  0.00    +0.000 A 
ATOM     22  C   UNL     1       9.337  12.044  18.876  0.00  0.00    +0.000 A 
ATOM     23  C   UNL     1       8.403  11.789  17.870  0.00  0.00    +0.000 A 
ATOM     24 CL   UNL     1       7.795  13.097  16.929  0.00  0.00    +0.000 Cl
ATOM     25  C   UNL     1       7.969  10.490  17.606  0.00  0.00    +0.000 A 
ENDBRANCH  16  19
ENDBRANCH  14  17
ENDBRANCH   1  14
TORSDOF 4
ENDMDL
MODEL 6
REMARK VINA RESULT:      -7.5      4.818      7.538
REMARK  Name = 
REMARK  4 active torsions:
REMARK  status: ('A' for Active; 'I' for Inactive)
REMARK    1  A    between atoms: C_2  and  C_18
REMARK    2  A    between atoms: N_3  and  C_4
REMARK    3  A    between atoms: C_4  and  N_5
REMARK    4  A    between atoms: N_8  and  C_9
REMARK                            x       y       z     vdW  Elec       q    Type
REMARK                         _______ _______ _______ _____ _____    ______ ____
ROOT
ATOM      1  N   UNL     1       6.437   6.088  17.237  0.00  0.00    +0.000 NA
ATOM      2  C   UNL     1       5.076   5.997  16.648  0.00  0.00    +0.000 C 
ATOM      3  C   UNL     1       4.267   4.725  16.997  0.00  0.00    +0.000 C 
ATOM      4  N   UNL     1       4.207   4.576  18.457  0.00  0.00    +0.000 N 
ATOM      5  C   UNL     1       5.526   4.565  19.111  0.00  0.00    +0.000 C 
ATOM      6  C   UNL     1       6.306   5.850  18.707  0.00  0.00    +0.000 C 
ENDROOT
BRANCH   4   7
ATOM      7  C   UNL     1       3.064   4.088  19.077  0.00  0.00    +0.000 A 
ATOM      8  C   UNL     1       2.267   4.946  19.864  0.00  0.00    +0.000 A 
ATOM      9  C   UNL     1       1.167   4.487  20.600  0.00  0.00    +0.000 A 
ATOM     10  C   UNL     1       0.810   3.148  20.555  0.00  0.00    +0.000 A 
ATOM     11  C   UNL     1       1.556   2.271  19.772  0.00  0.00    +0.000 A 
ATOM     12  C   UNL     1       2.671   2.728  19.051  0.00  0.00    +0.000 A 
ATOM     13 CL   UNL     1       3.601   1.490  18.265  0.00  0.00    +0.000 Cl
ENDBRANCH   4   7
BRANCH   1  14
ATOM     14  C   UNL     1       7.367   5.121  16.671  0.00  0.00    +0.000 C 
BRANCH  14  17
ATOM     15  O   UNL     1       7.877   5.426  13.962  0.00  0.00    +0.000 OA
ATOM     16  C   UNL     1       7.000   4.641  14.312  0.00  0.00    +0.000 C 
ATOM     17  N   UNL     1       6.680   4.411  15.629  0.00  0.00    +0.000 N 
ATOM     18  H   UNL     1       5.806   3.983  15.888  0.00  0.00    +0.000 HD
BRANCH  16  19
ATOM     19  C   UNL     1       6.232   3.896  13.280  0.00  0.00    +0.000 A 
ATOM     20  C   UNL     1       4.931   4.332  12.979  0.00  0.00    +0.000 A 
ATOM     21  C   UNL     1       4.189   3.703  11.978  0.00  0.00    +0.000 A 
ATOM     22  C   UNL     1       4.743   2.643  11.265  0.00  0.00    +0.000 A 
ATOM     23  C   UNL     1       6.040   2.217  11.557  0.00  0.00    +0.000 A 
ATOM     24 CL   UNL     1       6.730   0.926  10.650  0.00  0.00    +0.000 Cl
ATOM     25  C   UNL     1       6.789   2.833  12.560  0.00  0.00    +0.000 A 
ENDBRANCH  16  19
ENDBRANCH  14  17
ENDBRANCH   1  14
TORSDOF 4
ENDMDL
MODEL 7
REMARK VINA RESULT:      -7.5      4.659      7.779
REMARK  Name = 
REMARK  4 active torsions:
REMARK  status: ('A' for Active; 'I' for Inactive)
REMARK    1  A    between atoms: C_2  and  C_18
REMARK    2  A    between atoms: N_3  and  C_4
REMARK    3  A    between atoms: C_4  and  N_5
REMARK    4  A    between atoms: N_8  and  C_9
REMARK                            x       y       z     vdW  Elec       q    Type
REMARK                         _______ _______ _______ _____ _____    ______ ____
ROOT
ATOM      1  N   UNL     1       6.381   6.098  16.301  0.00  0.00    +0.000 NA
ATOM      2  C   UNL     1       4.999   5.651  15.987  0.00  0.00    +0.000 C 
ATOM      3  C   UNL     1       4.432   4.519  16.875  0.00  0.00    +0.000 C 
ATOM      4  N   UNL     1       4.539   4.913  18.287  0.00  0.00    +0.000 N 
ATOM      5  C   UNL     1       5.900   5.284  18.702  0.00  0.00    +0.000 C 
ATOM      6  C   UNL     1       6.433   6.406  17.762  0.00  0.00    +0.000 C 
ENDROOT
BRANCH   4   7
ATOM      7  C   UNL     1       3.549   4.568  19.199  0.00  0.00    +0.000 A 
ATOM      8  C   UNL     1       2.614   5.535  19.624  0.00  0.00    +0.000 A 
ATOM      9  C   UNL     1       1.663   5.276  20.620  0.00  0.00    +0.000 A 
ATOM     10  C   UNL     1       1.603   4.025  21.215  0.00  0.00    +0.000 A 
ATOM     11  C   UNL     1       2.493   3.035  20.809  0.00  0.00    +0.000 A 
ATOM     12  C   UNL     1       3.458   3.301  19.824  0.00  0.00    +0.000 A 
ATOM     13 CL   UNL     1       4.606   2.027  19.550  0.00  0.00    +0.000 Cl
ENDBRANCH   4   7
BRANCH   1  14
ATOM     14  C   UNL     1       7.388   5.095  15.981  0.00  0.00    +0.000 C 
BRANCH  14  17
ATOM     15  O   UNL     1       7.747   5.535  13.266  0.00  0.00    +0.000 OA
ATOM     16  C   UNL     1       7.083   4.566  13.624  0.00  0.00    +0.000 C 
ATOM     17  N   UNL     1       6.857   4.256  14.943  0.00  0.00    +0.000 N 
ATOM     18  H   UNL     1       6.111   3.637  15.216  0.00  0.00    +0.000 HD
BRANCH  16  19
ATOM     19  C   UNL     1       6.481   3.674  12.598  0.00  0.00    +0.000 A 
ATOM     20  C   UNL     1       7.285   2.663  12.045  0.00  0.00    +0.000 A 
ATOM     21  C   UNL     1       6.751   1.763  11.122  0.00  0.00    +0.000 A 
ATOM     22  C   UNL     1       5.412   1.859  10.751  0.00  0.00    +0.000 A 
ATOM     23  C   UNL     1       4.611   2.857  11.310  0.00  0.00    +0.000 A 
ATOM     24 CL   UNL     1       2.949   2.951  10.871  0.00  0.00    +0.000 Cl
ATOM     25  C   UNL     1       5.134   3.766  12.229  0.00  0.00    +0.000 A 
ENDBRANCH  16  19
ENDBRANCH  14  17
ENDBRANCH   1  14
TORSDOF 4
ENDMDL
MODEL 8
REMARK VINA RESULT:      -7.4      4.367      7.647
REMARK  Name = 
REMARK  4 active torsions:
REMARK  status: ('A' for Active; 'I' for Inactive)
REMARK    1  A    between atoms: C_2  and  C_18
REMARK    2  A    between atoms: N_3  and  C_4
REMARK    3  A    between atoms: C_4  and  N_5
REMARK    4  A    between atoms: N_8  and  C_9
REMARK                            x       y       z     vdW  Elec       q    Type
REMARK                         _______ _______ _______ _____ _____    ______ ____
ROOT
ATOM      1  N   UNL     1       6.529   5.897  16.868  0.00  0.00    +0.000 NA
ATOM      2  C   UNL     1       5.096   5.675  16.539  0.00  0.00    +0.000 C 
ATOM      3  C   UNL     1       4.404   4.501  17.270  0.00  0.00    +0.000 C 
ATOM      4  N   UNL     1       4.581   4.663  18.720  0.00  0.00    +0.000 N 
ATOM      5  C   UNL     1       5.985   4.799  19.138  0.00  0.00    +0.000 C 
ATOM      6  C   UNL     1       6.640   5.975  18.356  0.00  0.00    +0.000 C 
ENDROOT
BRANCH   4   7
ATOM      7  C   UNL     1       3.570   4.310  19.604  0.00  0.00    +0.000 A 
ATOM      8  C   UNL     1       3.552   3.021  20.177  0.00  0.00    +0.000 A 
ATOM      9  C   UNL     1       2.502   2.572  20.989  0.00  0.00    +0.000 A 
ATOM     10  C   UNL     1       1.436   3.412  21.274  0.00  0.00    +0.000 A 
ATOM     11  C   UNL     1       1.426   4.700  20.749  0.00  0.00    +0.000 A 
ATOM     12  C   UNL     1       2.469   5.143  19.918  0.00  0.00    +0.000 A 
ATOM     13 CL   UNL     1       2.230   6.705  19.199  0.00  0.00    +0.000 Cl
ENDBRANCH   4   7
BRANCH   1  14
ATOM     14  C   UNL     1       7.396   4.838  16.371  0.00  0.00    +0.000 C 
BRANCH  14  17
ATOM     15  O   UNL     1       7.592   5.379  13.658  0.00  0.00    +0.000 OA
ATOM     16  C   UNL     1       6.840   4.482  14.028  0.00  0.00    +0.000 C 
ATOM     17  N   UNL     1       6.681   4.130  15.347  0.00  0.00    +0.000 N 
ATOM     18  H   UNL     1       5.886   3.595  15.654  0.00  0.00    +0.000 HD
BRANCH  16  19
ATOM     19  C   UNL     1       6.049   3.729  13.019  0.00  0.00    +0.000 A 
ATOM     20  C   UNL     1       4.886   4.328  12.507  0.00  0.00    +0.000 A 
ATOM     21  C   UNL     1       4.140   3.689  11.515  0.00  0.00    +0.000 A 
ATOM     22  C   UNL     1       4.553   2.454  11.022  0.00  0.00    +0.000 A 
ATOM     23  C   UNL     1       5.715   1.864  11.524  0.00  0.00    +0.000 A 
ATOM     24 CL   UNL     1       6.237   0.351  10.888  0.00  0.00    +0.000 Cl
ATOM     25  C   UNL     1       6.465   2.490  12.519  0.00  0.00    +0.000 A 
ENDBRANCH  16  19
ENDBRANCH  14  17
ENDBRANCH   1  14
TORSDOF 4
ENDMDL
MODEL 9
REMARK VINA RESULT:      -7.3      4.809      7.464
REMARK  Name = 
REMARK  4 active torsions:
REMARK  status: ('A' for Active; 'I' for Inactive)
REMARK    1  A    between atoms: C_2  and  C_18
REMARK    2  A    between atoms: N_3  and  C_4
REMARK    3  A    between atoms: C_4  and  N_5
REMARK    4  A    between atoms: N_8  and  C_9
REMARK                            x       y       z     vdW  Elec       q    Type
REMARK                         _______ _______ _______ _____ _____    ______ ____
ROOT
ATOM      1  N   UNL     1       6.585   5.154  17.153  0.00  0.00    +0.000 NA
ATOM      2  C   UNL     1       6.158   5.751  18.445  0.00  0.00    +0.000 C 
ATOM      3  C   UNL     1       4.638   5.747  18.728  0.00  0.00    +0.000 C 
ATOM      4  N   UNL     1       4.127   4.375  18.601  0.00  0.00    +0.000 N 
ATOM      5  C   UNL     1       4.430   3.742  17.308  0.00  0.00    +0.000 C 
ATOM      6  C   UNL     1       5.966   3.796  17.061  0.00  0.00    +0.000 C 
ENDROOT
BRANCH   4   7
ATOM      7  C   UNL     1       3.127   3.906  19.444  0.00  0.00    +0.000 A 
ATOM      8  C   UNL     1       3.466   3.278  20.661  0.00  0.00    +0.000 A 
ATOM      9  C   UNL     1       2.508   2.691  21.498  0.00  0.00    +0.000 A 
ATOM     10  C   UNL     1       1.166   2.731  21.152  0.00  0.00    +0.000 A 
ATOM     11  C   UNL     1       0.785   3.362  19.972  0.00  0.00    +0.000 A 
ATOM     12  C   UNL     1       1.748   3.933  19.123  0.00  0.00    +0.000 A 
ATOM     13 CL   UNL     1       1.140   4.525  17.608  0.00  0.00    +0.000 Cl
ENDBRANCH   4   7
BRANCH   1  14
ATOM     14  C   UNL     1       6.184   5.948  16.000  0.00  0.00    +0.000 C 
BRANCH  14  17
ATOM     15  O   UNL     1       7.865   5.354  13.876  0.00  0.00    +0.000 OA
ATOM     16  C   UNL     1       6.759   4.822  13.920  0.00  0.00    +0.000 C 
ATOM     17  N   UNL     1       5.859   5.043  14.935  0.00  0.00    +0.000 N 
ATOM     18  H   UNL     1       4.883   4.821  14.826  0.00  0.00    +0.000 HD
BRANCH  16  19
ATOM     19  C   UNL     1       6.350   3.896  12.831  0.00  0.00    +0.000 A 
ATOM     20  C   UNL     1       7.325   3.045  12.284  0.00  0.00    +0.000 A 
ATOM     21  C   UNL     1       6.980   2.117  11.301  0.00  0.00    +0.000 A 
ATOM     22  C   UNL     1       5.661   2.024  10.864  0.00  0.00    +0.000 A 
ATOM     23  C   UNL     1       4.691   2.863  11.416  0.00  0.00    +0.000 A 
ATOM     24 CL   UNL     1       3.056   2.722  10.894  0.00  0.00    +0.000 Cl
ATOM     25  C   UNL     1       5.024   3.799  12.394  0.00  0.00    +0.000 A 
ENDBRANCH  16  19
ENDBRANCH  14  17
ENDBRANCH   1  14
TORSDOF 4
ENDMDL
