MODEL 1
REMARK VINA RESULT:      -7.2      0.000      0.000
REMARK  Name = 
REMARK  5 active torsions:
REMARK  status: ('A' for Active; 'I' for Inactive)
REMARK    1  A    between atoms: C_1  and  N_2
REMARK    2  A    between atoms: C_4  and  C_5
REMARK    3  A    between atoms: C_5  and  C_6
REMARK    4  A    between atoms: N_8  and  C_9
REMARK    5  A    between atoms: C_9  and  C_10
REMARK                            x       y       z     vdW  Elec       q    Type
REMARK                         _______ _______ _______ _____ _____    ______ ____
ROOT
ATOM      1  C   UNL     1       5.598   4.919  18.794  0.00  0.00    +0.000 C 
ATOM      2  C   UNL     1       6.902   5.509  19.378  0.00  0.00    +0.000 C 
ATOM      3  C   UNL     1       4.354   5.646  19.449  0.00  0.00    +0.000 C 
ATOM      4  N   UNL     1       3.095   4.847  19.393  0.00  0.00    +0.000 NA
ATOM      5  C   UNL     1       3.383   3.565  20.062  0.00  0.00    +0.000 C 
ATOM      6  C   UNL     1       4.501   2.813  19.332  0.00  0.00    +0.000 C 
ATOM      7  O   UNL     1       5.718   3.542  19.222  0.00  0.00    +0.000 OA
ENDROOT
BRANCH   1  11
ATOM      8  C   UNL     1       5.896   4.149  13.788  0.00  0.00    +0.000 C 
ATOM      9  N   UNL     1       5.716   4.718  15.098  0.00  0.00    +0.000 N 
ATOM     10  C   UNL     1       5.833   4.089  16.303  0.00  0.00    +0.000 A 
ATOM     11  C   UNL     1       5.581   5.050  17.281  0.00  0.00    +0.000 A 
ATOM     12  C   UNL     1       5.342   6.223  16.519  0.00  0.00    +0.000 A 
ATOM     13  N   UNL     1       5.436   6.027  15.198  0.00  0.00    +0.000 NA
ENDBRANCH   1  11
BRANCH   4  14
ATOM     14  C   UNL     1       1.962   5.577  19.996  0.00  0.00    +0.000 C 
BRANCH  14  15
ATOM     15  C   UNL     1       1.886   7.050  19.609  0.00  0.00    +0.000 A 
ATOM     16  C   UNL     1       2.135   7.479  18.293  0.00  0.00    +0.000 A 
ATOM     17  C   UNL     1       1.958   8.825  17.933  0.00  0.00    +0.000 A 
ATOM     18  C   UNL     1       1.516   9.751  18.876  0.00  0.00    +0.000 A 
ATOM     19 CL   UNL     1       1.211  11.376  18.402  0.00  0.00    +0.000 Cl
ATOM     20  C   UNL     1       1.305   9.342  20.190  0.00  0.00    +0.000 A 
ATOM     21  F   UNL     1       0.859  10.204  21.114  0.00  0.00    +0.000 F 
ATOM     22  C   UNL     1       1.519   8.012  20.564  0.00  0.00    +0.000 A 
ENDBRANCH  14  15
ENDBRANCH   4  14
TORSDOF 3
ENDMDL
MODEL 2
REMARK VINA RESULT:      -7.0      2.499      3.465
REMARK  Name = 
REMARK  5 active torsions:
REMARK  status: ('A' for Active; 'I' for Inactive)
REMARK    1  A    between atoms: C_1  and  N_2
REMARK    2  A    between atoms: C_4  and  C_5
REMARK    3  A    between atoms: C_5  and  C_6
REMARK    4  A    between atoms: N_8  and  C_9
REMARK    5  A    between atoms: C_9  and  C_10
REMARK                            x       y       z     vdW  Elec       q    Type
REMARK                         _______ _______ _______ _____ _____    ______ ____
ROOT
ATOM      1  C   UNL     1       7.384   5.687  18.548  0.00  0.00    +0.000 C 
ATOM      2  C   UNL     1       8.191   5.165  19.758  0.00  0.00    +0.000 C 
ATOM      3  C   UNL     1       5.837   5.514  18.835  0.00  0.00    +0.000 C 
ATOM      4  N   UNL     1       4.999   5.467  17.601  0.00  0.00    +0.000 NA
ATOM      5  C   UNL     1       5.522   4.357  16.783  0.00  0.00    +0.000 C 
ATOM      6  C   UNL     1       6.985   4.608  16.402  0.00  0.00    +0.000 C 
ATOM      7  O   UNL     1       7.853   4.791  17.514  0.00  0.00    +0.000 OA
ENDROOT
BRANCH   1  11
ATOM      8  C   UNL     1       9.248  10.405  18.609  0.00  0.00    +0.000 C 
ATOM      9  N   UNL     1       8.541   9.195  18.282  0.00  0.00    +0.000 N 
ATOM     10  C   UNL     1       8.602   7.994  18.927  0.00  0.00    +0.000 A 
ATOM     11  C   UNL     1       7.733   7.135  18.254  0.00  0.00    +0.000 A 
ATOM     12  C   UNL     1       7.202   7.960  17.230  0.00  0.00    +0.000 A 
ATOM     13  N   UNL     1       7.679   9.211  17.252  0.00  0.00    +0.000 NA
ENDBRANCH   1  11
BRANCH   4  14
ATOM     14  C   UNL     1       3.565   5.328  17.924  0.00  0.00    +0.000 C 
BRANCH  14  15
ATOM     15  C   UNL     1       2.912   6.603  18.446  0.00  0.00    +0.000 A 
ATOM     16  C   UNL     1       2.735   7.730  17.624  0.00  0.00    +0.000 A 
ATOM     17  C   UNL     1       2.039   8.857  18.092  0.00  0.00    +0.000 A 
ATOM     18  C   UNL     1       1.498   8.863  19.376  0.00  0.00    +0.000 A 
ATOM     19 CL   UNL     1       0.565  10.208  19.905  0.00  0.00    +0.000 Cl
ATOM     20  C   UNL     1       1.702   7.766  20.210  0.00  0.00    +0.000 A 
ATOM     21  F   UNL     1       1.176   7.735  21.443  0.00  0.00    +0.000 F 
ATOM     22  C   UNL     1       2.430   6.659  19.764  0.00  0.00    +0.000 A 
ENDBRANCH  14  15
ENDBRANCH   4  14
TORSDOF 3
ENDMDL
MODEL 3
REMARK VINA RESULT:      -7.0      2.036      4.093
REMARK  Name = 
REMARK  5 active torsions:
REMARK  status: ('A' for Active; 'I' for Inactive)
REMARK    1  A    between atoms: C_1  and  N_2
REMARK    2  A    between atoms: C_4  and  C_5
REMARK    3  A    between atoms: C_5  and  C_6
REMARK    4  A    between atoms: N_8  and  C_9
REMARK    5  A    between atoms: C_9  and  C_10
REMARK                            x       y       z     vdW  Elec       q    Type
REMARK                         _______ _______ _______ _____ _____    ______ ____
ROOT
ATOM      1  C   UNL     1       4.394   3.972  17.832  0.00  0.00    +0.000 C 
ATOM      2  C   UNL     1       4.362   2.925  16.696  0.00  0.00    +0.000 C 
ATOM      3  C   UNL     1       3.583   5.255  17.386  0.00  0.00    +0.000 C 
ATOM      4  N   UNL     1       3.970   6.495  18.121  0.00  0.00    +0.000 NA
ATOM      5  C   UNL     1       5.418   6.673  17.907  0.00  0.00    +0.000 C 
ATOM      6  C   UNL     1       6.198   5.479  18.467  0.00  0.00    +0.000 C 
ATOM      7  O   UNL     1       5.816   4.223  17.917  0.00  0.00    +0.000 OA
ENDROOT
BRANCH   1  11
ATOM      8  C   UNL     1       1.530   2.712  21.826  0.00  0.00    +0.000 C 
ATOM      9  N   UNL     1       2.592   2.839  20.863  0.00  0.00    +0.000 N 
ATOM     10  C   UNL     1       2.583   3.557  19.702  0.00  0.00    +0.000 A 
ATOM     11  C   UNL     1       3.838   3.386  19.118  0.00  0.00    +0.000 A 
ATOM     12  C   UNL     1       4.509   2.550  20.047  0.00  0.00    +0.000 A 
ATOM     13  N   UNL     1       3.762   2.229  21.111  0.00  0.00    +0.000 NA
ENDBRANCH   1  11
BRANCH   4  14
ATOM     14  C   UNL     1       3.170   7.657  17.683  0.00  0.00    +0.000 C 
BRANCH  14  15
ATOM     15  C   UNL     1       2.187   8.173  18.728  0.00  0.00    +0.000 A 
ATOM     16  C   UNL     1       2.055   7.553  19.983  0.00  0.00    +0.000 A 
ATOM     17  C   UNL     1       1.221   8.104  20.971  0.00  0.00    +0.000 A 
ATOM     18  C   UNL     1       0.525   9.285  20.720  0.00  0.00    +0.000 A 
ATOM     19 CL   UNL     1      -0.418  10.003  21.968  0.00  0.00    +0.000 Cl
ATOM     20  C   UNL     1       0.620   9.883  19.467  0.00  0.00    +0.000 A 
ATOM     21  F   UNL     1      -0.021  11.031  19.203  0.00  0.00    +0.000 F 
ATOM     22  C   UNL     1       1.416   9.317  18.467  0.00  0.00    +0.000 A 
ENDBRANCH  14  15
ENDBRANCH   4  14
TORSDOF 3
ENDMDL
MODEL 4
REMARK VINA RESULT:      -6.9      1.368      1.922
REMARK  Name = 
REMARK  5 active torsions:
REMARK  status: ('A' for Active; 'I' for Inactive)
REMARK    1  A    between atoms: C_1  and  N_2
REMARK    2  A    between atoms: C_4  and  C_5
REMARK    3  A    between atoms: C_5  and  C_6
REMARK    4  A    between atoms: N_8  and  C_9
REMARK    5  A    between atoms: C_9  and  C_10
REMARK                            x       y       z     vdW  Elec       q    Type
REMARK                         _______ _______ _______ _____ _____    ______ ____
ROOT
ATOM      1  C   UNL     1       3.799   3.170  19.133  0.00  0.00    +0.000 C 
ATOM      2  C   UNL     1       4.512   1.991  19.832  0.00  0.00    +0.000 C 
ATOM      3  C   UNL     1       3.381   4.246  20.216  0.00  0.00    +0.000 C 
ATOM      4  N   UNL     1       2.259   5.130  19.781  0.00  0.00    +0.000 NA
ATOM      5  C   UNL     1       1.133   4.240  19.446  0.00  0.00    +0.000 C 
ATOM      6  C   UNL     1       1.514   3.294  18.302  0.00  0.00    +0.000 C 
ATOM      7  O   UNL     1       2.655   2.487  18.569  0.00  0.00    +0.000 OA
ENDROOT
BRANCH   1  11
ATOM      8  C   UNL     1       6.062   4.501  14.792  0.00  0.00    +0.000 C 
ATOM      9  N   UNL     1       5.682   4.355  16.173  0.00  0.00    +0.000 N 
ATOM     10  C   UNL     1       4.650   3.620  16.679  0.00  0.00    +0.000 A 
ATOM     11  C   UNL     1       4.689   3.778  18.064  0.00  0.00    +0.000 A 
ATOM     12  C   UNL     1       5.811   4.625  18.255  0.00  0.00    +0.000 A 
ATOM     13  N   UNL     1       6.421   4.966  17.112  0.00  0.00    +0.000 NA
ENDBRANCH   1  11
BRANCH   4  14
ATOM     14  C   UNL     1       1.924   6.129  20.816  0.00  0.00    +0.000 C 
BRANCH  14  15
ATOM     15  C   UNL     1       1.674   7.533  20.278  0.00  0.00    +0.000 A 
ATOM     16  C   UNL     1       2.065   7.903  18.979  0.00  0.00    +0.000 A 
ATOM     17  C   UNL     1       1.734   9.168  18.463  0.00  0.00    +0.000 A 
ATOM     18  C   UNL     1       0.996  10.066  19.232  0.00  0.00    +0.000 A 
ATOM     19 CL   UNL     1       0.513  11.573  18.557  0.00  0.00    +0.000 Cl
ATOM     20  C   UNL     1       0.639   9.722  20.533  0.00  0.00    +0.000 A 
ATOM     21  F   UNL     1      -0.088  10.557  21.289  0.00  0.00    +0.000 F 
ATOM     22  C   UNL     1       1.002   8.482  21.066  0.00  0.00    +0.000 A 
ENDBRANCH  14  15
ENDBRANCH   4  14
TORSDOF 3
ENDMDL
MODEL 5
REMARK VINA RESULT:      -6.9      1.599      2.317
REMARK  Name = 
REMARK  5 active torsions:
REMARK  status: ('A' for Active; 'I' for Inactive)
REMARK    1  A    between atoms: C_1  and  N_2
REMARK    2  A    between atoms: C_4  and  C_5
REMARK    3  A    between atoms: C_5  and  C_6
REMARK    4  A    between atoms: N_8  and  C_9
REMARK    5  A    between atoms: C_9  and  C_10
REMARK                            x       y       z     vdW  Elec       q    Type
REMARK                         _______ _______ _______ _____ _____    ______ ____
ROOT
ATOM      1  C   UNL     1       3.802   3.244  19.129  0.00  0.00    +0.000 C 
ATOM      2  C   UNL     1       4.518   2.060  19.815  0.00  0.00    +0.000 C 
ATOM      3  C   UNL     1       3.410   4.323  20.219  0.00  0.00    +0.000 C 
ATOM      4  N   UNL     1       2.287   5.215  19.804  0.00  0.00    +0.000 NA
ATOM      5  C   UNL     1       1.149   4.333  19.486  0.00  0.00    +0.000 C 
ATOM      6  C   UNL     1       1.504   3.385  18.335  0.00  0.00    +0.000 C 
ATOM      7  O   UNL     1       2.644   2.571  18.583  0.00  0.00    +0.000 OA
ENDROOT
BRANCH   1  11
ATOM      8  C   UNL     1       6.058   4.502  14.762  0.00  0.00    +0.000 C 
ATOM      9  N   UNL     1       5.669   4.393  16.144  0.00  0.00    +0.000 N 
ATOM     10  C   UNL     1       4.661   3.636  16.668  0.00  0.00    +0.000 A 
ATOM     11  C   UNL     1       4.679   3.847  18.046  0.00  0.00    +0.000 A 
ATOM     12  C   UNL     1       5.764   4.746  18.215  0.00  0.00    +0.000 A 
ATOM     13  N   UNL     1       6.373   5.067  17.066  0.00  0.00    +0.000 NA
ENDBRANCH   1  11
BRANCH   4  14
ATOM     14  C   UNL     1       1.976   6.215  20.845  0.00  0.00    +0.000 C 
BRANCH  14  15
ATOM     15  C   UNL     1       1.563   7.579  20.303  0.00  0.00    +0.000 A 
ATOM     16  C   UNL     1       0.870   8.508  21.099  0.00  0.00    +0.000 A 
ATOM     17  C   UNL     1       0.590   9.797  20.616  0.00  0.00    +0.000 A 
ATOM     18  C   UNL     1       1.012  10.176  19.343  0.00  0.00    +0.000 A 
ATOM     19 CL   UNL     1       0.748  11.786  18.798  0.00  0.00    +0.000 Cl
ATOM     20  C   UNL     1       1.663   9.249  18.534  0.00  0.00    +0.000 A 
ATOM     21  F   UNL     1       2.100   9.590  17.313  0.00  0.00    +0.000 F 
ATOM     22  C   UNL     1       1.909   7.952  18.994  0.00  0.00    +0.000 A 
ENDBRANCH  14  15
ENDBRANCH   4  14
TORSDOF 3
ENDMDL
MODEL 6
REMARK VINA RESULT:      -6.9      2.532      3.571
REMARK  Name = 
REMARK  5 active torsions:
REMARK  status: ('A' for Active; 'I' for Inactive)
REMARK    1  A    between atoms: C_1  and  N_2
REMARK    2  A    between atoms: C_4  and  C_5
REMARK    3  A    between atoms: C_5  and  C_6
REMARK    4  A    between atoms: N_8  and  C_9
REMARK    5  A    between atoms: C_9  and  C_10
REMARK                            x       y       z     vdW  Elec       q    Type
REMARK                         _______ _______ _______ _____ _____    ______ ____
ROOT
ATOM      1  C   UNL     1       7.341   5.559  18.481  0.00  0.00    +0.000 C 
ATOM      2  C   UNL     1       8.208   5.106  19.678  0.00  0.00    +0.000 C 
ATOM      3  C   UNL     1       5.817   5.277  18.801  0.00  0.00    +0.000 C 
ATOM      4  N   UNL     1       4.960   5.159  17.585  0.00  0.00    +0.000 NA
ATOM      5  C   UNL     1       5.545   4.084  16.763  0.00  0.00    +0.000 C 
ATOM      6  C   UNL     1       6.978   4.437  16.351  0.00  0.00    +0.000 C 
ATOM      7  O   UNL     1       7.854   4.691  17.443  0.00  0.00    +0.000 OA
ENDROOT
BRANCH   1  11
ATOM      8  C   UNL     1       9.015  10.346  18.338  0.00  0.00    +0.000 C 
ATOM      9  N   UNL     1       8.303   9.116  18.111  0.00  0.00    +0.000 N 
ATOM     10  C   UNL     1       8.524   7.904  18.698  0.00  0.00    +0.000 A 
ATOM     11  C   UNL     1       7.578   7.026  18.171  0.00  0.00    +0.000 A 
ATOM     12  C   UNL     1       6.838   7.852  17.286  0.00  0.00    +0.000 A 
ATOM     13  N   UNL     1       7.266   9.120  17.258  0.00  0.00    +0.000 NA
ENDBRANCH   1  11
BRANCH   4  14
ATOM     14  C   UNL     1       3.546   4.919  17.938  0.00  0.00    +0.000 C 
BRANCH  14  15
ATOM     15  C   UNL     1       2.824   6.137  18.503  0.00  0.00    +0.000 A 
ATOM     16  C   UNL     1       2.310   6.147  19.811  0.00  0.00    +0.000 A 
ATOM     17  C   UNL     1       1.740   7.313  20.349  0.00  0.00    +0.000 A 
ATOM     18  C   UNL     1       1.692   8.483  19.593  0.00  0.00    +0.000 A 
ATOM     19 CL   UNL     1       1.080   9.930  20.293  0.00  0.00    +0.000 Cl
ATOM     20  C   UNL     1       2.164   8.470  18.283  0.00  0.00    +0.000 A 
ATOM     21  F   UNL     1       2.151   9.585  17.538  0.00  0.00    +0.000 F 
ATOM     22  C   UNL     1       2.694   7.302  17.728  0.00  0.00    +0.000 A 
ENDBRANCH  14  15
ENDBRANCH   4  14
TORSDOF 3
ENDMDL
MODEL 7
REMARK VINA RESULT:      -6.8      1.591      2.416
REMARK  Name = 
REMARK  5 active torsions:
REMARK  status: ('A' for Active; 'I' for Inactive)
REMARK    1  A    between atoms: C_1  and  N_2
REMARK    2  A    between atoms: C_4  and  C_5
REMARK    3  A    between atoms: C_5  and  C_6
REMARK    4  A    between atoms: N_8  and  C_9
REMARK    5  A    between atoms: C_9  and  C_10
REMARK                            x       y       z     vdW  Elec       q    Type
REMARK                         _______ _______ _______ _____ _____    ______ ____
ROOT
ATOM      1  C   UNL     1       4.171   3.539  19.186  0.00  0.00    +0.000 C 
ATOM      2  C   UNL     1       4.605   2.234  19.890  0.00  0.00    +0.000 C 
ATOM      3  C   UNL     1       3.320   4.418  20.190  0.00  0.00    +0.000 C 
ATOM      4  N   UNL     1       2.419   5.398  19.515  0.00  0.00    +0.000 NA
ATOM      5  C   UNL     1       1.551   4.616  18.616  0.00  0.00    +0.000 C 
ATOM      6  C   UNL     1       2.386   3.877  17.565  0.00  0.00    +0.000 C 
ATOM      7  O   UNL     1       3.367   3.002  18.110  0.00  0.00    +0.000 OA
ENDROOT
BRANCH   1  11
ATOM      8  C   UNL     1       8.061   6.732  18.543  0.00  0.00    +0.000 C 
ATOM      9  N   UNL     1       7.074   5.696  18.388  0.00  0.00    +0.000 N 
ATOM     10  C   UNL     1       6.092   5.343  19.267  0.00  0.00    +0.000 A 
ATOM     11  C   UNL     1       5.381   4.300  18.673  0.00  0.00    +0.000 A 
ATOM     12  C   UNL     1       6.037   4.139  17.426  0.00  0.00    +0.000 A 
ATOM     13  N   UNL     1       7.055   4.991  17.245  0.00  0.00    +0.000 NA
ENDBRANCH   1  11
BRANCH   4  14
ATOM     14  C   UNL     1       1.666   6.207  20.495  0.00  0.00    +0.000 C 
BRANCH  14  15
ATOM     15  C   UNL     1       1.524   7.677  20.119  0.00  0.00    +0.000 A 
ATOM     16  C   UNL     1       1.916   8.155  18.857  0.00  0.00    +0.000 A 
ATOM     17  C   UNL     1       1.681   9.492  18.492  0.00  0.00    +0.000 A 
ATOM     18  C   UNL     1       1.038  10.357  19.375  0.00  0.00    +0.000 A 
ATOM     19 CL   UNL     1       0.669  11.963  18.883  0.00  0.00    +0.000 Cl
ATOM     20  C   UNL     1       0.681   9.901  20.641  0.00  0.00    +0.000 A 
ATOM     21  F   UNL     1       0.043  10.703  21.505  0.00  0.00    +0.000 F 
ATOM     22  C   UNL     1       0.950   8.584  21.026  0.00  0.00    +0.000 A 
ENDBRANCH  14  15
ENDBRANCH   4  14
TORSDOF 3
ENDMDL
MODEL 8
REMARK VINA RESULT:      -6.8      1.953      4.001
REMARK  Name = 
REMARK  5 active torsions:
REMARK  status: ('A' for Active; 'I' for Inactive)
REMARK    1  A    between atoms: C_1  and  N_2
REMARK    2  A    between atoms: C_4  and  C_5
REMARK    3  A    between atoms: C_5  and  C_6
REMARK    4  A    between atoms: N_8  and  C_9
REMARK    5  A    between atoms: C_9  and  C_10
REMARK                            x       y       z     vdW  Elec       q    Type
REMARK                         _______ _______ _______ _____ _____    ______ ____
ROOT
ATOM      1  C   UNL     1       4.539   3.882  17.847  0.00  0.00    +0.000 C 
ATOM      2  C   UNL     1       4.632   2.761  16.789  0.00  0.00    +0.000 C 
ATOM      3  C   UNL     1       3.747   5.111  17.241  0.00  0.00    +0.000 C 
ATOM      4  N   UNL     1       4.040   6.408  17.919  0.00  0.00    +0.000 NA
ATOM      5  C   UNL     1       5.498   6.608  17.825  0.00  0.00    +0.000 C 
ATOM      6  C   UNL     1       6.246   5.475  18.536  0.00  0.00    +0.000 C 
ATOM      7  O   UNL     1       5.942   4.176  18.042  0.00  0.00    +0.000 OA
ENDROOT
BRANCH   1  11
ATOM      8  C   UNL     1       1.366   2.872  21.675  0.00  0.00    +0.000 C 
ATOM      9  N   UNL     1       2.498   2.933  20.788  0.00  0.00    +0.000 N 
ATOM     10  C   UNL     1       2.589   3.593  19.597  0.00  0.00    +0.000 A 
ATOM     11  C   UNL     1       3.878   3.370  19.115  0.00  0.00    +0.000 A 
ATOM     12  C   UNL     1       4.462   2.569  20.130  0.00  0.00    +0.000 A 
ATOM     13  N   UNL     1       3.633   2.314  21.150  0.00  0.00    +0.000 NA
ENDBRANCH   1  11
BRANCH   4  14
ATOM     14  C   UNL     1       3.261   7.516  17.332  0.00  0.00    +0.000 C 
BRANCH  14  15
ATOM     15  C   UNL     1       2.406   8.284  18.333  0.00  0.00    +0.000 A 
ATOM     16  C   UNL     1       1.786   9.499  17.992  0.00  0.00    +0.000 A 
ATOM     17  C   UNL     1       0.918  10.138  18.894  0.00  0.00    +0.000 A 
ATOM     18  C   UNL     1       0.650   9.564  20.135  0.00  0.00    +0.000 A 
ATOM     19 CL   UNL     1      -0.487  10.305  21.193  0.00  0.00    +0.000 Cl
ATOM     20  C   UNL     1       1.291   8.382  20.495  0.00  0.00    +0.000 A 
ATOM     21  F   UNL     1       1.037   7.794  21.674  0.00  0.00    +0.000 F 
ATOM     22  C   UNL     1       2.187   7.762  19.619  0.00  0.00    +0.000 A 
ENDBRANCH  14  15
ENDBRANCH   4  14
TORSDOF 3
ENDMDL
MODEL 9
REMARK VINA RESULT:      -6.8      1.608      2.171
REMARK  Name = 
REMARK  5 active torsions:
REMARK  status: ('A' for Active; 'I' for Inactive)
REMARK    1  A    between atoms: C_1  and  N_2
REMARK    2  A    between atoms: C_4  and  C_5
REMARK    3  A    between atoms: C_5  and  C_6
REMARK    4  A    between atoms: N_8  and  C_9
REMARK    5  A    between atoms: C_9  and  C_10
REMARK                            x       y       z     vdW  Elec       q    Type
REMARK                         _______ _______ _______ _____ _____    ______ ____
ROOT
ATOM      1  C   UNL     1       3.577   3.338  19.314  0.00  0.00    +0.000 C 
ATOM      2  C   UNL     1       4.590   2.359  19.948  0.00  0.00    +0.000 C 
ATOM      3  C   UNL     1       3.185   4.446  20.374  0.00  0.00    +0.000 C 
ATOM      4  N   UNL     1       1.872   5.101  20.100  0.00  0.00    +0.000 NA
ATOM      5  C   UNL     1       0.869   4.022  20.054  0.00  0.00    +0.000 C 
ATOM      6  C   UNL     1       1.193   3.030  18.932  0.00  0.00    +0.000 C 
ATOM      7  O   UNL     1       2.482   2.437  19.032  0.00  0.00    +0.000 OA
ENDROOT
BRANCH   1  11
ATOM      8  C   UNL     1       5.263   6.489  15.713  0.00  0.00    +0.000 C 
ATOM      9  N   UNL     1       4.879   5.332  16.477  0.00  0.00    +0.000 N 
ATOM     10  C   UNL     1       4.382   5.300  17.748  0.00  0.00    +0.000 A 
ATOM     11  C   UNL     1       4.149   3.959  18.052  0.00  0.00    +0.000 A 
ATOM     12  C   UNL     1       4.537   3.292  16.861  0.00  0.00    +0.000 A 
ATOM     13  N   UNL     1       4.967   4.121  15.902  0.00  0.00    +0.000 NA
ENDBRANCH   1  11
BRANCH   4  14
ATOM     14  C   UNL     1       1.565   6.140  21.104  0.00  0.00    +0.000 C 
BRANCH  14  15
ATOM     15  C   UNL     1       1.418   7.545  20.530  0.00  0.00    +0.000 A 
ATOM     16  C   UNL     1       1.943   7.884  19.270  0.00  0.00    +0.000 A 
ATOM     17  C   UNL     1       1.708   9.152  18.713  0.00  0.00    +0.000 A 
ATOM     18  C   UNL     1       0.934  10.086  19.399  0.00  0.00    +0.000 A 
ATOM     19 CL   UNL     1       0.572  11.600  18.667  0.00  0.00    +0.000 Cl
ATOM     20  C   UNL     1       0.443   9.772  20.664  0.00  0.00    +0.000 A 
ATOM     21  F   UNL     1      -0.321  10.642  21.339  0.00  0.00    +0.000 F 
ATOM     22  C   UNL     1       0.709   8.527  21.241  0.00  0.00    +0.000 A 
ENDBRANCH  14  15
ENDBRANCH   4  14
TORSDOF 3
ENDMDL
