MODEL 1
REMARK VINA RESULT:      -7.5      0.000      0.000
REMARK  Name = 
REMARK  2 active torsions:
REMARK  status: ('A' for Active; 'I' for Inactive)
REMARK    1  A    between atoms: C_8  and  N_9
REMARK    2  A    between atoms: N_18  and  O_19
REMARK                            x       y       z     vdW  Elec       q    Type
REMARK                         _______ _______ _______ _____ _____    ______ ____
ROOT
ATOM      1  O   UNL     1       0.353   1.759  18.585  0.00  0.00    +0.000 OA
ATOM      2  C   UNL     1       1.206   2.643  18.652  0.00  0.00    +0.000 A 
ATOM      3  N   UNL     1       2.163   2.726  17.668  0.00  0.00    +0.000 N 
ATOM      4  C   UNL     1       3.208   3.651  17.684  0.00  0.00    +0.000 A 
ATOM      5  C   UNL     1       4.164   3.633  16.671  0.00  0.00    +0.000 A 
ATOM      6  C   UNL     1       5.264   4.507  16.710  0.00  0.00    +0.000 A 
ATOM      7 CL   UNL     1       6.449   4.221  15.482  0.00  0.00    +0.000 Cl
ATOM      8  C   UNL     1       5.397   5.426  17.771  0.00  0.00    +0.000 A 
ATOM      9  C   UNL     1       4.404   5.451  18.775  0.00  0.00    +0.000 A 
ATOM     10  C   UNL     1       3.322   4.565  18.725  0.00  0.00    +0.000 A 
ATOM     11  C   UNL     1       2.292   4.557  19.786  0.00  0.00    +0.000 A 
ATOM     12  O   UNL     1       2.332   5.352  20.720  0.00  0.00    +0.000 OA
ATOM     13  N   UNL     1       1.312   3.591  19.652  0.00  0.00    +0.000 N 
ATOM     14  H   UNL     1       2.087   2.030  16.935  0.00  0.00    +0.000 HD
ENDROOT
BRANCH   8  15
ATOM     15  N   UNL     1       6.509   6.310  17.913  0.00  0.00    +0.000 N 
ATOM     16  C   UNL     1       6.706   7.472  17.183  0.00  0.00    +0.000 A 
ATOM     17  C   UNL     1       7.835   8.114  17.644  0.00  0.00    +0.000 A 
ATOM     18  C   UNL     1       8.397   7.298  18.644  0.00  0.00    +0.000 A 
ATOM     19  C   UNL     1       7.590   6.187  18.762  0.00  0.00    +0.000 A 
ENDBRANCH   8  15
BRANCH  13  20
ATOM     20  O   UNL     1       0.348   3.547  20.683  0.00  0.00    +0.000 OA
ATOM     21  H   UNL     1       0.529   2.676  21.092  0.00  0.00    +0.000 HD
ENDBRANCH  13  20
TORSDOF 2
ENDMDL
MODEL 2
REMARK VINA RESULT:      -7.3      3.309      4.481
REMARK  Name = 
REMARK  2 active torsions:
REMARK  status: ('A' for Active; 'I' for Inactive)
REMARK    1  A    between atoms: C_8  and  N_9
REMARK    2  A    between atoms: N_18  and  O_19
REMARK                            x       y       z     vdW  Elec       q    Type
REMARK                         _______ _______ _______ _____ _____    ______ ____
ROOT
ATOM      1  O   UNL     1       0.512   8.689  21.698  0.00  0.00    +0.000 OA
ATOM      2  C   UNL     1       1.148   8.283  20.726  0.00  0.00    +0.000 A 
ATOM      3  N   UNL     1       1.756   7.051  20.791  0.00  0.00    +0.000 N 
ATOM      4  C   UNL     1       2.549   6.527  19.769  0.00  0.00    +0.000 A 
ATOM      5  C   UNL     1       3.170   5.291  19.939  0.00  0.00    +0.000 A 
ATOM      6  C   UNL     1       4.031   4.783  18.952  0.00  0.00    +0.000 A 
ATOM      7 CL   UNL     1       4.864   3.335  19.406  0.00  0.00    +0.000 Cl
ATOM      8  C   UNL     1       4.259   5.515  17.769  0.00  0.00    +0.000 A 
ATOM      9  C   UNL     1       3.600   6.752  17.600  0.00  0.00    +0.000 A 
ATOM     10  C   UNL     1       2.754   7.248  18.599  0.00  0.00    +0.000 A 
ATOM     11  C   UNL     1       2.083   8.557  18.450  0.00  0.00    +0.000 A 
ATOM     12  O   UNL     1       2.213   9.230  17.432  0.00  0.00    +0.000 OA
ATOM     13  N   UNL     1       1.327   8.961  19.535  0.00  0.00    +0.000 N 
ATOM     14  H   UNL     1       1.626   6.554  21.665  0.00  0.00    +0.000 HD
ENDROOT
BRANCH   8  15
ATOM     15  N   UNL     1       5.158   5.094  16.743  0.00  0.00    +0.000 N 
ATOM     16  C   UNL     1       4.926   4.059  15.850  0.00  0.00    +0.000 A 
ATOM     17  C   UNL     1       5.968   3.991  14.950  0.00  0.00    +0.000 A 
ATOM     18  C   UNL     1       6.908   4.968  15.330  0.00  0.00    +0.000 A 
ATOM     19  C   UNL     1       6.408   5.600  16.448  0.00  0.00    +0.000 A 
ENDBRANCH   8  15
BRANCH  13  20
ATOM     20  O   UNL     1       0.716  10.229  19.421  0.00  0.00    +0.000 OA
ATOM     21  H   UNL     1      -0.230   9.992  19.335  0.00  0.00    +0.000 HD
ENDBRANCH  13  20
TORSDOF 2
ENDMDL
MODEL 3
REMARK VINA RESULT:      -7.2      4.312      6.840
REMARK  Name = 
REMARK  2 active torsions:
REMARK  status: ('A' for Active; 'I' for Inactive)
REMARK    1  A    between atoms: C_8  and  N_9
REMARK    2  A    between atoms: N_18  and  O_19
REMARK                            x       y       z     vdW  Elec       q    Type
REMARK                         _______ _______ _______ _____ _____    ______ ____
ROOT
ATOM      1  O   UNL     1       8.992   5.846  13.318  0.00  0.00    +0.000 OA
ATOM      2  C   UNL     1       7.945   5.409  13.794  0.00  0.00    +0.000 A 
ATOM      3  N   UNL     1       7.640   5.684  15.108  0.00  0.00    +0.000 N 
ATOM      4  C   UNL     1       6.511   5.185  15.759  0.00  0.00    +0.000 A 
ATOM      5  C   UNL     1       6.306   5.473  17.106  0.00  0.00    +0.000 A 
ATOM      6  C   UNL     1       5.215   4.919  17.797  0.00  0.00    +0.000 A 
ATOM      7 CL   UNL     1       5.218   5.221  19.501  0.00  0.00    +0.000 Cl
ATOM      8  C   UNL     1       4.305   4.079  17.121  0.00  0.00    +0.000 A 
ATOM      9  C   UNL     1       4.512   3.821  15.749  0.00  0.00    +0.000 A 
ATOM     10  C   UNL     1       5.610   4.372  15.080  0.00  0.00    +0.000 A 
ATOM     11  C   UNL     1       5.858   4.085  13.651  0.00  0.00    +0.000 A 
ATOM     12  O   UNL     1       5.088   3.388  12.998  0.00  0.00    +0.000 OA
ATOM     13  N   UNL     1       7.011   4.638  13.128  0.00  0.00    +0.000 N 
ATOM     14  H   UNL     1       8.326   6.248  15.598  0.00  0.00    +0.000 HD
ENDROOT
BRANCH   8  15
ATOM     15  N   UNL     1       3.203   3.435  17.762  0.00  0.00    +0.000 N 
ATOM     16  C   UNL     1       3.251   2.197  18.384  0.00  0.00    +0.000 A 
ATOM     17  C   UNL     1       2.030   1.932  18.965  0.00  0.00    +0.000 A 
ATOM     18  C   UNL     1       1.176   3.003  18.643  0.00  0.00    +0.000 A 
ATOM     19  C   UNL     1       1.904   3.887  17.877  0.00  0.00    +0.000 A 
ENDBRANCH   8  15
BRANCH  13  20
ATOM     20  O   UNL     1       7.280   4.334  11.775  0.00  0.00    +0.000 OA
ATOM     21  H   UNL     1       7.050   5.175  11.329  0.00  0.00    +0.000 HD
ENDBRANCH  13  20
TORSDOF 2
ENDMDL
MODEL 4
REMARK VINA RESULT:      -6.8      2.214      3.536
REMARK  Name = 
REMARK  2 active torsions:
REMARK  status: ('A' for Active; 'I' for Inactive)
REMARK    1  A    between atoms: C_8  and  N_9
REMARK    2  A    between atoms: N_18  and  O_19
REMARK                            x       y       z     vdW  Elec       q    Type
REMARK                         _______ _______ _______ _____ _____    ______ ____
ROOT
ATOM      1  O   UNL     1       1.899   4.661  21.376  0.00  0.00    +0.000 OA
ATOM      2  C   UNL     1       2.456   4.409  20.309  0.00  0.00    +0.000 A 
ATOM      3  N   UNL     1       3.628   5.059  19.995  0.00  0.00    +0.000 N 
ATOM      4  C   UNL     1       4.303   4.891  18.785  0.00  0.00    +0.000 A 
ATOM      5  C   UNL     1       5.458   5.627  18.530  0.00  0.00    +0.000 A 
ATOM      6  C   UNL     1       6.109   5.526  17.289  0.00  0.00    +0.000 A 
ATOM      7 CL   UNL     1       7.409   6.647  17.069  0.00  0.00    +0.000 Cl
ATOM      8  C   UNL     1       5.606   4.659  16.296  0.00  0.00    +0.000 A 
ATOM      9  C   UNL     1       4.451   3.899  16.582  0.00  0.00    +0.000 A 
ATOM     10  C   UNL     1       3.810   4.021  17.820  0.00  0.00    +0.000 A 
ATOM     11  C   UNL     1       2.581   3.256  18.122  0.00  0.00    +0.000 A 
ATOM     12  O   UNL     1       2.109   2.461  17.314  0.00  0.00    +0.000 OA
ATOM     13  N   UNL     1       2.010   3.516  19.353  0.00  0.00    +0.000 N 
ATOM     14  H   UNL     1       3.955   5.715  20.695  0.00  0.00    +0.000 HD
ENDROOT
BRANCH   8  15
ATOM     15  N   UNL     1       6.177   4.539  14.993  0.00  0.00    +0.000 N 
ATOM     16  C   UNL     1       5.682   3.741  13.973  0.00  0.00    +0.000 A 
ATOM     17  C   UNL     1       6.433   3.939  12.835  0.00  0.00    +0.000 A 
ATOM     18  C   UNL     1       7.466   4.836  13.170  0.00  0.00    +0.000 A 
ATOM     19  C   UNL     1       7.309   5.157  14.500  0.00  0.00    +0.000 A 
ENDBRANCH   8  15
BRANCH  13  20
ATOM     20  O   UNL     1       0.812   2.822  19.634  0.00  0.00    +0.000 OA
ATOM     21  H   UNL     1       0.922   2.604  20.583  0.00  0.00    +0.000 HD
ENDBRANCH  13  20
TORSDOF 2
ENDMDL
MODEL 5
REMARK VINA RESULT:      -6.7      4.021      5.511
REMARK  Name = 
REMARK  2 active torsions:
REMARK  status: ('A' for Active; 'I' for Inactive)
REMARK    1  A    between atoms: C_8  and  N_9
REMARK    2  A    between atoms: N_18  and  O_19
REMARK                            x       y       z     vdW  Elec       q    Type
REMARK                         _______ _______ _______ _____ _____    ______ ____
ROOT
ATOM      1  O   UNL     1       4.946   3.388  16.768  0.00  0.00    +0.000 OA
ATOM      2  C   UNL     1       4.247   3.946  17.612  0.00  0.00    +0.000 A 
ATOM      3  N   UNL     1       3.797   5.224  17.371  0.00  0.00    +0.000 N 
ATOM      4  C   UNL     1       3.052   5.967  18.288  0.00  0.00    +0.000 A 
ATOM      5  C   UNL     1       2.680   7.273  17.981  0.00  0.00    +0.000 A 
ATOM      6  C   UNL     1       1.995   8.060  18.922  0.00  0.00    +0.000 A 
ATOM      7 CL   UNL     1       1.782   9.713  18.453  0.00  0.00    +0.000 Cl
ATOM      8  C   UNL     1       1.660   7.523  20.182  0.00  0.00    +0.000 A 
ATOM      9  C   UNL     1       2.019   6.187  20.466  0.00  0.00    +0.000 A 
ATOM     10  C   UNL     1       2.711   5.422  19.521  0.00  0.00    +0.000 A 
ATOM     11  C   UNL     1       3.123   4.033  19.816  0.00  0.00    +0.000 A 
ATOM     12  O   UNL     1       2.835   3.495  20.881  0.00  0.00    +0.000 OA
ATOM     13  N   UNL     1       3.856   3.409  18.825  0.00  0.00    +0.000 N 
ATOM     14  H   UNL     1       4.084   5.619  16.483  0.00  0.00    +0.000 HD
ENDROOT
BRANCH   8  15
ATOM     15  N   UNL     1       1.012   8.272  21.211  0.00  0.00    +0.000 N 
ATOM     16  C   UNL     1      -0.359   8.412  21.356  0.00  0.00    +0.000 A 
ATOM     17  C   UNL     1      -0.626   9.128  22.503  0.00  0.00    +0.000 A 
ATOM     18  C   UNL     1       0.614   9.501  23.055  0.00  0.00    +0.000 A 
ATOM     19  C   UNL     1       1.595   8.999  22.228  0.00  0.00    +0.000 A 
ENDBRANCH   8  15
BRANCH  13  20
ATOM     20  O   UNL     1       4.291   2.097  19.114  0.00  0.00    +0.000 OA
ATOM     21  H   UNL     1       5.134   2.262  19.585  0.00  0.00    +0.000 HD
ENDBRANCH  13  20
TORSDOF 2
ENDMDL
MODEL 6
REMARK VINA RESULT:      -6.7      4.163      5.621
REMARK  Name = 
REMARK  2 active torsions:
REMARK  status: ('A' for Active; 'I' for Inactive)
REMARK    1  A    between atoms: C_8  and  N_9
REMARK    2  A    between atoms: N_18  and  O_19
REMARK                            x       y       z     vdW  Elec       q    Type
REMARK                         _______ _______ _______ _____ _____    ______ ____
ROOT
ATOM      1  O   UNL     1       5.502   3.934  16.663  0.00  0.00    +0.000 OA
ATOM      2  C   UNL     1       4.712   4.482  17.430  0.00  0.00    +0.000 A 
ATOM      3  N   UNL     1       4.251   5.743  17.128  0.00  0.00    +0.000 N 
ATOM      4  C   UNL     1       3.404   6.475  17.961  0.00  0.00    +0.000 A 
ATOM      5  C   UNL     1       3.026   7.766  17.601  0.00  0.00    +0.000 A 
ATOM      6  C   UNL     1       2.234   8.545  18.462  0.00  0.00    +0.000 A 
ATOM      7 CL   UNL     1       2.019  10.184  17.950  0.00  0.00    +0.000 Cl
ATOM      8  C   UNL     1       1.799   8.014  19.694  0.00  0.00    +0.000 A 
ATOM      9  C   UNL     1       2.168   6.694  20.031  0.00  0.00    +0.000 A 
ATOM     10  C   UNL     1       2.966   5.937  19.166  0.00  0.00    +0.000 A 
ATOM     11  C   UNL     1       3.387   4.564  19.520  0.00  0.00    +0.000 A 
ATOM     12  O   UNL     1       3.017   4.032  20.562  0.00  0.00    +0.000 OA
ATOM     13  N   UNL     1       4.226   3.950  18.610  0.00  0.00    +0.000 N 
ATOM     14  H   UNL     1       4.608   6.135  16.264  0.00  0.00    +0.000 HD
ENDROOT
BRANCH   8  15
ATOM     15  N   UNL     1       1.038   8.757  20.647  0.00  0.00    +0.000 N 
ATOM     16  C   UNL     1       1.288   8.803  22.010  0.00  0.00    +0.000 A 
ATOM     17  C   UNL     1       0.410   9.684  22.604  0.00  0.00    +0.000 A 
ATOM     18  C   UNL     1      -0.455  10.152  21.596  0.00  0.00    +0.000 A 
ATOM     19  C   UNL     1      -0.074   9.543  20.420  0.00  0.00    +0.000 A 
ENDBRANCH   8  15
BRANCH  13  20
ATOM     20  O   UNL     1       4.669   2.655  18.958  0.00  0.00    +0.000 OA
ATOM     21  H   UNL     1       4.644   2.193  18.096  0.00  0.00    +0.000 HD
ENDBRANCH  13  20
TORSDOF 2
ENDMDL
MODEL 7
REMARK VINA RESULT:      -6.5      3.946      5.572
REMARK  Name = 
REMARK  2 active torsions:
REMARK  status: ('A' for Active; 'I' for Inactive)
REMARK    1  A    between atoms: C_8  and  N_9
REMARK    2  A    between atoms: N_18  and  O_19
REMARK                            x       y       z     vdW  Elec       q    Type
REMARK                         _______ _______ _______ _____ _____    ______ ____
ROOT
ATOM      1  O   UNL     1       6.694   3.354  13.902  0.00  0.00    +0.000 OA
ATOM      2  C   UNL     1       6.226   4.017  14.827  0.00  0.00    +0.000 A 
ATOM      3  N   UNL     1       5.106   3.557  15.480  0.00  0.00    +0.000 N 
ATOM      4  C   UNL     1       4.463   4.262  16.498  0.00  0.00    +0.000 A 
ATOM      5  C   UNL     1       3.303   3.746  17.071  0.00  0.00    +0.000 A 
ATOM      6  C   UNL     1       2.601   4.476  18.046  0.00  0.00    +0.000 A 
ATOM      7 CL   UNL     1       1.086   3.779  18.509  0.00  0.00    +0.000 Cl
ATOM      8  C   UNL     1       3.080   5.734  18.465  0.00  0.00    +0.000 A 
ATOM      9  C   UNL     1       4.272   6.230  17.894  0.00  0.00    +0.000 A 
ATOM     10  C   UNL     1       4.952   5.494  16.918  0.00  0.00    +0.000 A 
ATOM     11  C   UNL     1       6.184   6.015  16.288  0.00  0.00    +0.000 A 
ATOM     12  O   UNL     1       6.671   7.088  16.630  0.00  0.00    +0.000 OA
ATOM     13  N   UNL     1       6.721   5.220  15.292  0.00  0.00    +0.000 N 
ATOM     14  H   UNL     1       4.741   2.675  15.138  0.00  0.00    +0.000 HD
ENDROOT
BRANCH   8  15
ATOM     15  N   UNL     1       2.399   6.561  19.409  0.00  0.00    +0.000 N 
ATOM     16  C   UNL     1       2.201   7.927  19.280  0.00  0.00    +0.000 A 
ATOM     17  C   UNL     1       1.433   8.378  20.332  0.00  0.00    +0.000 A 
ATOM     18  C   UNL     1       1.199   7.275  21.176  0.00  0.00    +0.000 A 
ATOM     19  C   UNL     1       1.830   6.189  20.610  0.00  0.00    +0.000 A 
ENDBRANCH   8  15
BRANCH  13  20
ATOM     20  O   UNL     1       7.874   5.729  14.654  0.00  0.00    +0.000 OA
ATOM     21  H   UNL     1       7.578   6.622  14.383  0.00  0.00    +0.000 HD
ENDBRANCH  13  20
TORSDOF 2
ENDMDL
MODEL 8
REMARK VINA RESULT:      -6.5      2.120      3.342
REMARK  Name = 
REMARK  2 active torsions:
REMARK  status: ('A' for Active; 'I' for Inactive)
REMARK    1  A    between atoms: C_8  and  N_9
REMARK    2  A    between atoms: N_18  and  O_19
REMARK                            x       y       z     vdW  Elec       q    Type
REMARK                         _______ _______ _______ _____ _____    ______ ____
ROOT
ATOM      1  O   UNL     1       1.862   3.568  21.930  0.00  0.00    +0.000 OA
ATOM      2  C   UNL     1       2.335   3.528  20.795  0.00  0.00    +0.000 A 
ATOM      3  N   UNL     1       3.643   3.909  20.600  0.00  0.00    +0.000 N 
ATOM      4  C   UNL     1       4.254   3.959  19.347  0.00  0.00    +0.000 A 
ATOM      5  C   UNL     1       5.568   4.406  19.235  0.00  0.00    +0.000 A 
ATOM      6  C   UNL     1       6.175   4.533  17.974  0.00  0.00    +0.000 A 
ATOM      7 CL   UNL     1       7.736   5.281  18.003  0.00  0.00    +0.000 Cl
ATOM      8  C   UNL     1       5.459   4.189  16.809  0.00  0.00    +0.000 A 
ATOM      9  C   UNL     1       4.138   3.711  16.942  0.00  0.00    +0.000 A 
ATOM     10  C   UNL     1       3.546   3.601  18.205  0.00  0.00    +0.000 A 
ATOM     11  C   UNL     1       2.152   3.133  18.358  0.00  0.00    +0.000 A 
ATOM     12  O   UNL     1       1.485   2.788  17.387  0.00  0.00    +0.000 OA
ATOM     13  N   UNL     1       1.666   3.132  19.652  0.00  0.00    +0.000 N 
ATOM     14  H   UNL     1       4.133   4.201  21.438  0.00  0.00    +0.000 HD
ENDROOT
BRANCH   8  15
ATOM     15  N   UNL     1       5.984   4.339  15.490  0.00  0.00    +0.000 N 
ATOM     16  C   UNL     1       7.066   5.134  15.144  0.00  0.00    +0.000 A 
ATOM     17  C   UNL     1       7.344   4.970  13.805  0.00  0.00    +0.000 A 
ATOM     18  C   UNL     1       6.369   4.098  13.284  0.00  0.00    +0.000 A 
ATOM     19  C   UNL     1       5.530   3.758  14.323  0.00  0.00    +0.000 A 
ENDBRANCH   8  15
BRANCH  13  20
ATOM     20  O   UNL     1       0.322   2.727  19.804  0.00  0.00    +0.000 OA
ATOM     21  H   UNL     1       0.394   2.040  20.497  0.00  0.00    +0.000 HD
ENDBRANCH  13  20
TORSDOF 2
ENDMDL
MODEL 9
REMARK VINA RESULT:      -6.4      4.138      5.554
REMARK  Name = 
REMARK  2 active torsions:
REMARK  status: ('A' for Active; 'I' for Inactive)
REMARK    1  A    between atoms: C_8  and  N_9
REMARK    2  A    between atoms: N_18  and  O_19
REMARK                            x       y       z     vdW  Elec       q    Type
REMARK                         _______ _______ _______ _____ _____    ______ ____
ROOT
ATOM      1  O   UNL     1       6.029   2.962  15.374  0.00  0.00    +0.000 OA
ATOM      2  C   UNL     1       5.542   3.917  15.977  0.00  0.00    +0.000 A 
ATOM      3  N   UNL     1       4.690   3.679  17.032  0.00  0.00    +0.000 N 
ATOM      4  C   UNL     1       4.038   4.689  17.740  0.00  0.00    +0.000 A 
ATOM      5  C   UNL     1       3.152   4.356  18.762  0.00  0.00    +0.000 A 
ATOM      6  C   UNL     1       2.431   5.356  19.436  0.00  0.00    +0.000 A 
ATOM      7 CL   UNL     1       1.238   4.759  20.538  0.00  0.00    +0.000 Cl
ATOM      8  C   UNL     1       2.615   6.712  19.092  0.00  0.00    +0.000 A 
ATOM      9  C   UNL     1       3.537   7.034  18.074  0.00  0.00    +0.000 A 
ATOM     10  C   UNL     1       4.239   6.023  17.406  0.00  0.00    +0.000 A 
ATOM     11  C   UNL     1       5.184   6.343  16.315  0.00  0.00    +0.000 A 
ATOM     12  O   UNL     1       5.414   7.504  15.989  0.00  0.00    +0.000 OA
ATOM     13  N   UNL     1       5.762   5.251  15.695  0.00  0.00    +0.000 N 
ATOM     14  H   UNL     1       4.527   2.700  17.239  0.00  0.00    +0.000 HD
ENDROOT
BRANCH   8  15
ATOM     15  N   UNL     1       1.883   7.782  19.691  0.00  0.00    +0.000 N 
ATOM     16  C   UNL     1       1.450   8.922  19.033  0.00  0.00    +0.000 A 
ATOM     17  C   UNL     1       0.705   9.694  19.898  0.00  0.00    +0.000 A 
ATOM     18  C   UNL     1       0.727   9.050  21.150  0.00  0.00    +0.000 A 
ATOM     19  C   UNL     1       1.483   7.907  21.006  0.00  0.00    +0.000 A 
ENDBRANCH   8  15
BRANCH  13  20
ATOM     20  O   UNL     1       6.634   5.544  14.623  0.00  0.00    +0.000 OA
ATOM     21  H   UNL     1       6.869   4.649  14.303  0.00  0.00    +0.000 HD
ENDBRANCH  13  20
TORSDOF 2
ENDMDL
