MODEL 1
REMARK VINA RESULT:      -9.1      0.000      0.000
REMARK  Name = 
REMARK  4 active torsions:
REMARK  status: ('A' for Active; 'I' for Inactive)
REMARK    1  A    between atoms: C_4  and  C_5
REMARK    2  A    between atoms: C_5  and  N_6
REMARK    3  A    between atoms: C_9  and  C_10
REMARK    4  A    between atoms: C_12  and  C_13
REMARK                            x       y       z     vdW  Elec       q    Type
REMARK                         _______ _______ _______ _____ _____    ______ ____
ROOT
ATOM      1  N   UNL     1       3.799   5.651  17.854  0.00  0.00    +0.000 NA
ATOM      2  C   UNL     1       4.210   6.850  17.100  0.00  0.00    +0.000 C 
ATOM      3  C   UNL     1       5.329   6.588  16.087  0.00  0.00    +0.000 C 
ATOM      4  C   UNL     1       6.553   5.897  16.700  0.00  0.00    +0.000 C 
ATOM      5  C   UNL     1       6.088   4.653  17.453  0.00  0.00    +0.000 C 
ATOM      6  C   UNL     1       4.952   4.946  18.445  0.00  0.00    +0.000 C 
ENDROOT
BRANCH   4   7
ATOM      7  C   UNL     1       7.441   6.831  17.490  0.00  0.00    +0.000 A 
ATOM      8  C   UNL     1       7.740   8.186  17.189  0.00  0.00    +0.000 A 
ATOM      9  C   UNL     1       8.400   8.686  18.301  0.00  0.00    +0.000 A 
ATOM     10  N   UNL     1       8.602   7.585  19.092  0.00  0.00    +0.000 N 
ATOM     11  N   UNL     1       8.010   6.466  18.646  0.00  0.00    +0.000 NA
ATOM     12  H   UNL     1       9.116   7.541  19.962  0.00  0.00    +0.000 HD
BRANCH   9  13
ATOM     13  C   UNL     1       8.825  10.035  18.666  0.00  0.00    +0.000 A 
ATOM     14  C   UNL     1       8.585  11.118  17.807  0.00  0.00    +0.000 A 
ATOM     15  C   UNL     1       8.988  12.416  18.150  0.00  0.00    +0.000 A 
ATOM     16  C   UNL     1       9.635  12.636  19.363  0.00  0.00    +0.000 A 
ATOM     17  C   UNL     1       9.901  11.571  20.215  0.00  0.00    +0.000 A 
ATOM     18  C   UNL     1       9.500  10.274  19.867  0.00  0.00    +0.000 A 
ENDBRANCH   9  13
ENDBRANCH   4   7
BRANCH   1  19
ATOM     19  C   UNL     1       2.863   6.025  18.948  0.00  0.00    +0.000 C 
BRANCH  19  23
ATOM     20  C   UNL     1       1.153   2.614  20.993  0.00  0.00    +0.000 A 
ATOM     21  C   UNL     1       1.953   3.520  21.689  0.00  0.00    +0.000 A 
ATOM     22  C   UNL     1       2.495   4.627  21.031  0.00  0.00    +0.000 A 
ATOM     23  C   UNL     1       2.240   4.845  19.671  0.00  0.00    +0.000 A 
ATOM     24  C   UNL     1       1.391   3.953  18.993  0.00  0.00    +0.000 A 
ATOM     25  C   UNL     1       0.862   2.838  19.650  0.00  0.00    +0.000 A 
ENDBRANCH  19  23
ENDBRANCH   1  19
TORSDOF 4
ENDMDL
MODEL 2
REMARK VINA RESULT:      -9.0      0.115      1.395
REMARK  Name = 
REMARK  4 active torsions:
REMARK  status: ('A' for Active; 'I' for Inactive)
REMARK    1  A    between atoms: C_4  and  C_5
REMARK    2  A    between atoms: C_5  and  N_6
REMARK    3  A    between atoms: C_9  and  C_10
REMARK    4  A    between atoms: C_12  and  C_13
REMARK                            x       y       z     vdW  Elec       q    Type
REMARK                         _______ _______ _______ _____ _____    ______ ____
ROOT
ATOM      1  N   UNL     1       3.847   5.681  17.953  0.00  0.00    +0.000 NA
ATOM      2  C   UNL     1       4.216   6.906  17.220  0.00  0.00    +0.000 C 
ATOM      3  C   UNL     1       5.308   6.689  16.166  0.00  0.00    +0.000 C 
ATOM      4  C   UNL     1       6.560   6.003  16.723  0.00  0.00    +0.000 C 
ATOM      5  C   UNL     1       6.139   4.732  17.457  0.00  0.00    +0.000 C 
ATOM      6  C   UNL     1       5.029   4.980  18.490  0.00  0.00    +0.000 C 
ENDROOT
BRANCH   4   7
ATOM      7  C   UNL     1       7.457   6.930  17.511  0.00  0.00    +0.000 A 
ATOM      8  C   UNL     1       7.760   8.285  17.212  0.00  0.00    +0.000 A 
ATOM      9  C   UNL     1       8.429   8.779  18.321  0.00  0.00    +0.000 A 
ATOM     10  N   UNL     1       8.631   7.675  19.107  0.00  0.00    +0.000 N 
ATOM     11  N   UNL     1       8.032   6.559  18.662  0.00  0.00    +0.000 NA
ATOM     12  H   UNL     1       9.150   7.626  19.974  0.00  0.00    +0.000 HD
BRANCH   9  13
ATOM     13  C   UNL     1       8.863  10.125  18.688  0.00  0.00    +0.000 A 
ATOM     14  C   UNL     1       9.458  10.371  19.933  0.00  0.00    +0.000 A 
ATOM     15  C   UNL     1       9.879  11.659  20.292  0.00  0.00    +0.000 A 
ATOM     16  C   UNL     1       9.706  12.712  19.399  0.00  0.00    +0.000 A 
ATOM     17  C   UNL     1       9.096  12.490  18.169  0.00  0.00    +0.000 A 
ATOM     18  C   UNL     1       8.674  11.202  17.816  0.00  0.00    +0.000 A 
ENDBRANCH   9  13
ENDBRANCH   4   7
BRANCH   1  19
ATOM     19  C   UNL     1       2.940   6.010  19.085  0.00  0.00    +0.000 C 
BRANCH  19  23
ATOM     20  C   UNL     1       1.100   2.612  21.035  0.00  0.00    +0.000 A 
ATOM     21  C   UNL     1       0.841   2.873  19.690  0.00  0.00    +0.000 A 
ATOM     22  C   UNL     1       1.445   3.963  19.058  0.00  0.00    +0.000 A 
ATOM     23  C   UNL     1       2.318   4.803  19.762  0.00  0.00    +0.000 A 
ATOM     24  C   UNL     1       2.610   4.499  21.102  0.00  0.00    +0.000 A 
ATOM     25  C   UNL     1       1.994   3.416  21.736  0.00  0.00    +0.000 A 
ENDBRANCH  19  23
ENDBRANCH   1  19
TORSDOF 4
ENDMDL
MODEL 3
REMARK VINA RESULT:      -9.0      1.316      1.692
REMARK  Name = 
REMARK  4 active torsions:
REMARK  status: ('A' for Active; 'I' for Inactive)
REMARK    1  A    between atoms: C_4  and  C_5
REMARK    2  A    between atoms: C_5  and  N_6
REMARK    3  A    between atoms: C_9  and  C_10
REMARK    4  A    between atoms: C_12  and  C_13
REMARK                            x       y       z     vdW  Elec       q    Type
REMARK                         _______ _______ _______ _____ _____    ______ ____
ROOT
ATOM      1  N   UNL     1       4.575   5.280  17.652  0.00  0.00    +0.000 NA
ATOM      2  C   UNL     1       5.186   5.979  16.507  0.00  0.00    +0.000 C 
ATOM      3  C   UNL     1       6.689   5.720  16.357  0.00  0.00    +0.000 C 
ATOM      4  C   UNL     1       7.483   5.997  17.639  0.00  0.00    +0.000 C 
ATOM      5  C   UNL     1       6.831   5.242  18.794  0.00  0.00    +0.000 C 
ATOM      6  C   UNL     1       5.322   5.507  18.904  0.00  0.00    +0.000 C 
ENDROOT
BRANCH   4   7
ATOM      7  C   UNL     1       7.728   7.468  17.891  0.00  0.00    +0.000 A 
ATOM      8  C   UNL     1       8.615   8.036  18.843  0.00  0.00    +0.000 A 
ATOM      9  C   UNL     1       8.667   9.391  18.553  0.00  0.00    +0.000 A 
ATOM     10  N   UNL     1       7.703   9.564  17.594  0.00  0.00    +0.000 N 
ATOM     11  N   UNL     1       7.146   8.423  17.155  0.00  0.00    +0.000 NA
ATOM     12  H   UNL     1       7.397  10.435  17.182  0.00  0.00    +0.000 HD
BRANCH   9  13
ATOM     13  C   UNL     1       9.503  10.474  19.066  0.00  0.00    +0.000 A 
ATOM     14  C   UNL     1       9.454  10.835  20.420  0.00  0.00    +0.000 A 
ATOM     15  C   UNL     1      10.254  11.871  20.921  0.00  0.00    +0.000 A 
ATOM     16  C   UNL     1      11.114  12.552  20.063  0.00  0.00    +0.000 A 
ATOM     17  C   UNL     1      11.157  12.222  18.713  0.00  0.00    +0.000 A 
ATOM     18  C   UNL     1      10.353  11.188  18.216  0.00  0.00    +0.000 A 
ENDBRANCH   9  13
ENDBRANCH   4   7
BRANCH   1  19
ATOM     19  C   UNL     1       3.174   5.739  17.849  0.00  0.00    +0.000 C 
BRANCH  19  23
ATOM     20  C   UNL     1       0.715   2.889  19.988  0.00  0.00    +0.000 A 
ATOM     21  C   UNL     1       1.122   4.070  20.610  0.00  0.00    +0.000 A 
ATOM     22  C   UNL     1       1.906   4.994  19.914  0.00  0.00    +0.000 A 
ATOM     23  C   UNL     1       2.288   4.753  18.589  0.00  0.00    +0.000 A 
ATOM     24  C   UNL     1       1.830   3.585  17.957  0.00  0.00    +0.000 A 
ATOM     25  C   UNL     1       1.057   2.653  18.659  0.00  0.00    +0.000 A 
ENDBRANCH  19  23
ENDBRANCH   1  19
TORSDOF 4
ENDMDL
MODEL 4
REMARK VINA RESULT:      -8.9      1.291      1.476
REMARK  Name = 
REMARK  4 active torsions:
REMARK  status: ('A' for Active; 'I' for Inactive)
REMARK    1  A    between atoms: C_4  and  C_5
REMARK    2  A    between atoms: C_5  and  N_6
REMARK    3  A    between atoms: C_9  and  C_10
REMARK    4  A    between atoms: C_12  and  C_13
REMARK                            x       y       z     vdW  Elec       q    Type
REMARK                         _______ _______ _______ _____ _____    ______ ____
ROOT
ATOM      1  N   UNL     1       4.709   4.912  17.686  0.00  0.00    +0.000 NA
ATOM      2  C   UNL     1       5.453   5.431  16.524  0.00  0.00    +0.000 C 
ATOM      3  C   UNL     1       6.965   5.192  16.601  0.00  0.00    +0.000 C 
ATOM      4  C   UNL     1       7.592   5.695  17.905  0.00  0.00    +0.000 C 
ATOM      5  C   UNL     1       6.807   5.122  19.082  0.00  0.00    +0.000 C 
ATOM      6  C   UNL     1       5.295   5.360  18.964  0.00  0.00    +0.000 C 
ENDROOT
BRANCH   4   7
ATOM      7  C   UNL     1       7.795   7.193  17.939  0.00  0.00    +0.000 A 
ATOM      8  C   UNL     1       8.487   7.941  18.929  0.00  0.00    +0.000 A 
ATOM      9  C   UNL     1       8.602   9.226  18.422  0.00  0.00    +0.000 A 
ATOM     10  N   UNL     1       7.841   9.205  17.283  0.00  0.00    +0.000 N 
ATOM     11  N   UNL     1       7.371   7.992  16.952  0.00  0.00    +0.000 NA
ATOM     12  H   UNL     1       7.626   9.985  16.675  0.00  0.00    +0.000 HD
BRANCH   9  13
ATOM     13  C   UNL     1       9.332  10.403  18.888  0.00  0.00    +0.000 A 
ATOM     14  C   UNL     1       9.885  11.311  17.973  0.00  0.00    +0.000 A 
ATOM     15  C   UNL     1      10.584  12.444  18.411  0.00  0.00    +0.000 A 
ATOM     16  C   UNL     1      10.733  12.674  19.776  0.00  0.00    +0.000 A 
ATOM     17  C   UNL     1      10.212  11.772  20.697  0.00  0.00    +0.000 A 
ATOM     18  C   UNL     1       9.515  10.639  20.254  0.00  0.00    +0.000 A 
ENDBRANCH   9  13
ENDBRANCH   4   7
BRANCH   1  19
ATOM     19  C   UNL     1       3.292   5.360  17.634  0.00  0.00    +0.000 C 
BRANCH  19  23
ATOM     20  C   UNL     1       0.647   2.972  20.092  0.00  0.00    +0.000 A 
ATOM     21  C   UNL     1       1.073   4.225  20.533  0.00  0.00    +0.000 A 
ATOM     22  C   UNL     1       1.917   5.000  19.733  0.00  0.00    +0.000 A 
ATOM     23  C   UNL     1       2.342   4.534  18.482  0.00  0.00    +0.000 A 
ATOM     24  C   UNL     1       1.865   3.293  18.028  0.00  0.00    +0.000 A 
ATOM     25  C   UNL     1       1.032   2.513  18.836  0.00  0.00    +0.000 A 
ENDBRANCH  19  23
ENDBRANCH   1  19
TORSDOF 4
ENDMDL
MODEL 5
REMARK VINA RESULT:      -8.8      3.485      6.652
REMARK  Name = 
REMARK  4 active torsions:
REMARK  status: ('A' for Active; 'I' for Inactive)
REMARK    1  A    between atoms: C_4  and  C_5
REMARK    2  A    between atoms: C_5  and  N_6
REMARK    3  A    between atoms: C_9  and  C_10
REMARK    4  A    between atoms: C_12  and  C_13
REMARK                            x       y       z     vdW  Elec       q    Type
REMARK                         _______ _______ _______ _____ _____    ______ ____
ROOT
ATOM      1  N   UNL     1       4.296   6.010  18.215  0.00  0.00    +0.000 NA
ATOM      2  C   UNL     1       4.895   4.670  18.071  0.00  0.00    +0.000 C 
ATOM      3  C   UNL     1       6.427   4.671  18.111  0.00  0.00    +0.000 C 
ATOM      4  C   UNL     1       7.059   5.648  17.114  0.00  0.00    +0.000 C 
ATOM      5  C   UNL     1       6.427   7.025  17.306  0.00  0.00    +0.000 C 
ATOM      6  C   UNL     1       4.892   6.986  17.282  0.00  0.00    +0.000 C 
ENDROOT
BRANCH   4   7
ATOM      7  C   UNL     1       7.063   5.139  15.690  0.00  0.00    +0.000 A 
ATOM      8  C   UNL     1       6.291   4.071  15.161  0.00  0.00    +0.000 A 
ATOM      9  C   UNL     1       6.463   4.122  13.786  0.00  0.00    +0.000 A 
ATOM     10  N   UNL     1       7.434   5.073  13.607  0.00  0.00    +0.000 N 
ATOM     11  N   UNL     1       7.789   5.721  14.727  0.00  0.00    +0.000 NA
ATOM     12  H   UNL     1       7.876   5.341  12.737  0.00  0.00    +0.000 HD
BRANCH   9  13
ATOM     13  C   UNL     1       5.822   3.400  12.689  0.00  0.00    +0.000 A 
ATOM     14  C   UNL     1       4.576   3.810  12.194  0.00  0.00    +0.000 A 
ATOM     15  C   UNL     1       3.956   3.125  11.140  0.00  0.00    +0.000 A 
ATOM     16  C   UNL     1       4.586   2.021  10.574  0.00  0.00    +0.000 A 
ATOM     17  C   UNL     1       5.811   1.587  11.068  0.00  0.00    +0.000 A 
ATOM     18  C   UNL     1       6.426   2.273  12.124  0.00  0.00    +0.000 A 
ENDBRANCH   9  13
ENDBRANCH   4   7
BRANCH   1  19
ATOM     19  C   UNL     1       2.832   5.951  17.963  0.00  0.00    +0.000 C 
BRANCH  19  23
ATOM     20  C   UNL     1       0.838   2.796  20.156  0.00  0.00    +0.000 A 
ATOM     21  C   UNL     1       1.304   3.928  20.825  0.00  0.00    +0.000 A 
ATOM     22  C   UNL     1       1.937   4.951  20.114  0.00  0.00    +0.000 A 
ATOM     23  C   UNL     1       2.107   4.858  18.727  0.00  0.00    +0.000 A 
ATOM     24  C   UNL     1       1.588   3.737  18.058  0.00  0.00    +0.000 A 
ATOM     25  C   UNL     1       0.967   2.707  18.773  0.00  0.00    +0.000 A 
ENDBRANCH  19  23
ENDBRANCH   1  19
TORSDOF 4
ENDMDL
MODEL 6
REMARK VINA RESULT:      -8.7      3.502      6.770
REMARK  Name = 
REMARK  4 active torsions:
REMARK  status: ('A' for Active; 'I' for Inactive)
REMARK    1  A    between atoms: C_4  and  C_5
REMARK    2  A    between atoms: C_5  and  N_6
REMARK    3  A    between atoms: C_9  and  C_10
REMARK    4  A    between atoms: C_12  and  C_13
REMARK                            x       y       z     vdW  Elec       q    Type
REMARK                         _______ _______ _______ _____ _____    ______ ____
ROOT
ATOM      1  N   UNL     1       4.386   5.867  18.242  0.00  0.00    +0.000 NA
ATOM      2  C   UNL     1       5.063   4.567  18.082  0.00  0.00    +0.000 C 
ATOM      3  C   UNL     1       6.592   4.665  18.062  0.00  0.00    +0.000 C 
ATOM      4  C   UNL     1       7.121   5.674  17.036  0.00  0.00    +0.000 C 
ATOM      5  C   UNL     1       6.411   7.008  17.247  0.00  0.00    +0.000 C 
ATOM      6  C   UNL     1       4.882   6.872  17.283  0.00  0.00    +0.000 C 
ENDROOT
BRANCH   4   7
ATOM      7  C   UNL     1       7.104   5.155  15.615  0.00  0.00    +0.000 A 
ATOM      8  C   UNL     1       6.330   4.079  15.108  0.00  0.00    +0.000 A 
ATOM      9  C   UNL     1       6.476   4.122  13.730  0.00  0.00    +0.000 A 
ATOM     10  N   UNL     1       7.436   5.078  13.526  0.00  0.00    +0.000 N 
ATOM     11  N   UNL     1       7.807   5.737  14.636  0.00  0.00    +0.000 NA
ATOM     12  H   UNL     1       7.861   5.344  12.647  0.00  0.00    +0.000 HD
BRANCH   9  13
ATOM     13  C   UNL     1       5.821   3.389  12.649  0.00  0.00    +0.000 A 
ATOM     14  C   UNL     1       6.438   2.273  12.065  0.00  0.00    +0.000 A 
ATOM     15  C   UNL     1       5.816   1.562  11.030  0.00  0.00    +0.000 A 
ATOM     16  C   UNL     1       4.564   1.967  10.573  0.00  0.00    +0.000 A 
ATOM     17  C   UNL     1       3.949   3.085  11.125  0.00  0.00    +0.000 A 
ATOM     18  C   UNL     1       4.576   3.795  12.158  0.00  0.00    +0.000 A 
ENDBRANCH   9  13
ENDBRANCH   4   7
BRANCH   1  19
ATOM     19  C   UNL     1       2.919   5.713  18.048  0.00  0.00    +0.000 C 
BRANCH  19  23
ATOM     20  C   UNL     1       0.983   2.905  20.713  0.00  0.00    +0.000 A 
ATOM     21  C   UNL     1       0.870   2.751  19.331  0.00  0.00    +0.000 A 
ATOM     22  C   UNL     1       1.506   3.651  18.472  0.00  0.00    +0.000 A 
ATOM     23  C   UNL     1       2.265   4.713  18.982  0.00  0.00    +0.000 A 
ATOM     24  C   UNL     1       2.412   4.826  20.375  0.00  0.00    +0.000 A 
ATOM     25  C   UNL     1       1.764   3.933  21.234  0.00  0.00    +0.000 A 
ENDBRANCH  19  23
ENDBRANCH   1  19
TORSDOF 4
ENDMDL
MODEL 7
REMARK VINA RESULT:      -8.7      1.342      1.801
REMARK  Name = 
REMARK  4 active torsions:
REMARK  status: ('A' for Active; 'I' for Inactive)
REMARK    1  A    between atoms: C_4  and  C_5
REMARK    2  A    between atoms: C_5  and  N_6
REMARK    3  A    between atoms: C_9  and  C_10
REMARK    4  A    between atoms: C_12  and  C_13
REMARK                            x       y       z     vdW  Elec       q    Type
REMARK                         _______ _______ _______ _____ _____    ______ ____
ROOT
ATOM      1  N   UNL     1       4.782   5.385  18.527  0.00  0.00    +0.000 NA
ATOM      2  C   UNL     1       4.812   6.298  17.370  0.00  0.00    +0.000 C 
ATOM      3  C   UNL     1       6.094   6.197  16.536  0.00  0.00    +0.000 C 
ATOM      4  C   UNL     1       7.372   6.347  17.369  0.00  0.00    +0.000 C 
ATOM      5  C   UNL     1       7.310   5.374  18.543  0.00  0.00    +0.000 C 
ATOM      6  C   UNL     1       6.005   5.487  19.345  0.00  0.00    +0.000 C 
ENDROOT
BRANCH   4   7
ATOM      7  C   UNL     1       7.686   7.779  17.738  0.00  0.00    +0.000 A 
ATOM      8  C   UNL     1       8.631   8.226  18.700  0.00  0.00    +0.000 A 
ATOM      9  C   UNL     1       8.727   9.599  18.528  0.00  0.00    +0.000 A 
ATOM     10  N   UNL     1       7.737   9.892  17.628  0.00  0.00    +0.000 N 
ATOM     11  N   UNL     1       7.118   8.818  17.114  0.00  0.00    +0.000 NA
ATOM     12  H   UNL     1       7.452  10.808  17.306  0.00  0.00    +0.000 HD
BRANCH   9  13
ATOM     13  C   UNL     1       9.626  10.599  19.099  0.00  0.00    +0.000 A 
ATOM     14  C   UNL     1      10.656  11.159  18.329  0.00  0.00    +0.000 A 
ATOM     15  C   UNL     1      11.521  12.121  18.868  0.00  0.00    +0.000 A 
ATOM     16  C   UNL     1      11.356  12.530  20.189  0.00  0.00    +0.000 A 
ATOM     17  C   UNL     1      10.355  11.968  20.973  0.00  0.00    +0.000 A 
ATOM     18  C   UNL     1       9.494  11.004  20.431  0.00  0.00    +0.000 A 
ENDBRANCH   9  13
ENDBRANCH   4   7
BRANCH   1  19
ATOM     19  C   UNL     1       3.610   5.686  19.392  0.00  0.00    +0.000 C 
BRANCH  19  23
ATOM     20  C   UNL     1       0.663   2.528  19.666  0.00  0.00    +0.000 A 
ATOM     21  C   UNL     1       1.171   2.906  18.424  0.00  0.00    +0.000 A 
ATOM     22  C   UNL     1       2.131   3.918  18.337  0.00  0.00    +0.000 A 
ATOM     23  C   UNL     1       2.598   4.560  19.491  0.00  0.00    +0.000 A 
ATOM     24  C   UNL     1       2.116   4.135  20.741  0.00  0.00    +0.000 A 
ATOM     25  C   UNL     1       1.144   3.132  20.824  0.00  0.00    +0.000 A 
ENDBRANCH  19  23
ENDBRANCH   1  19
TORSDOF 4
ENDMDL
MODEL 8
REMARK VINA RESULT:      -8.5      1.454      1.986
REMARK  Name = 
REMARK  4 active torsions:
REMARK  status: ('A' for Active; 'I' for Inactive)
REMARK    1  A    between atoms: C_4  and  C_5
REMARK    2  A    between atoms: C_5  and  N_6
REMARK    3  A    between atoms: C_9  and  C_10
REMARK    4  A    between atoms: C_12  and  C_13
REMARK                            x       y       z     vdW  Elec       q    Type
REMARK                         _______ _______ _______ _____ _____    ______ ____
ROOT
ATOM      1  N   UNL     1       5.108   5.188  18.683  0.00  0.00    +0.000 NA
ATOM      2  C   UNL     1       4.929   6.165  17.593  0.00  0.00    +0.000 C 
ATOM      3  C   UNL     1       6.098   6.208  16.604  0.00  0.00    +0.000 C 
ATOM      4  C   UNL     1       7.458   6.406  17.281  0.00  0.00    +0.000 C 
ATOM      5  C   UNL     1       7.613   5.366  18.388  0.00  0.00    +0.000 C 
ATOM      6  C   UNL     1       6.416   5.334  19.349  0.00  0.00    +0.000 C 
ENDROOT
BRANCH   4   7
ATOM      7  C   UNL     1       7.720   7.835  17.703  0.00  0.00    +0.000 A 
ATOM      8  C   UNL     1       8.671   8.285  18.656  0.00  0.00    +0.000 A 
ATOM      9  C   UNL     1       8.701   9.666  18.540  0.00  0.00    +0.000 A 
ATOM     10  N   UNL     1       7.672   9.951  17.681  0.00  0.00    +0.000 N 
ATOM     11  N   UNL     1       7.087   8.871  17.139  0.00  0.00    +0.000 NA
ATOM     12  H   UNL     1       7.337  10.866  17.407  0.00  0.00    +0.000 HD
BRANCH   9  13
ATOM     13  C   UNL     1       9.571  10.682  19.128  0.00  0.00    +0.000 A 
ATOM     14  C   UNL     1       9.410  11.074  20.465  0.00  0.00    +0.000 A 
ATOM     15  C   UNL     1      10.242  12.046  21.039  0.00  0.00    +0.000 A 
ATOM     16  C   UNL     1      11.245  12.632  20.271  0.00  0.00    +0.000 A 
ATOM     17  C   UNL     1      11.402  12.272  18.937  0.00  0.00    +0.000 A 
ATOM     18  C   UNL     1      10.567  11.302  18.367  0.00  0.00    +0.000 A 
ENDBRANCH   9  13
ENDBRANCH   4   7
BRANCH   1  19
ATOM     19  C   UNL     1       4.038   5.349  19.703  0.00  0.00    +0.000 C 
BRANCH  19  23
ATOM     20  C   UNL     1       0.765   2.546  19.297  0.00  0.00    +0.000 A 
ATOM     21  C   UNL     1       1.950   2.347  18.589  0.00  0.00    +0.000 A 
ATOM     22  C   UNL     1       3.010   3.246  18.730  0.00  0.00    +0.000 A 
ATOM     23  C   UNL     1       2.901   4.352  19.583  0.00  0.00    +0.000 A 
ATOM     24  C   UNL     1       1.721   4.513  20.329  0.00  0.00    +0.000 A 
ATOM     25  C   UNL     1       0.655   3.620  20.176  0.00  0.00    +0.000 A 
ENDBRANCH  19  23
ENDBRANCH   1  19
TORSDOF 4
ENDMDL
MODEL 9
REMARK VINA RESULT:      -8.5      0.973      1.777
REMARK  Name = 
REMARK  4 active torsions:
REMARK  status: ('A' for Active; 'I' for Inactive)
REMARK    1  A    between atoms: C_4  and  C_5
REMARK    2  A    between atoms: C_5  and  N_6
REMARK    3  A    between atoms: C_9  and  C_10
REMARK    4  A    between atoms: C_12  and  C_13
REMARK                            x       y       z     vdW  Elec       q    Type
REMARK                         _______ _______ _______ _____ _____    ______ ____
ROOT
ATOM      1  N   UNL     1       4.894   4.563  18.026  0.00  0.00    +0.000 NA
ATOM      2  C   UNL     1       4.589   5.996  18.190  0.00  0.00    +0.000 C 
ATOM      3  C   UNL     1       4.981   6.853  16.983  0.00  0.00    +0.000 C 
ATOM      4  C   UNL     1       6.440   6.664  16.553  0.00  0.00    +0.000 C 
ATOM      5  C   UNL     1       6.711   5.172  16.376  0.00  0.00    +0.000 C 
ATOM      6  C   UNL     1       6.287   4.339  17.594  0.00  0.00    +0.000 C 
ENDROOT
BRANCH   4   7
ATOM      7  C   UNL     1       7.429   7.394  17.435  0.00  0.00    +0.000 A 
ATOM      8  C   UNL     1       7.874   8.734  17.292  0.00  0.00    +0.000 A 
ATOM      9  C   UNL     1       8.588   9.022  18.445  0.00  0.00    +0.000 A 
ATOM     10  N   UNL     1       8.670   7.820  19.096  0.00  0.00    +0.000 N 
ATOM     11  N   UNL     1       7.957   6.833  18.529  0.00  0.00    +0.000 NA
ATOM     12  H   UNL     1       9.178   7.615  19.946  0.00  0.00    +0.000 HD
BRANCH   9  13
ATOM     13  C   UNL     1       9.160  10.264  18.961  0.00  0.00    +0.000 A 
ATOM     14  C   UNL     1       9.266  10.483  20.342  0.00  0.00    +0.000 A 
ATOM     15  C   UNL     1       9.816  11.670  20.846  0.00  0.00    +0.000 A 
ATOM     16  C   UNL     1      10.267  12.647  19.963  0.00  0.00    +0.000 A 
ATOM     17  C   UNL     1      10.147  12.456  18.591  0.00  0.00    +0.000 A 
ATOM     18  C   UNL     1       9.594  11.269  18.092  0.00  0.00    +0.000 A 
ENDBRANCH   9  13
ENDBRANCH   4   7
BRANCH   1  19
ATOM     19  C   UNL     1       4.675   3.837  19.306  0.00  0.00    +0.000 C 
BRANCH  19  23
ATOM     20  C   UNL     1       0.540   2.771  20.015  0.00  0.00    +0.000 A 
ATOM     21  C   UNL     1       1.084   2.654  18.736  0.00  0.00    +0.000 A 
ATOM     22  C   UNL     1       2.422   2.987  18.511  0.00  0.00    +0.000 A 
ATOM     23  C   UNL     1       3.234   3.437  19.561  0.00  0.00    +0.000 A 
ATOM     24  C   UNL     1       2.687   3.501  20.854  0.00  0.00    +0.000 A 
ATOM     25  C   UNL     1       1.344   3.181  21.075  0.00  0.00    +0.000 A 
ENDBRANCH  19  23
ENDBRANCH   1  19
TORSDOF 4
ENDMDL
