MODEL 1
REMARK VINA RESULT:      -8.1      0.000      0.000
REMARK  Name = 
REMARK  4 active torsions:
REMARK  status: ('A' for Active; 'I' for Inactive)
REMARK    1  A    between atoms: C_1  and  N_2
REMARK    2  A    between atoms: C_4  and  S_5
REMARK    3  A    between atoms: S_5  and  N_8
REMARK    4  A    between atoms: C_12  and  C_13
REMARK                            x       y       z     vdW  Elec       q    Type
REMARK                         _______ _______ _______ _____ _____    ______ ____
ROOT
ATOM      1  N   UNL     1       3.270   4.519  18.715  0.00  0.00    +0.000 N 
ATOM      2  C   UNL     1       2.704   5.703  19.223  0.00  0.00    +0.000 A 
ATOM      3  C   UNL     1       2.784   6.913  18.562  0.00  0.00    +0.000 A 
ATOM      4  C   UNL     1       2.152   8.014  19.146  0.00  0.00    +0.000 A 
ATOM      5  C   UNL     1       1.475   7.890  20.371  0.00  0.00    +0.000 A 
ATOM      6  C   UNL     1       1.505   6.613  20.943  0.00  0.00    +0.000 A 
ATOM      7  N   UNL     1       2.094   5.517  20.400  0.00  0.00    +0.000 NA
ATOM      8  H   UNL     1       2.783   3.720  19.111  0.00  0.00    +0.000 HD
ENDROOT
BRANCH   5   9
ATOM      9  C   UNL     1       0.761   9.021  21.004  0.00  0.00    +0.000 A 
ATOM     10  C   UNL     1       0.281   8.937  22.325  0.00  0.00    +0.000 A 
ATOM     11  C   UNL     1      -0.384  10.009  22.932  0.00  0.00    +0.000 A 
ATOM     12  C   UNL     1      -0.577  11.196  22.234  0.00  0.00    +0.000 A 
ATOM     13  C   UNL     1      -0.108  11.311  20.931  0.00  0.00    +0.000 A 
ATOM     14  C   UNL     1       0.547  10.234  20.322  0.00  0.00    +0.000 A 
ENDBRANCH   5   9
BRANCH   1  15
ATOM     15  S   UNL     1       4.921   4.346  19.001  0.00  0.00    +0.000 S 
ATOM     16  O   UNL     1       5.191   3.038  19.555  0.00  0.00    +0.000 OA
ATOM     17  O   UNL     1       5.362   5.560  19.654  0.00  0.00    +0.000 OA
BRANCH  15  21
ATOM     18  C   UNL     1       6.344   4.012  13.978  0.00  0.00    +0.000 C 
ATOM     19  N   UNL     1       6.328   4.234  15.405  0.00  0.00    +0.000 N 
ATOM     20  C   UNL     1       5.267   4.082  16.249  0.00  0.00    +0.000 A 
ATOM     21  C   UNL     1       5.756   4.379  17.504  0.00  0.00    +0.000 A 
ATOM     22  C   UNL     1       7.102   4.713  17.311  0.00  0.00    +0.000 A 
ATOM     23  N   UNL     1       7.460   4.620  16.025  0.00  0.00    +0.000 NA
ENDBRANCH  15  21
ENDBRANCH   1  15
TORSDOF 3
ENDMDL
MODEL 2
REMARK VINA RESULT:      -8.1      0.031      1.025
REMARK  Name = 
REMARK  4 active torsions:
REMARK  status: ('A' for Active; 'I' for Inactive)
REMARK    1  A    between atoms: C_1  and  N_2
REMARK    2  A    between atoms: C_4  and  S_5
REMARK    3  A    between atoms: S_5  and  N_8
REMARK    4  A    between atoms: C_12  and  C_13
REMARK                            x       y       z     vdW  Elec       q    Type
REMARK                         _______ _______ _______ _____ _____    ______ ____
ROOT
ATOM      1  N   UNL     1       3.249   4.544  18.704  0.00  0.00    +0.000 N 
ATOM      2  C   UNL     1       2.688   5.726  19.222  0.00  0.00    +0.000 A 
ATOM      3  C   UNL     1       2.774   6.941  18.572  0.00  0.00    +0.000 A 
ATOM      4  C   UNL     1       2.147   8.040  19.165  0.00  0.00    +0.000 A 
ATOM      5  C   UNL     1       1.468   7.909  20.388  0.00  0.00    +0.000 A 
ATOM      6  C   UNL     1       1.491   6.627  20.949  0.00  0.00    +0.000 A 
ATOM      7  N   UNL     1       2.076   5.532  20.397  0.00  0.00    +0.000 NA
ATOM      8  H   UNL     1       2.757   3.744  19.093  0.00  0.00    +0.000 HD
ENDROOT
BRANCH   5   9
ATOM      9  C   UNL     1       0.759   9.038  21.031  0.00  0.00    +0.000 A 
ATOM     10  C   UNL     1       0.534  10.246  20.345  0.00  0.00    +0.000 A 
ATOM     11  C   UNL     1      -0.146  11.313  20.944  0.00  0.00    +0.000 A 
ATOM     12  C   UNL     1      -0.628  11.192  22.243  0.00  0.00    +0.000 A 
ATOM     13  C   UNL     1      -0.426  10.008  22.943  0.00  0.00    +0.000 A 
ATOM     14  C   UNL     1       0.264   8.947  22.346  0.00  0.00    +0.000 A 
ENDBRANCH   5   9
BRANCH   1  15
ATOM     15  S   UNL     1       4.899   4.361  18.990  0.00  0.00    +0.000 S 
ATOM     16  O   UNL     1       5.160   3.052  19.547  0.00  0.00    +0.000 OA
ATOM     17  O   UNL     1       5.348   5.573  19.641  0.00  0.00    +0.000 OA
BRANCH  15  21
ATOM     18  C   UNL     1       6.320   3.999  13.968  0.00  0.00    +0.000 C 
ATOM     19  N   UNL     1       6.304   4.229  15.394  0.00  0.00    +0.000 N 
ATOM     20  C   UNL     1       5.243   4.081  16.239  0.00  0.00    +0.000 A 
ATOM     21  C   UNL     1       5.733   4.385  17.493  0.00  0.00    +0.000 A 
ATOM     22  C   UNL     1       7.079   4.717  17.297  0.00  0.00    +0.000 A 
ATOM     23  N   UNL     1       7.437   4.617  16.012  0.00  0.00    +0.000 NA
ENDBRANCH  15  21
ENDBRANCH   1  15
TORSDOF 3
ENDMDL
MODEL 3
REMARK VINA RESULT:      -7.8      0.819      1.180
REMARK  Name = 
REMARK  4 active torsions:
REMARK  status: ('A' for Active; 'I' for Inactive)
REMARK    1  A    between atoms: C_1  and  N_2
REMARK    2  A    between atoms: C_4  and  S_5
REMARK    3  A    between atoms: S_5  and  N_8
REMARK    4  A    between atoms: C_12  and  C_13
REMARK                            x       y       z     vdW  Elec       q    Type
REMARK                         _______ _______ _______ _____ _____    ______ ____
ROOT
ATOM      1  N   UNL     1       3.322   4.525  18.769  0.00  0.00    +0.000 N 
ATOM      2  C   UNL     1       2.839   5.841  18.886  0.00  0.00    +0.000 A 
ATOM      3  C   UNL     1       2.935   6.766  17.866  0.00  0.00    +0.000 A 
ATOM      4  C   UNL     1       2.386   8.032  18.084  0.00  0.00    +0.000 A 
ATOM      5  C   UNL     1       1.774   8.351  19.308  0.00  0.00    +0.000 A 
ATOM      6  C   UNL     1       1.778   7.327  20.262  0.00  0.00    +0.000 A 
ATOM      7  N   UNL     1       2.287   6.081  20.082  0.00  0.00    +0.000 NA
ATOM      8  H   UNL     1       2.822   3.927  19.421  0.00  0.00    +0.000 HD
ENDROOT
BRANCH   5   9
ATOM      9  C   UNL     1       1.147   9.667  19.566  0.00  0.00    +0.000 A 
ATOM     10  C   UNL     1       0.455   9.925  20.764  0.00  0.00    +0.000 A 
ATOM     11  C   UNL     1      -0.129  11.172  21.018  0.00  0.00    +0.000 A 
ATOM     12  C   UNL     1      -0.025  12.195  20.082  0.00  0.00    +0.000 A 
ATOM     13  C   UNL     1       0.657  11.971  18.892  0.00  0.00    +0.000 A 
ATOM     14  C   UNL     1       1.231  10.720  18.636  0.00  0.00    +0.000 A 
ENDBRANCH   5   9
BRANCH   1  15
ATOM     15  S   UNL     1       4.977   4.354  19.032  0.00  0.00    +0.000 S 
ATOM     16  O   UNL     1       5.256   3.048  19.587  0.00  0.00    +0.000 OA
ATOM     17  O   UNL     1       5.426   5.570  19.675  0.00  0.00    +0.000 OA
BRANCH  15  21
ATOM     18  C   UNL     1       6.331   4.000  13.991  0.00  0.00    +0.000 C 
ATOM     19  N   UNL     1       6.333   4.229  15.417  0.00  0.00    +0.000 N 
ATOM     20  C   UNL     1       5.285   4.077  16.277  0.00  0.00    +0.000 A 
ATOM     21  C   UNL     1       5.791   4.382  17.524  0.00  0.00    +0.000 A 
ATOM     22  C   UNL     1       7.132   4.720  17.310  0.00  0.00    +0.000 A 
ATOM     23  N   UNL     1       7.473   4.622  16.020  0.00  0.00    +0.000 NA
ENDBRANCH  15  21
ENDBRANCH   1  15
TORSDOF 3
ENDMDL
MODEL 4
REMARK VINA RESULT:      -7.8      2.313      8.150
REMARK  Name = 
REMARK  4 active torsions:
REMARK  status: ('A' for Active; 'I' for Inactive)
REMARK    1  A    between atoms: C_1  and  N_2
REMARK    2  A    between atoms: C_4  and  S_5
REMARK    3  A    between atoms: S_5  and  N_8
REMARK    4  A    between atoms: C_12  and  C_13
REMARK                            x       y       z     vdW  Elec       q    Type
REMARK                         _______ _______ _______ _____ _____    ______ ____
ROOT
ATOM      1  N   UNL     1       4.197   5.701  19.598  0.00  0.00    +0.000 N 
ATOM      2  C   UNL     1       4.628   5.523  18.271  0.00  0.00    +0.000 A 
ATOM      3  C   UNL     1       4.650   6.550  17.348  0.00  0.00    +0.000 A 
ATOM      4  C   UNL     1       5.132   6.262  16.068  0.00  0.00    +0.000 A 
ATOM      5  C   UNL     1       5.562   4.966  15.735  0.00  0.00    +0.000 A 
ATOM      6  C   UNL     1       5.450   4.018  16.758  0.00  0.00    +0.000 A 
ATOM      7  N   UNL     1       5.002   4.263  18.017  0.00  0.00    +0.000 NA
ATOM      8  H   UNL     1       4.617   4.984  20.184  0.00  0.00    +0.000 HD
ENDROOT
BRANCH   5   9
ATOM      9  C   UNL     1       6.114   4.628  14.404  0.00  0.00    +0.000 A 
ATOM     10  C   UNL     1       5.479   3.694  13.564  0.00  0.00    +0.000 A 
ATOM     11  C   UNL     1       5.991   3.380  12.299  0.00  0.00    +0.000 A 
ATOM     12  C   UNL     1       7.147   4.002  11.840  0.00  0.00    +0.000 A 
ATOM     13  C   UNL     1       7.792   4.933  12.645  0.00  0.00    +0.000 A 
ATOM     14  C   UNL     1       7.285   5.238  13.913  0.00  0.00    +0.000 A 
ENDBRANCH   5   9
BRANCH   1  15
ATOM     15  S   UNL     1       2.527   5.669  19.810  0.00  0.00    +0.000 S 
ATOM     16  O   UNL     1       2.204   5.092  21.096  0.00  0.00    +0.000 OA
ATOM     17  O   UNL     1       1.959   5.161  18.580  0.00  0.00    +0.000 OA
BRANCH  15  21
ATOM     18  C   UNL     1       1.167  10.621  18.812  0.00  0.00    +0.000 C 
ATOM     19  N   UNL     1       1.379   9.339  19.443  0.00  0.00    +0.000 N 
ATOM     20  C   UNL     1       1.919   8.223  18.875  0.00  0.00    +0.000 A 
ATOM     21  C   UNL     1       1.939   7.277  19.880  0.00  0.00    +0.000 A 
ATOM     22  C   UNL     1       1.379   7.909  20.997  0.00  0.00    +0.000 A 
ATOM     23  N   UNL     1       1.039   9.176  20.736  0.00  0.00    +0.000 NA
ENDBRANCH  15  21
ENDBRANCH   1  15
TORSDOF 3
ENDMDL
MODEL 5
REMARK VINA RESULT:      -7.8      2.169      8.233
REMARK  Name = 
REMARK  4 active torsions:
REMARK  status: ('A' for Active; 'I' for Inactive)
REMARK    1  A    between atoms: C_1  and  N_2
REMARK    2  A    between atoms: C_4  and  S_5
REMARK    3  A    between atoms: S_5  and  N_8
REMARK    4  A    between atoms: C_12  and  C_13
REMARK                            x       y       z     vdW  Elec       q    Type
REMARK                         _______ _______ _______ _____ _____    ______ ____
ROOT
ATOM      1  N   UNL     1       4.176   5.559  19.633  0.00  0.00    +0.000 N 
ATOM      2  C   UNL     1       4.607   5.417  18.301  0.00  0.00    +0.000 A 
ATOM      3  C   UNL     1       4.667   6.476  17.418  0.00  0.00    +0.000 A 
ATOM      4  C   UNL     1       5.146   6.221  16.130  0.00  0.00    +0.000 A 
ATOM      5  C   UNL     1       5.536   4.925  15.750  0.00  0.00    +0.000 A 
ATOM      6  C   UNL     1       5.389   3.944  16.736  0.00  0.00    +0.000 A 
ATOM      7  N   UNL     1       4.943   4.155  18.001  0.00  0.00    +0.000 NA
ATOM      8  H   UNL     1       4.570   4.807  20.192  0.00  0.00    +0.000 HD
ENDROOT
BRANCH   5   9
ATOM      9  C   UNL     1       6.084   4.620  14.409  0.00  0.00    +0.000 A 
ATOM     10  C   UNL     1       7.254   5.244  13.937  0.00  0.00    +0.000 A 
ATOM     11  C   UNL     1       7.782   4.950  12.675  0.00  0.00    +0.000 A 
ATOM     12  C   UNL     1       7.157   4.015  11.857  0.00  0.00    +0.000 A 
ATOM     13  C   UNL     1       6.004   3.378  12.299  0.00  0.00    +0.000 A 
ATOM     14  C   UNL     1       5.470   3.682  13.557  0.00  0.00    +0.000 A 
ENDBRANCH   5   9
BRANCH   1  15
ATOM     15  S   UNL     1       2.504   5.572  19.837  0.00  0.00    +0.000 S 
ATOM     16  O   UNL     1       2.160   5.003  21.121  0.00  0.00    +0.000 OA
ATOM     17  O   UNL     1       1.928   5.081  18.603  0.00  0.00    +0.000 OA
BRANCH  15  21
ATOM     18  C   UNL     1       0.522  10.202  21.253  0.00  0.00    +0.000 C 
ATOM     19  N   UNL     1       1.132   9.118  20.517  0.00  0.00    +0.000 N 
ATOM     20  C   UNL     1       1.424   7.870  20.984  0.00  0.00    +0.000 A 
ATOM     21  C   UNL     1       1.961   7.196  19.906  0.00  0.00    +0.000 A 
ATOM     22  C   UNL     1       1.966   8.120  18.854  0.00  0.00    +0.000 A 
ATOM     23  N   UNL     1       1.453   9.299  19.221  0.00  0.00    +0.000 NA
ENDBRANCH  15  21
ENDBRANCH   1  15
TORSDOF 3
ENDMDL
MODEL 6
REMARK VINA RESULT:      -7.3      1.131      1.757
REMARK  Name = 
REMARK  4 active torsions:
REMARK  status: ('A' for Active; 'I' for Inactive)
REMARK    1  A    between atoms: C_1  and  N_2
REMARK    2  A    between atoms: C_4  and  S_5
REMARK    3  A    between atoms: S_5  and  N_8
REMARK    4  A    between atoms: C_12  and  C_13
REMARK                            x       y       z     vdW  Elec       q    Type
REMARK                         _______ _______ _______ _____ _____    ______ ____
ROOT
ATOM      1  N   UNL     1       3.165   4.724  18.881  0.00  0.00    +0.000 N 
ATOM      2  C   UNL     1       2.691   6.048  18.908  0.00  0.00    +0.000 A 
ATOM      3  C   UNL     1       2.666   6.857  17.789  0.00  0.00    +0.000 A 
ATOM      4  C   UNL     1       2.138   8.143  17.930  0.00  0.00    +0.000 A 
ATOM      5  C   UNL     1       1.666   8.596  19.174  0.00  0.00    +0.000 A 
ATOM      6  C   UNL     1       1.784   7.682  20.227  0.00  0.00    +0.000 A 
ATOM      7  N   UNL     1       2.277   6.420  20.126  0.00  0.00    +0.000 NA
ATOM      8  H   UNL     1       2.745   4.203  19.646  0.00  0.00    +0.000 HD
ENDROOT
BRANCH   5   9
ATOM      9  C   UNL     1       1.065   9.936  19.357  0.00  0.00    +0.000 A 
ATOM     10  C   UNL     1       1.524  11.050  18.628  0.00  0.00    +0.000 A 
ATOM     11  C   UNL     1       0.952  12.317  18.789  0.00  0.00    +0.000 A 
ATOM     12  C   UNL     1      -0.103  12.498  19.678  0.00  0.00    +0.000 A 
ATOM     13  C   UNL     1      -0.581  11.416  20.406  0.00  0.00    +0.000 A 
ATOM     14  C   UNL     1      -0.000  10.152  20.252  0.00  0.00    +0.000 A 
ENDBRANCH   5   9
BRANCH   1  15
ATOM     15  S   UNL     1       4.840   4.571  18.972  0.00  0.00    +0.000 S 
ATOM     16  O   UNL     1       5.191   3.229  19.379  0.00  0.00    +0.000 OA
ATOM     17  O   UNL     1       5.329   5.737  19.677  0.00  0.00    +0.000 OA
BRANCH  15  21
ATOM     18  C   UNL     1       6.271   4.003  13.972  0.00  0.00    +0.000 C 
ATOM     19  N   UNL     1       6.089   4.497  15.318  0.00  0.00    +0.000 N 
ATOM     20  C   UNL     1       5.335   3.934  16.305  0.00  0.00    +0.000 A 
ATOM     21  C   UNL     1       5.506   4.752  17.403  0.00  0.00    +0.000 A 
ATOM     22  C   UNL     1       6.357   5.778  16.975  0.00  0.00    +0.000 A 
ATOM     23  N   UNL     1       6.723   5.623  15.698  0.00  0.00    +0.000 NA
ENDBRANCH  15  21
ENDBRANCH   1  15
TORSDOF 3
ENDMDL
MODEL 7
REMARK VINA RESULT:      -7.3      1.189      1.646
REMARK  Name = 
REMARK  4 active torsions:
REMARK  status: ('A' for Active; 'I' for Inactive)
REMARK    1  A    between atoms: C_1  and  N_2
REMARK    2  A    between atoms: C_4  and  S_5
REMARK    3  A    between atoms: S_5  and  N_8
REMARK    4  A    between atoms: C_12  and  C_13
REMARK                            x       y       z     vdW  Elec       q    Type
REMARK                         _______ _______ _______ _____ _____    ______ ____
ROOT
ATOM      1  N   UNL     1       3.546   5.737  17.712  0.00  0.00    +0.000 N 
ATOM      2  C   UNL     1       2.848   6.712  18.448  0.00  0.00    +0.000 A 
ATOM      3  C   UNL     1       2.560   7.965  17.944  0.00  0.00    +0.000 A 
ATOM      4  C   UNL     1       1.830   8.838  18.754  0.00  0.00    +0.000 A 
ATOM      5  C   UNL     1       1.420   8.452  20.042  0.00  0.00    +0.000 A 
ATOM      6  C   UNL     1       1.810   7.167  20.434  0.00  0.00    +0.000 A 
ATOM      7  N   UNL     1       2.506   6.286  19.671  0.00  0.00    +0.000 NA
ATOM      8  H   UNL     1       3.310   4.816  18.071  0.00  0.00    +0.000 HD
ENDROOT
BRANCH   5   9
ATOM      9  C   UNL     1       0.612   9.332  20.917  0.00  0.00    +0.000 A 
ATOM     10  C   UNL     1       0.043  10.524  20.432  0.00  0.00    +0.000 A 
ATOM     11  C   UNL     1      -0.731  11.353  21.252  0.00  0.00    +0.000 A 
ATOM     12  C   UNL     1      -0.963  11.003  22.578  0.00  0.00    +0.000 A 
ATOM     13  C   UNL     1      -0.419   9.829  23.083  0.00  0.00    +0.000 A 
ATOM     14  C   UNL     1       0.364   9.007  22.265  0.00  0.00    +0.000 A 
ENDBRANCH   5   9
BRANCH   1  15
ATOM     15  S   UNL     1       5.221   5.911  17.718  0.00  0.00    +0.000 S 
ATOM     16  O   UNL     1       5.796   5.106  18.772  0.00  0.00    +0.000 OA
ATOM     17  O   UNL     1       5.495   7.328  17.602  0.00  0.00    +0.000 OA
BRANCH  15  21
ATOM     18  C   UNL     1       5.937   3.603  13.078  0.00  0.00    +0.000 C 
ATOM     19  N   UNL     1       6.133   4.301  14.328  0.00  0.00    +0.000 N 
ATOM     20  C   UNL     1       5.175   4.656  15.231  0.00  0.00    +0.000 A 
ATOM     21  C   UNL     1       5.857   5.266  16.264  0.00  0.00    +0.000 A 
ATOM     22  C   UNL     1       7.204   5.246  15.883  0.00  0.00    +0.000 A 
ATOM     23  N   UNL     1       7.381   4.650  14.699  0.00  0.00    +0.000 NA
ENDBRANCH  15  21
ENDBRANCH   1  15
TORSDOF 3
ENDMDL
MODEL 8
REMARK VINA RESULT:      -7.0      4.414      9.175
REMARK  Name = 
REMARK  4 active torsions:
REMARK  status: ('A' for Active; 'I' for Inactive)
REMARK    1  A    between atoms: C_1  and  N_2
REMARK    2  A    between atoms: C_4  and  S_5
REMARK    3  A    between atoms: S_5  and  N_8
REMARK    4  A    between atoms: C_12  and  C_13
REMARK                            x       y       z     vdW  Elec       q    Type
REMARK                         _______ _______ _______ _____ _____    ______ ____
ROOT
ATOM      1  N   UNL     1      -0.197   9.649  20.793  0.00  0.00    +0.000 N 
ATOM      2  C   UNL     1       0.743   8.820  20.154  0.00  0.00    +0.000 A 
ATOM      3  C   UNL     1       1.240   7.669  20.733  0.00  0.00    +0.000 A 
ATOM      4  C   UNL     1       2.143   6.906  19.988  0.00  0.00    +0.000 A 
ATOM      5  C   UNL     1       2.539   7.311  18.702  0.00  0.00    +0.000 A 
ATOM      6  C   UNL     1       1.982   8.515  18.257  0.00  0.00    +0.000 A 
ATOM      7  N   UNL     1       1.091   9.276  18.944  0.00  0.00    +0.000 NA
ATOM      8  H   UNL     1      -0.709  10.176  20.091  0.00  0.00    +0.000 HD
ENDROOT
BRANCH   5   9
ATOM      9  C   UNL     1       3.463   6.513  17.865  0.00  0.00    +0.000 A 
ATOM     10  C   UNL     1       4.499   7.122  17.132  0.00  0.00    +0.000 A 
ATOM     11  C   UNL     1       5.383   6.371  16.349  0.00  0.00    +0.000 A 
ATOM     12  C   UNL     1       5.257   4.987  16.288  0.00  0.00    +0.000 A 
ATOM     13  C   UNL     1       4.248   4.357  17.006  0.00  0.00    +0.000 A 
ATOM     14  C   UNL     1       3.358   5.111  17.780  0.00  0.00    +0.000 A 
ENDBRANCH   5   9
BRANCH   1  15
ATOM     15  S   UNL     1       0.455  10.724  21.914  0.00  0.00    +0.000 S 
ATOM     16  O   UNL     1       1.381  11.620  21.256  0.00  0.00    +0.000 OA
ATOM     17  O   UNL     1       0.837   9.943  23.070  0.00  0.00    +0.000 OA
BRANCH  15  21
ATOM     18  C   UNL     1      -3.872  12.679  24.111  0.00  0.00    +0.000 C 
ATOM     19  N   UNL     1      -2.602  12.527  23.438  0.00  0.00    +0.000 N 
ATOM     20  C   UNL     1      -1.923  11.365  23.216  0.00  0.00    +0.000 A 
ATOM     21  C   UNL     1      -0.793  11.733  22.515  0.00  0.00    +0.000 A 
ATOM     22  C   UNL     1      -0.874  13.124  22.382  0.00  0.00    +0.000 A 
ATOM     23  N   UNL     1      -1.985  13.617  22.941  0.00  0.00    +0.000 NA
ENDBRANCH  15  21
ENDBRANCH   1  15
TORSDOF 3
ENDMDL
MODEL 9
REMARK VINA RESULT:      -7.0      1.102      1.313
REMARK  Name = 
REMARK  4 active torsions:
REMARK  status: ('A' for Active; 'I' for Inactive)
REMARK    1  A    between atoms: C_1  and  N_2
REMARK    2  A    between atoms: C_4  and  S_5
REMARK    3  A    between atoms: S_5  and  N_8
REMARK    4  A    between atoms: C_12  and  C_13
REMARK                            x       y       z     vdW  Elec       q    Type
REMARK                         _______ _______ _______ _____ _____    ______ ____
ROOT
ATOM      1  N   UNL     1       3.746   5.056  17.890  0.00  0.00    +0.000 N 
ATOM      2  C   UNL     1       3.080   6.112  18.538  0.00  0.00    +0.000 A 
ATOM      3  C   UNL     1       2.831   7.326  17.928  0.00  0.00    +0.000 A 
ATOM      4  C   UNL     1       2.128   8.288  18.658  0.00  0.00    +0.000 A 
ATOM      5  C   UNL     1       1.706   8.027  19.973  0.00  0.00    +0.000 A 
ATOM      6  C   UNL     1       2.057   6.768  20.475  0.00  0.00    +0.000 A 
ATOM      7  N   UNL     1       2.725   5.803  19.792  0.00  0.00    +0.000 NA
ATOM      8  H   UNL     1       3.482   4.177  18.326  0.00  0.00    +0.000 HD
ENDROOT
BRANCH   5   9
ATOM      9  C   UNL     1       0.927   9.003  20.767  0.00  0.00    +0.000 A 
ATOM     10  C   UNL     1       0.635   8.776  22.125  0.00  0.00    +0.000 A 
ATOM     11  C   UNL     1      -0.091   9.701  22.884  0.00  0.00    +0.000 A 
ATOM     12  C   UNL     1      -0.536  10.884  22.302  0.00  0.00    +0.000 A 
ATOM     13  C   UNL     1      -0.258  11.139  20.965  0.00  0.00    +0.000 A 
ATOM     14  C   UNL     1       0.460  10.207  20.205  0.00  0.00    +0.000 A 
ENDBRANCH   5   9
BRANCH   1  15
ATOM     15  S   UNL     1       5.427   5.178  17.886  0.00  0.00    +0.000 S 
ATOM     16  O   UNL     1       5.996   4.166  18.747  0.00  0.00    +0.000 OA
ATOM     17  O   UNL     1       5.745   6.582  18.041  0.00  0.00    +0.000 OA
BRANCH  15  21
ATOM     18  C   UNL     1       7.824   5.189  13.236  0.00  0.00    +0.000 C 
ATOM     19  N   UNL     1       7.022   4.836  14.385  0.00  0.00    +0.000 N 
ATOM     20  C   UNL     1       6.910   5.530  15.554  0.00  0.00    +0.000 A 
ATOM     21  C   UNL     1       6.012   4.813  16.317  0.00  0.00    +0.000 A 
ATOM     22  C   UNL     1       5.659   3.706  15.536  0.00  0.00    +0.000 A 
ATOM     23  N   UNL     1       6.271   3.718  14.347  0.00  0.00    +0.000 NA
ENDBRANCH  15  21
ENDBRANCH   1  15
TORSDOF 3
ENDMDL
