MODEL 1
REMARK VINA RESULT:      -7.0      0.000      0.000
REMARK  Name = 
REMARK  10 active torsions:
REMARK  status: ('A' for Active; 'I' for Inactive)
REMARK    1  A    between atoms: C_1  and  C_2
REMARK    2  A    between atoms: C_2  and  N_3
REMARK    3  A    between atoms: C_7  and  C_9
REMARK    4  A    between atoms: C_9  and  O_10
REMARK    5  A    between atoms: O_10  and  C_11
REMARK    6  A    between atoms: C_11  and  C_13
REMARK    7  A    between atoms: C_13  and  C_14
REMARK    8  A    between atoms: C_14  and  C_15
REMARK    9  A    between atoms: C_15  and  S_16
REMARK   10  A    between atoms: S_16  and  C_17
REMARK                            x       y       z     vdW  Elec       q    Type
REMARK                         _______ _______ _______ _____ _____    ______ ____
ROOT
ATOM      1  C   UNL     1       2.048   5.804  20.377  0.00  0.00    +0.000 C 
ATOM      2  O   UNL     1       2.531   6.079  19.288  0.00  0.00    +0.000 OA
ENDROOT
BRANCH   1   3
ATOM      3  O   UNL     1       1.357   6.692  21.138  0.00  0.00    +0.000 OA
BRANCH   3   4
ATOM      4  C   UNL     1       1.447   8.049  20.699  0.00  0.00    +0.000 C 
BRANCH   4   9
ATOM      5  N   UNL     1      -1.125  11.082  22.447  0.00  0.00    +0.000 N 
ATOM      6  C   UNL     1       0.029  11.391  21.789  0.00  0.00    +0.000 C 
ATOM      7  O   UNL     1       0.469  12.531  21.682  0.00  0.00    +0.000 OA
ATOM      8  N   UNL     1       0.712  10.330  21.245  0.00  0.00    +0.000 N 
ATOM      9  C   UNL     1       0.419   8.980  21.340  0.00  0.00    +0.000 C 
ATOM     10  O   UNL     1      -0.612   8.538  21.848  0.00  0.00    +0.000 OA
ATOM     11  H   UNL     1      -1.419  10.108  22.430  0.00  0.00    +0.000 HD
ATOM     12  H   UNL     1       1.566  10.612  20.772  0.00  0.00    +0.000 HD
BRANCH   5  14
ATOM     13  C   UNL     1      -3.103  12.511  22.160  0.00  0.00    +0.000 C 
ATOM     14  C   UNL     1      -1.979  12.063  23.075  0.00  0.00    +0.000 C 
ENDBRANCH   5  14
ENDBRANCH   4   9
ENDBRANCH   3   4
ENDBRANCH   1   3
BRANCH   1  15
ATOM     15  C   UNL     1       2.165   4.478  21.086  0.00  0.00    +0.000 C 
BRANCH  15  16
ATOM     16  C   UNL     1       1.294   3.385  20.452  0.00  0.00    +0.000 C 
BRANCH  16  17
ATOM     17  C   UNL     1       1.558   3.089  18.966  0.00  0.00    +0.000 C 
BRANCH  17  18
ATOM     18  S   UNL     1       3.079   2.126  18.758  0.00  0.00    +0.000 S 
BRANCH  18  19
ATOM     19  C   UNL     1       4.272   3.356  18.397  0.00  0.00    +0.000 A 
ATOM     20  N   UNL     1       5.140   3.809  19.272  0.00  0.00    +0.000 NA
ATOM     21  C   UNL     1       5.948   4.766  18.666  0.00  0.00    +0.000 A 
ATOM     22  C   UNL     1       7.014   5.469  19.268  0.00  0.00    +0.000 A 
ATOM     23  C   UNL     1       7.730   6.422  18.531  0.00  0.00    +0.000 A 
ATOM     24  C   UNL     1       7.400   6.688  17.208  0.00  0.00    +0.000 A 
ATOM     25  C   UNL     1       6.353   6.005  16.584  0.00  0.00    +0.000 A 
ATOM     26  C   UNL     1       5.644   5.049  17.331  0.00  0.00    +0.000 A 
ATOM     27  S   UNL     1       4.331   4.059  16.836  0.00  0.00    +0.000 S 
ENDBRANCH  18  19
ENDBRANCH  17  18
ENDBRANCH  16  17
ENDBRANCH  15  16
ENDBRANCH   1  15
TORSDOF 9
ENDMDL
MODEL 2
REMARK VINA RESULT:      -6.9      6.198      9.387
REMARK  Name = 
REMARK  10 active torsions:
REMARK  status: ('A' for Active; 'I' for Inactive)
REMARK    1  A    between atoms: C_1  and  C_2
REMARK    2  A    between atoms: C_2  and  N_3
REMARK    3  A    between atoms: C_7  and  C_9
REMARK    4  A    between atoms: C_9  and  O_10
REMARK    5  A    between atoms: O_10  and  C_11
REMARK    6  A    between atoms: C_11  and  C_13
REMARK    7  A    between atoms: C_13  and  C_14
REMARK    8  A    between atoms: C_14  and  C_15
REMARK    9  A    between atoms: C_15  and  S_16
REMARK   10  A    between atoms: S_16  and  C_17
REMARK                            x       y       z     vdW  Elec       q    Type
REMARK                         _______ _______ _______ _____ _____    ______ ____
ROOT
ATOM      1  C   UNL     1       7.305   6.377  16.993  0.00  0.00    +0.000 C 
ATOM      2  O   UNL     1       7.400   6.037  15.822  0.00  0.00    +0.000 OA
ENDROOT
BRANCH   1   3
ATOM      3  O   UNL     1       7.372   5.506  18.034  0.00  0.00    +0.000 OA
BRANCH   3   4
ATOM      4  C   UNL     1       6.667   4.280  17.832  0.00  0.00    +0.000 C 
BRANCH   4   9
ATOM      5  N   UNL     1       2.786   3.614  19.665  0.00  0.00    +0.000 N 
ATOM      6  C   UNL     1       3.365   2.708  18.826  0.00  0.00    +0.000 C 
ATOM      7  O   UNL     1       2.826   1.663  18.473  0.00  0.00    +0.000 OA
ATOM      8  N   UNL     1       4.617   3.033  18.363  0.00  0.00    +0.000 N 
ATOM      9  C   UNL     1       5.338   4.195  18.581  0.00  0.00    +0.000 C 
ATOM     10  O   UNL     1       4.985   5.084  19.355  0.00  0.00    +0.000 OA
ATOM     11  H   UNL     1       3.347   4.421  19.930  0.00  0.00    +0.000 HD
ATOM     12  H   UNL     1       5.001   2.330  17.739  0.00  0.00    +0.000 HD
BRANCH   5  14
ATOM     13  C   UNL     1       1.546   2.711  21.585  0.00  0.00    +0.000 C 
ATOM     14  C   UNL     1       1.480   3.441  20.256  0.00  0.00    +0.000 C 
ENDBRANCH   5  14
ENDBRANCH   4   9
ENDBRANCH   3   4
ENDBRANCH   1   3
BRANCH   1  15
ATOM     15  C   UNL     1       7.053   7.778  17.489  0.00  0.00    +0.000 C 
BRANCH  15  16
ATOM     16  C   UNL     1       8.288   8.405  18.151  0.00  0.00    +0.000 C 
BRANCH  16  17
ATOM     17  C   UNL     1       8.484   9.913  17.920  0.00  0.00    +0.000 C 
BRANCH  17  18
ATOM     18  S   UNL     1       9.431  10.658  19.274  0.00  0.00    +0.000 S 
BRANCH  18  19
ATOM     19  C   UNL     1       9.773  12.265  18.670  0.00  0.00    +0.000 A 
ATOM     20  N   UNL     1       8.962  13.287  18.818  0.00  0.00    +0.000 NA
ATOM     21  C   UNL     1       9.533  14.416  18.238  0.00  0.00    +0.000 A 
ATOM     22  C   UNL     1       8.982  15.715  18.209  0.00  0.00    +0.000 A 
ATOM     23  C   UNL     1       9.670  16.754  17.566  0.00  0.00    +0.000 A 
ATOM     24  C   UNL     1      10.894  16.518  16.953  0.00  0.00    +0.000 A 
ATOM     25  C   UNL     1      11.466  15.244  16.969  0.00  0.00    +0.000 A 
ATOM     26  C   UNL     1      10.769  14.211  17.619  0.00  0.00    +0.000 A 
ATOM     27  S   UNL     1      11.222  12.565  17.807  0.00  0.00    +0.000 S 
ENDBRANCH  18  19
ENDBRANCH  17  18
ENDBRANCH  16  17
ENDBRANCH  15  16
ENDBRANCH   1  15
TORSDOF 9
ENDMDL
MODEL 3
REMARK VINA RESULT:      -6.9      2.057      2.464
REMARK  Name = 
REMARK  10 active torsions:
REMARK  status: ('A' for Active; 'I' for Inactive)
REMARK    1  A    between atoms: C_1  and  C_2
REMARK    2  A    between atoms: C_2  and  N_3
REMARK    3  A    between atoms: C_7  and  C_9
REMARK    4  A    between atoms: C_9  and  O_10
REMARK    5  A    between atoms: O_10  and  C_11
REMARK    6  A    between atoms: C_11  and  C_13
REMARK    7  A    between atoms: C_13  and  C_14
REMARK    8  A    between atoms: C_14  and  C_15
REMARK    9  A    between atoms: C_15  and  S_16
REMARK   10  A    between atoms: S_16  and  C_17
REMARK                            x       y       z     vdW  Elec       q    Type
REMARK                         _______ _______ _______ _____ _____    ______ ____
ROOT
ATOM      1  C   UNL     1       1.798   4.189  20.692  0.00  0.00    +0.000 C 
ATOM      2  O   UNL     1       2.884   3.971  21.211  0.00  0.00    +0.000 OA
ENDROOT
BRANCH   1   3
ATOM      3  O   UNL     1       1.338   5.437  20.410  0.00  0.00    +0.000 OA
BRANCH   3   4
ATOM      4  C   UNL     1       2.308   6.475  20.551  0.00  0.00    +0.000 C 
BRANCH   4   9
ATOM      5  N   UNL     1       0.999  10.440  19.354  0.00  0.00    +0.000 N 
ATOM      6  C   UNL     1       1.618   9.583  18.493  0.00  0.00    +0.000 C 
ATOM      7  O   UNL     1       1.909   9.869  17.335  0.00  0.00    +0.000 OA
ATOM      8  N   UNL     1       1.929   8.344  19.000  0.00  0.00    +0.000 N 
ATOM      9  C   UNL     1       1.760   7.878  20.293  0.00  0.00    +0.000 C 
ATOM     10  O   UNL     1       1.168   8.502  21.173  0.00  0.00    +0.000 OA
ATOM     11  H   UNL     1       0.762  10.078  20.275  0.00  0.00    +0.000 HD
ATOM     12  H   UNL     1       2.393   7.746  18.322  0.00  0.00    +0.000 HD
BRANCH   5  14
ATOM     13  C   UNL     1      -0.860  11.835  18.556  0.00  0.00    +0.000 C 
ATOM     14  C   UNL     1       0.591  11.779  18.998  0.00  0.00    +0.000 C 
ENDBRANCH   5  14
ENDBRANCH   4   9
ENDBRANCH   3   4
ENDBRANCH   1   3
BRANCH   1  15
ATOM     15  C   UNL     1       0.771   3.150  20.321  0.00  0.00    +0.000 C 
BRANCH  15  16
ATOM     16  C   UNL     1       0.975   2.591  18.906  0.00  0.00    +0.000 C 
BRANCH  16  17
ATOM     17  C   UNL     1       1.982   3.344  18.021  0.00  0.00    +0.000 C 
BRANCH  17  18
ATOM     18  S   UNL     1       3.592   2.513  18.021  0.00  0.00    +0.000 S 
BRANCH  18  19
ATOM     19  C   UNL     1       4.721   3.851  17.988  0.00  0.00    +0.000 A 
ATOM     20  N   UNL     1       5.712   3.990  18.837  0.00  0.00    +0.000 NA
ATOM     21  C   UNL     1       6.423   5.147  18.531  0.00  0.00    +0.000 A 
ATOM     22  C   UNL     1       7.569   5.629  19.197  0.00  0.00    +0.000 A 
ATOM     23  C   UNL     1       8.169   6.826  18.783  0.00  0.00    +0.000 A 
ATOM     24  C   UNL     1       7.644   7.550  17.719  0.00  0.00    +0.000 A 
ATOM     25  C   UNL     1       6.513   7.094  17.037  0.00  0.00    +0.000 A 
ATOM     26  C   UNL     1       5.922   5.891  17.459  0.00  0.00    +0.000 A 
ATOM     27  S   UNL     1       4.545   5.090  16.817  0.00  0.00    +0.000 S 
ENDBRANCH  18  19
ENDBRANCH  17  18
ENDBRANCH  16  17
ENDBRANCH  15  16
ENDBRANCH   1  15
TORSDOF 9
ENDMDL
MODEL 4
REMARK VINA RESULT:      -6.8      3.319      8.773
REMARK  Name = 
REMARK  10 active torsions:
REMARK  status: ('A' for Active; 'I' for Inactive)
REMARK    1  A    between atoms: C_1  and  C_2
REMARK    2  A    between atoms: C_2  and  N_3
REMARK    3  A    between atoms: C_7  and  C_9
REMARK    4  A    between atoms: C_9  and  O_10
REMARK    5  A    between atoms: O_10  and  C_11
REMARK    6  A    between atoms: C_11  and  C_13
REMARK    7  A    between atoms: C_13  and  C_14
REMARK    8  A    between atoms: C_14  and  C_15
REMARK    9  A    between atoms: C_15  and  S_16
REMARK   10  A    between atoms: S_16  and  C_17
REMARK                            x       y       z     vdW  Elec       q    Type
REMARK                         _______ _______ _______ _____ _____    ______ ____
ROOT
ATOM      1  C   UNL     1       1.575   2.910  20.843  0.00  0.00    +0.000 C 
ATOM      2  O   UNL     1       1.572   2.544  22.010  0.00  0.00    +0.000 OA
ENDROOT
BRANCH   1   3
ATOM      3  O   UNL     1       2.096   2.174  19.827  0.00  0.00    +0.000 OA
BRANCH   3   4
ATOM      4  C   UNL     1       3.523   2.155  19.777  0.00  0.00    +0.000 C 
BRANCH   4   9
ATOM      5  N   UNL     1       5.596   4.712  16.942  0.00  0.00    +0.000 N 
ATOM      6  C   UNL     1       6.140   4.357  18.141  0.00  0.00    +0.000 C 
ATOM      7  O   UNL     1       7.223   4.767  18.548  0.00  0.00    +0.000 OA
ATOM      8  N   UNL     1       5.388   3.502  18.911  0.00  0.00    +0.000 N 
ATOM      9  C   UNL     1       4.119   3.011  18.659  0.00  0.00    +0.000 C 
ATOM     10  O   UNL     1       3.514   3.188  17.602  0.00  0.00    +0.000 OA
ATOM     11  H   UNL     1       4.715   4.271  16.686  0.00  0.00    +0.000 HD
ATOM     12  H   UNL     1       5.834   3.273  19.795  0.00  0.00    +0.000 HD
BRANCH   5  14
ATOM     13  C   UNL     1       6.957   4.829  14.899  0.00  0.00    +0.000 C 
ATOM     14  C   UNL     1       6.241   5.594  15.998  0.00  0.00    +0.000 C 
ENDBRANCH   5  14
ENDBRANCH   4   9
ENDBRANCH   3   4
ENDBRANCH   1   3
BRANCH   1  15
ATOM     15  C   UNL     1       1.059   4.230  20.329  0.00  0.00    +0.000 C 
BRANCH  15  16
ATOM     16  C   UNL     1       2.065   5.375  20.512  0.00  0.00    +0.000 C 
BRANCH  16  17
ATOM     17  C   UNL     1       1.486   6.709  21.011  0.00  0.00    +0.000 C 
BRANCH  17  18
ATOM     18  S   UNL     1       1.736   8.022  19.787  0.00  0.00    +0.000 S 
BRANCH  18  19
ATOM     19  C   UNL     1       0.733   9.320  20.399  0.00  0.00    +0.000 A 
ATOM     20  N   UNL     1       0.280   9.372  21.630  0.00  0.00    +0.000 NA
ATOM     21  C   UNL     1      -0.471  10.532  21.796  0.00  0.00    +0.000 A 
ATOM     22  C   UNL     1      -1.106  10.959  22.982  0.00  0.00    +0.000 A 
ATOM     23  C   UNL     1      -1.847  12.149  22.990  0.00  0.00    +0.000 A 
ATOM     24  C   UNL     1      -1.967  12.916  21.838  0.00  0.00    +0.000 A 
ATOM     25  C   UNL     1      -1.346  12.521  20.651  0.00  0.00    +0.000 A 
ATOM     26  C   UNL     1      -0.603  11.328  20.655  0.00  0.00    +0.000 A 
ATOM     27  S   UNL     1       0.266  10.603  19.364  0.00  0.00    +0.000 S 
ENDBRANCH  18  19
ENDBRANCH  17  18
ENDBRANCH  16  17
ENDBRANCH  15  16
ENDBRANCH   1  15
TORSDOF 9
ENDMDL
MODEL 5
REMARK VINA RESULT:      -6.8      6.764      9.879
REMARK  Name = 
REMARK  10 active torsions:
REMARK  status: ('A' for Active; 'I' for Inactive)
REMARK    1  A    between atoms: C_1  and  C_2
REMARK    2  A    between atoms: C_2  and  N_3
REMARK    3  A    between atoms: C_7  and  C_9
REMARK    4  A    between atoms: C_9  and  O_10
REMARK    5  A    between atoms: O_10  and  C_11
REMARK    6  A    between atoms: C_11  and  C_13
REMARK    7  A    between atoms: C_13  and  C_14
REMARK    8  A    between atoms: C_14  and  C_15
REMARK    9  A    between atoms: C_15  and  S_16
REMARK   10  A    between atoms: S_16  and  C_17
REMARK                            x       y       z     vdW  Elec       q    Type
REMARK                         _______ _______ _______ _____ _____    ______ ____
ROOT
ATOM      1  C   UNL     1       7.589   7.325  17.476  0.00  0.00    +0.000 C 
ATOM      2  O   UNL     1       7.626   6.789  16.377  0.00  0.00    +0.000 OA
ENDROOT
BRANCH   1   3
ATOM      3  O   UNL     1       7.460   6.639  18.642  0.00  0.00    +0.000 OA
BRANCH   3   4
ATOM      4  C   UNL     1       7.158   5.251  18.485  0.00  0.00    +0.000 C 
BRANCH   4   9
ATOM      5  N   UNL     1       3.301   3.664  19.700  0.00  0.00    +0.000 N 
ATOM      6  C   UNL     1       4.415   2.885  19.604  0.00  0.00    +0.000 C 
ATOM      7  O   UNL     1       4.420   1.672  19.793  0.00  0.00    +0.000 OA
ATOM      8  N   UNL     1       5.575   3.536  19.257  0.00  0.00    +0.000 N 
ATOM      9  C   UNL     1       5.744   4.869  18.922  0.00  0.00    +0.000 C 
ATOM     10  O   UNL     1       4.855   5.716  19.014  0.00  0.00    +0.000 OA
ATOM     11  H   UNL     1       3.426   4.666  19.571  0.00  0.00    +0.000 HD
ATOM     12  H   UNL     1       6.374   2.912  19.193  0.00  0.00    +0.000 HD
BRANCH   5  14
ATOM     13  C   UNL     1       1.797   3.112  21.563  0.00  0.00    +0.000 C 
ATOM     14  C   UNL     1       1.996   3.159  20.060  0.00  0.00    +0.000 C 
ENDBRANCH   5  14
ENDBRANCH   4   9
ENDBRANCH   3   4
ENDBRANCH   1   3
BRANCH   1  15
ATOM     15  C   UNL     1       7.631   8.809  17.738  0.00  0.00    +0.000 C 
BRANCH  15  16
ATOM     16  C   UNL     1       8.853   9.234  18.563  0.00  0.00    +0.000 C 
BRANCH  16  17
ATOM     17  C   UNL     1       9.430  10.624  18.249  0.00  0.00    +0.000 C 
BRANCH  17  18
ATOM     18  S   UNL     1       9.669  11.584  19.767  0.00  0.00    +0.000 S 
BRANCH  18  19
ATOM     19  C   UNL     1       9.914  13.210  19.164  0.00  0.00    +0.000 A 
ATOM     20  N   UNL     1       9.654  14.292  19.860  0.00  0.00    +0.000 NA
ATOM     21  C   UNL     1       9.968  15.415  19.100  0.00  0.00    +0.000 A 
ATOM     22  C   UNL     1       9.850  16.762  19.505  0.00  0.00    +0.000 A 
ATOM     23  C   UNL     1      10.190  17.793  18.617  0.00  0.00    +0.000 A 
ATOM     24  C   UNL     1      10.643  17.502  17.336  0.00  0.00    +0.000 A 
ATOM     25  C   UNL     1      10.773  16.178  16.909  0.00  0.00    +0.000 A 
ATOM     26  C   UNL     1      10.433  15.154  17.809  0.00  0.00    +0.000 A 
ATOM     27  S   UNL     1      10.497  13.454  17.572  0.00  0.00    +0.000 S 
ENDBRANCH  18  19
ENDBRANCH  17  18
ENDBRANCH  16  17
ENDBRANCH  15  16
ENDBRANCH   1  15
TORSDOF 9
ENDMDL
MODEL 6
REMARK VINA RESULT:      -6.8      3.174      8.324
REMARK  Name = 
REMARK  10 active torsions:
REMARK  status: ('A' for Active; 'I' for Inactive)
REMARK    1  A    between atoms: C_1  and  C_2
REMARK    2  A    between atoms: C_2  and  N_3
REMARK    3  A    between atoms: C_7  and  C_9
REMARK    4  A    between atoms: C_9  and  O_10
REMARK    5  A    between atoms: O_10  and  C_11
REMARK    6  A    between atoms: C_11  and  C_13
REMARK    7  A    between atoms: C_13  and  C_14
REMARK    8  A    between atoms: C_14  and  C_15
REMARK    9  A    between atoms: C_15  and  S_16
REMARK   10  A    between atoms: S_16  and  C_17
REMARK                            x       y       z     vdW  Elec       q    Type
REMARK                         _______ _______ _______ _____ _____    ______ ____
ROOT
ATOM      1  C   UNL     1       1.572   3.557  18.397  0.00  0.00    +0.000 C 
ATOM      2  O   UNL     1       0.967   3.802  17.363  0.00  0.00    +0.000 OA
ENDROOT
BRANCH   1   3
ATOM      3  O   UNL     1       2.735   2.856  18.438  0.00  0.00    +0.000 OA
BRANCH   3   4
ATOM      4  C   UNL     1       3.534   2.958  17.259  0.00  0.00    +0.000 C 
BRANCH   4   9
ATOM      5  N   UNL     1       6.549   6.084  17.194  0.00  0.00    +0.000 N 
ATOM      6  C   UNL     1       6.857   4.767  17.022  0.00  0.00    +0.000 C 
ATOM      7  O   UNL     1       8.002   4.344  16.893  0.00  0.00    +0.000 OA
ATOM      8  N   UNL     1       5.792   3.898  17.016  0.00  0.00    +0.000 N 
ATOM      9  C   UNL     1       4.454   4.178  17.234  0.00  0.00    +0.000 C 
ATOM     10  O   UNL     1       4.003   5.318  17.347  0.00  0.00    +0.000 OA
ATOM     11  H   UNL     1       5.561   6.325  17.240  0.00  0.00    +0.000 HD
ATOM     12  H   UNL     1       6.074   2.930  16.891  0.00  0.00    +0.000 HD
BRANCH   5  14
ATOM     13  C   UNL     1       8.153   7.312  18.594  0.00  0.00    +0.000 C 
ATOM     14  C   UNL     1       7.533   7.142  17.219  0.00  0.00    +0.000 C 
ENDBRANCH   5  14
ENDBRANCH   4   9
ENDBRANCH   3   4
ENDBRANCH   1   3
BRANCH   1  15
ATOM     15  C   UNL     1       1.132   3.933  19.789  0.00  0.00    +0.000 C 
BRANCH  15  16
ATOM     16  C   UNL     1       2.285   4.450  20.659  0.00  0.00    +0.000 C 
BRANCH  16  17
ATOM     17  C   UNL     1       2.149   5.893  21.173  0.00  0.00    +0.000 C 
BRANCH  17  18
ATOM     18  S   UNL     1       2.173   7.075  19.799  0.00  0.00    +0.000 S 
BRANCH  18  19
ATOM     19  C   UNL     1       1.236   8.416  20.424  0.00  0.00    +0.000 A 
ATOM     20  N   UNL     1       0.742   8.456  21.640  0.00  0.00    +0.000 NA
ATOM     21  C   UNL     1       0.063   9.657  21.822  0.00  0.00    +0.000 A 
ATOM     22  C   UNL     1      -0.585  10.085  23.000  0.00  0.00    +0.000 A 
ATOM     23  C   UNL     1      -1.246  11.321  23.027  0.00  0.00    +0.000 A 
ATOM     24  C   UNL     1      -1.274  12.133  21.900  0.00  0.00    +0.000 A 
ATOM     25  C   UNL     1      -0.637  11.738  20.721  0.00  0.00    +0.000 A 
ATOM     26  C   UNL     1       0.026  10.499  20.707  0.00  0.00    +0.000 A 
ATOM     27  S   UNL     1       0.893   9.761  19.421  0.00  0.00    +0.000 S 
ENDBRANCH  18  19
ENDBRANCH  17  18
ENDBRANCH  16  17
ENDBRANCH  15  16
ENDBRANCH   1  15
TORSDOF 9
ENDMDL
MODEL 7
REMARK VINA RESULT:      -6.8      3.354      7.951
REMARK  Name = 
REMARK  10 active torsions:
REMARK  status: ('A' for Active; 'I' for Inactive)
REMARK    1  A    between atoms: C_1  and  C_2
REMARK    2  A    between atoms: C_2  and  N_3
REMARK    3  A    between atoms: C_7  and  C_9
REMARK    4  A    between atoms: C_9  and  O_10
REMARK    5  A    between atoms: O_10  and  C_11
REMARK    6  A    between atoms: C_11  and  C_13
REMARK    7  A    between atoms: C_13  and  C_14
REMARK    8  A    between atoms: C_14  and  C_15
REMARK    9  A    between atoms: C_15  and  S_16
REMARK   10  A    between atoms: S_16  and  C_17
REMARK                            x       y       z     vdW  Elec       q    Type
REMARK                         _______ _______ _______ _____ _____    ______ ____
ROOT
ATOM      1  C   UNL     1       1.217   2.697  19.429  0.00  0.00    +0.000 C 
ATOM      2  O   UNL     1       0.575   2.234  18.498  0.00  0.00    +0.000 OA
ENDROOT
BRANCH   1   3
ATOM      3  O   UNL     1       2.330   2.109  19.941  0.00  0.00    +0.000 OA
BRANCH   3   4
ATOM      4  C   UNL     1       3.233   1.593  18.962  0.00  0.00    +0.000 C 
BRANCH   4   9
ATOM      5  N   UNL     1       5.786   4.785  17.492  0.00  0.00    +0.000 N 
ATOM      6  C   UNL     1       5.765   4.409  18.803  0.00  0.00    +0.000 C 
ATOM      7  O   UNL     1       6.413   4.967  19.684  0.00  0.00    +0.000 OA
ATOM      8  N   UNL     1       4.945   3.350  19.110  0.00  0.00    +0.000 N 
ATOM      9  C   UNL     1       4.083   2.661  18.274  0.00  0.00    +0.000 C 
ATOM     10  O   UNL     1       4.024   2.836  17.058  0.00  0.00    +0.000 OA
ATOM     11  H   UNL     1       5.248   4.218  16.841  0.00  0.00    +0.000 HD
ATOM     12  H   UNL     1       4.961   3.113  20.098  0.00  0.00    +0.000 HD
BRANCH   5  14
ATOM     13  C   UNL     1       7.013   5.638  15.541  0.00  0.00    +0.000 C 
ATOM     14  C   UNL     1       6.592   5.869  16.981  0.00  0.00    +0.000 C 
ENDBRANCH   5  14
ENDBRANCH   4   9
ENDBRANCH   3   4
ENDBRANCH   1   3
BRANCH   1  15
ATOM     15  C   UNL     1       0.880   3.950  20.198  0.00  0.00    +0.000 C 
BRANCH  15  16
ATOM     16  C   UNL     1       1.894   5.079  19.972  0.00  0.00    +0.000 C 
BRANCH  16  17
ATOM     17  C   UNL     1       1.982   5.630  18.539  0.00  0.00    +0.000 C 
BRANCH  17  18
ATOM     18  S   UNL     1       2.979   7.142  18.487  0.00  0.00    +0.000 S 
BRANCH  18  19
ATOM     19  C   UNL     1       1.914   8.334  19.201  0.00  0.00    +0.000 A 
ATOM     20  N   UNL     1       1.564   8.334  20.467  0.00  0.00    +0.000 NA
ATOM     21  C   UNL     1       0.724   9.415  20.713  0.00  0.00    +0.000 A 
ATOM     22  C   UNL     1       0.155   9.771  21.955  0.00  0.00    +0.000 A 
ATOM     23  C   UNL     1      -0.691  10.885  22.044  0.00  0.00    +0.000 A 
ATOM     24  C   UNL     1      -0.981  11.646  20.919  0.00  0.00    +0.000 A 
ATOM     25  C   UNL     1      -0.428  11.321  19.677  0.00  0.00    +0.000 A 
ATOM     26  C   UNL     1       0.421  10.204  19.600  0.00  0.00    +0.000 A 
ATOM     27  S   UNL     1       1.243   9.575  18.229  0.00  0.00    +0.000 S 
ENDBRANCH  18  19
ENDBRANCH  17  18
ENDBRANCH  16  17
ENDBRANCH  15  16
ENDBRANCH   1  15
TORSDOF 9
ENDMDL
MODEL 8
REMARK VINA RESULT:      -6.8      2.098      2.535
REMARK  Name = 
REMARK  10 active torsions:
REMARK  status: ('A' for Active; 'I' for Inactive)
REMARK    1  A    between atoms: C_1  and  C_2
REMARK    2  A    between atoms: C_2  and  N_3
REMARK    3  A    between atoms: C_7  and  C_9
REMARK    4  A    between atoms: C_9  and  O_10
REMARK    5  A    between atoms: O_10  and  C_11
REMARK    6  A    between atoms: C_11  and  C_13
REMARK    7  A    between atoms: C_13  and  C_14
REMARK    8  A    between atoms: C_14  and  C_15
REMARK    9  A    between atoms: C_15  and  S_16
REMARK   10  A    between atoms: S_16  and  C_17
REMARK                            x       y       z     vdW  Elec       q    Type
REMARK                         _______ _______ _______ _____ _____    ______ ____
ROOT
ATOM      1  C   UNL     1       2.086   6.090  20.174  0.00  0.00    +0.000 C 
ATOM      2  O   UNL     1       1.352   6.669  20.962  0.00  0.00    +0.000 OA
ENDROOT
BRANCH   1   3
ATOM      3  O   UNL     1       2.863   6.731  19.262  0.00  0.00    +0.000 OA
BRANCH   3   4
ATOM      4  C   UNL     1       2.160   7.217  18.117  0.00  0.00    +0.000 C 
BRANCH   4   9
ATOM      5  N   UNL     1       1.215  11.435  18.539  0.00  0.00    +0.000 N 
ATOM      6  C   UNL     1       0.864  10.509  19.477  0.00  0.00    +0.000 C 
ATOM      7  O   UNL     1       0.210  10.769  20.483  0.00  0.00    +0.000 OA
ATOM      8  N   UNL     1       1.276   9.221  19.231  0.00  0.00    +0.000 N 
ATOM      9  C   UNL     1       1.938   8.729  18.119  0.00  0.00    +0.000 C 
ATOM     10  O   UNL     1       2.375   9.438  17.213  0.00  0.00    +0.000 OA
ATOM     11  H   UNL     1       1.801  11.115  17.772  0.00  0.00    +0.000 HD
ATOM     12  H   UNL     1       0.986   8.570  19.955  0.00  0.00    +0.000 HD
BRANCH   5  14
ATOM     13  C   UNL     1      -0.556  13.108  18.218  0.00  0.00    +0.000 C 
ATOM     14  C   UNL     1       0.878  12.837  18.631  0.00  0.00    +0.000 C 
ENDBRANCH   5  14
ENDBRANCH   4   9
ENDBRANCH   3   4
ENDBRANCH   1   3
BRANCH   1  15
ATOM     15  C   UNL     1       2.228   4.596  20.033  0.00  0.00    +0.000 C 
BRANCH  15  16
ATOM     16  C   UNL     1       1.393   4.023  18.880  0.00  0.00    +0.000 C 
BRANCH  16  17
ATOM     17  C   UNL     1       2.105   3.008  17.970  0.00  0.00    +0.000 C 
BRANCH  17  18
ATOM     18  S   UNL     1       3.642   2.423  18.731  0.00  0.00    +0.000 S 
BRANCH  18  19
ATOM     19  C   UNL     1       4.753   3.741  18.425  0.00  0.00    +0.000 A 
ATOM     20  N   UNL     1       5.695   4.109  19.263  0.00  0.00    +0.000 NA
ATOM     21  C   UNL     1       6.406   5.173  18.717  0.00  0.00    +0.000 A 
ATOM     22  C   UNL     1       7.509   5.834  19.301  0.00  0.00    +0.000 A 
ATOM     23  C   UNL     1       8.115   6.908  18.635  0.00  0.00    +0.000 A 
ATOM     24  C   UNL     1       7.640   7.335  17.401  0.00  0.00    +0.000 A 
ATOM     25  C   UNL     1       6.553   6.697  16.797  0.00  0.00    +0.000 A 
ATOM     26  C   UNL     1       5.956   5.620  17.472  0.00  0.00    +0.000 A 
ATOM     27  S   UNL     1       4.627   4.650  16.979  0.00  0.00    +0.000 S 
ENDBRANCH  18  19
ENDBRANCH  17  18
ENDBRANCH  16  17
ENDBRANCH  15  16
ENDBRANCH   1  15
TORSDOF 9
ENDMDL
MODEL 9
REMARK VINA RESULT:      -6.7      3.204      7.975
REMARK  Name = 
REMARK  10 active torsions:
REMARK  status: ('A' for Active; 'I' for Inactive)
REMARK    1  A    between atoms: C_1  and  C_2
REMARK    2  A    between atoms: C_2  and  N_3
REMARK    3  A    between atoms: C_7  and  C_9
REMARK    4  A    between atoms: C_9  and  O_10
REMARK    5  A    between atoms: O_10  and  C_11
REMARK    6  A    between atoms: C_11  and  C_13
REMARK    7  A    between atoms: C_13  and  C_14
REMARK    8  A    between atoms: C_14  and  C_15
REMARK    9  A    between atoms: C_15  and  S_16
REMARK   10  A    between atoms: S_16  and  C_17
REMARK                            x       y       z     vdW  Elec       q    Type
REMARK                         _______ _______ _______ _____ _____    ______ ____
ROOT
ATOM      1  C   UNL     1       2.458   2.843  20.035  0.00  0.00    +0.000 C 
ATOM      2  O   UNL     1       2.409   2.559  21.223  0.00  0.00    +0.000 OA
ENDROOT
BRANCH   1   3
ATOM      3  O   UNL     1       3.483   2.483  19.218  0.00  0.00    +0.000 OA
BRANCH   3   4
ATOM      4  C   UNL     1       4.783   2.799  19.719  0.00  0.00    +0.000 C 
BRANCH   4   9
ATOM      5  N   UNL     1       6.804   6.130  17.800  0.00  0.00    +0.000 N 
ATOM      6  C   UNL     1       7.010   4.835  17.426  0.00  0.00    +0.000 C 
ATOM      7  O   UNL     1       7.816   4.493  16.565  0.00  0.00    +0.000 OA
ATOM      8  N   UNL     1       6.262   3.892  18.089  0.00  0.00    +0.000 N 
ATOM      9  C   UNL     1       5.378   4.081  19.138  0.00  0.00    +0.000 C 
ATOM     10  O   UNL     1       5.037   5.187  19.556  0.00  0.00    +0.000 OA
ATOM     11  H   UNL     1       6.074   6.301  18.488  0.00  0.00    +0.000 HD
ATOM     12  H   UNL     1       6.457   2.945  17.779  0.00  0.00    +0.000 HD
BRANCH   5  14
ATOM     13  C   UNL     1       8.212   8.093  18.250  0.00  0.00    +0.000 C 
ATOM     14  C   UNL     1       7.491   7.256  17.210  0.00  0.00    +0.000 C 
ENDBRANCH   5  14
ENDBRANCH   4   9
ENDBRANCH   3   4
ENDBRANCH   1   3
BRANCH   1  15
ATOM     15  C   UNL     1       1.445   3.666  19.280  0.00  0.00    +0.000 C 
BRANCH  15  16
ATOM     16  C   UNL     1       1.713   5.174  19.374  0.00  0.00    +0.000 C 
BRANCH  16  17
ATOM     17  C   UNL     1       1.901   5.911  18.038  0.00  0.00    +0.000 C 
BRANCH  17  18
ATOM     18  S   UNL     1       2.868   7.427  18.264  0.00  0.00    +0.000 S 
BRANCH  18  19
ATOM     19  C   UNL     1       1.842   8.390  19.307  0.00  0.00    +0.000 A 
ATOM     20  N   UNL     1       1.684   8.157  20.589  0.00  0.00    +0.000 NA
ATOM     21  C   UNL     1       0.819   9.106  21.126  0.00  0.00    +0.000 A 
ATOM     22  C   UNL     1       0.417   9.208  22.475  0.00  0.00    +0.000 A 
ATOM     23  C   UNL     1      -0.480  10.213  22.865  0.00  0.00    +0.000 A 
ATOM     24  C   UNL     1      -0.982  11.114  21.933  0.00  0.00    +0.000 A 
ATOM     25  C   UNL     1      -0.598  11.040  20.592  0.00  0.00    +0.000 A 
ATOM     26  C   UNL     1       0.303  10.031  20.213  0.00  0.00    +0.000 A 
ATOM     27  S   UNL     1       0.954   9.703  18.658  0.00  0.00    +0.000 S 
ENDBRANCH  18  19
ENDBRANCH  17  18
ENDBRANCH  16  17
ENDBRANCH  15  16
ENDBRANCH   1  15
TORSDOF 9
ENDMDL
