MODEL 1
REMARK VINA RESULT:      -9.0      0.000      0.000
REMARK  Name = 
REMARK  3 active torsions:
REMARK  status: ('A' for Active; 'I' for Inactive)
REMARK    1  A    between atoms: C_8  and  C_9
REMARK    2  A    between atoms: N_11  and  C_12
REMARK    3  A    between atoms: C_15  and  N_16
REMARK                            x       y       z     vdW  Elec       q    Type
REMARK                         _______ _______ _______ _____ _____    ______ ____
ROOT
ATOM      1  O   UNL     1       2.927  12.848  18.179  0.00  0.00    +0.000 OA
ATOM      2  C   UNL     1       2.451  13.400  19.171  0.00  0.00    +0.000 C 
ATOM      3  C   UNL     1       3.273  14.400  19.941  0.00  0.00    +0.000 C 
ATOM      4  C   UNL     1       2.604  15.148  21.082  0.00  0.00    +0.000 C 
ATOM      5  C   UNL     1       1.170  14.785  21.442  0.00  0.00    +0.000 C 
ATOM      6  C   UNL     1       0.501  13.743  20.608  0.00  0.00    +0.000 C 
ATOM      7  C   UNL     1       1.076  13.076  19.599  0.00  0.00    +0.000 C 
ATOM      8  C   UNL     1       0.358  11.984  18.854  0.00  0.00    +0.000 C 
ATOM      9  C   UNL     1      -1.149  12.055  19.055  0.00  0.00    +0.000 A 
ATOM     10  C   UNL     1      -1.633  12.805  20.141  0.00  0.00    +0.000 A 
ATOM     11  C   UNL     1      -2.996  12.896  20.403  0.00  0.00    +0.000 A 
ATOM     12  C   UNL     1      -3.904  12.262  19.560  0.00  0.00    +0.000 A 
ATOM     13  C   UNL     1      -3.463  11.523  18.453  0.00  0.00    +0.000 A 
ATOM     14  C   UNL     1      -4.399  10.907  17.605  0.00  0.00    +0.000 A 
ATOM     15  C   UNL     1      -3.986  10.164  16.500  0.00  0.00    +0.000 A 
ATOM     16  C   UNL     1      -2.633  10.023  16.233  0.00  0.00    +0.000 A 
ATOM     17  C   UNL     1      -1.691  10.631  17.066  0.00  0.00    +0.000 A 
ATOM     18  C   UNL     1      -2.074  11.400  18.189  0.00  0.00    +0.000 A 
ATOM     19  O   UNL     1      -0.808  13.494  21.003  0.00  0.00    +0.000 OA
ENDROOT
BRANCH   8  20
ATOM     20  C   UNL     1       0.761  10.635  19.377  0.00  0.00    +0.000 A 
ATOM     21  C   UNL     1       1.560   9.671  18.797  0.00  0.00    +0.000 A 
ATOM     22  N   UNL     1       1.523   8.601  19.653  0.00  0.00    +0.000 N 
ATOM     23  N   UNL     1       0.758   8.912  20.727  0.00  0.00    +0.000 NA
ATOM     24  N   UNL     1       0.288  10.145  20.565  0.00  0.00    +0.000 NA
BRANCH  22  25
ATOM     25  C   UNL     1       2.098   7.319  19.464  0.00  0.00    +0.000 A 
ATOM     26  C   UNL     1       1.893   6.311  20.420  0.00  0.00    +0.000 A 
ATOM     27  C   UNL     1       2.544   5.083  20.300  0.00  0.00    +0.000 A 
ATOM     28  C   UNL     1       3.400   4.857  19.218  0.00  0.00    +0.000 A 
ATOM     29  C   UNL     1       3.572   5.835  18.229  0.00  0.00    +0.000 A 
ATOM     30  C   UNL     1       2.915   7.066  18.351  0.00  0.00    +0.000 A 
BRANCH  28  31
ATOM     31  N   UNL     1       4.144   3.593  19.145  0.00  0.00    +0.000 N 
ATOM     32  O   UNL     1       5.365   3.629  19.357  0.00  0.00    +0.000 OA
ATOM     33  O   UNL     1       3.509   2.567  18.861  0.00  0.00    +0.000 OA
ENDBRANCH  28  31
ENDBRANCH  22  25
ENDBRANCH   8  20
TORSDOF 3
ENDMDL
MODEL 2
REMARK VINA RESULT:      -8.6      0.675      1.120
REMARK  Name = 
REMARK  3 active torsions:
REMARK  status: ('A' for Active; 'I' for Inactive)
REMARK    1  A    between atoms: C_8  and  C_9
REMARK    2  A    between atoms: N_11  and  C_12
REMARK    3  A    between atoms: C_15  and  N_16
REMARK                            x       y       z     vdW  Elec       q    Type
REMARK                         _______ _______ _______ _____ _____    ______ ____
ROOT
ATOM      1  O   UNL     1       2.581  13.346  18.746  0.00  0.00    +0.000 OA
ATOM      2  C   UNL     1       1.996  13.761  19.746  0.00  0.00    +0.000 C 
ATOM      3  C   UNL     1       2.693  14.715  20.681  0.00  0.00    +0.000 C 
ATOM      4  C   UNL     1       1.895  15.299  21.833  0.00  0.00    +0.000 C 
ATOM      5  C   UNL     1       0.462  14.825  22.034  0.00  0.00    +0.000 C 
ATOM      6  C   UNL     1      -0.076  13.844  21.044  0.00  0.00    +0.000 C 
ATOM      7  C   UNL     1       0.615  13.321  20.023  0.00  0.00    +0.000 C 
ATOM      8  C   UNL     1       0.025  12.280  19.111  0.00  0.00    +0.000 C 
ATOM      9  C   UNL     1      -1.495  12.249  19.193  0.00  0.00    +0.000 A 
ATOM     10  C   UNL     1      -2.107  12.850  20.307  0.00  0.00    +0.000 A 
ATOM     11  C   UNL     1      -3.488  12.841  20.463  0.00  0.00    +0.000 A 
ATOM     12  C   UNL     1      -4.288  12.255  19.486  0.00  0.00    +0.000 A 
ATOM     13  C   UNL     1      -3.719  11.663  18.349  0.00  0.00    +0.000 A 
ATOM     14  C   UNL     1      -4.547  11.093  17.367  0.00  0.00    +0.000 A 
ATOM     15  C   UNL     1      -4.005  10.497  16.230  0.00  0.00    +0.000 A 
ATOM     16  C   UNL     1      -2.629  10.458  16.063  0.00  0.00    +0.000 A 
ATOM     17  C   UNL     1      -1.794  11.021  17.029  0.00  0.00    +0.000 A 
ATOM     18  C   UNL     1      -2.308  11.643  18.190  0.00  0.00    +0.000 A 
ATOM     19  O   UNL     1      -1.394  13.486  21.300  0.00  0.00    +0.000 OA
ENDROOT
BRANCH   8  20
ATOM     20  C   UNL     1       0.469  10.906  19.524  0.00  0.00    +0.000 A 
ATOM     21  C   UNL     1       1.384  10.062  18.929  0.00  0.00    +0.000 A 
ATOM     22  N   UNL     1       1.339   8.901  19.656  0.00  0.00    +0.000 N 
ATOM     23  N   UNL     1       0.455   9.042  20.673  0.00  0.00    +0.000 NA
ATOM     24  N   UNL     1      -0.081  10.256  20.598  0.00  0.00    +0.000 NA
BRANCH  22  25
ATOM     25  C   UNL     1       2.016   7.684  19.389  0.00  0.00    +0.000 A 
ATOM     26  C   UNL     1       2.707   7.517  18.178  0.00  0.00    +0.000 A 
ATOM     27  C   UNL     1       3.281   6.287  17.858  0.00  0.00    +0.000 A 
ATOM     28  C   UNL     1       3.171   5.218  18.753  0.00  0.00    +0.000 A 
ATOM     29  C   UNL     1       2.531   5.387  19.989  0.00  0.00    +0.000 A 
ATOM     30  C   UNL     1       1.957   6.624  20.308  0.00  0.00    +0.000 A 
BRANCH  28  31
ATOM     31  N   UNL     1       3.707   3.906  18.370  0.00  0.00    +0.000 N 
ATOM     32  O   UNL     1       4.013   3.733  17.181  0.00  0.00    +0.000 OA
ATOM     33  O   UNL     1       3.807   3.045  19.256  0.00  0.00    +0.000 OA
ENDBRANCH  28  31
ENDBRANCH  22  25
ENDBRANCH   8  20
TORSDOF 3
ENDMDL
MODEL 3
REMARK VINA RESULT:      -8.3      1.228      1.627
REMARK  Name = 
REMARK  3 active torsions:
REMARK  status: ('A' for Active; 'I' for Inactive)
REMARK    1  A    between atoms: C_8  and  C_9
REMARK    2  A    between atoms: N_11  and  C_12
REMARK    3  A    between atoms: C_15  and  N_16
REMARK                            x       y       z     vdW  Elec       q    Type
REMARK                         _______ _______ _______ _____ _____    ______ ____
ROOT
ATOM      1  O   UNL     1       1.719  14.072  19.769  0.00  0.00    +0.000 OA
ATOM      2  C   UNL     1       0.961  14.292  20.714  0.00  0.00    +0.000 C 
ATOM      3  C   UNL     1       1.398  15.205  21.830  0.00  0.00    +0.000 C 
ATOM      4  C   UNL     1       0.387  15.547  22.911  0.00  0.00    +0.000 C 
ATOM      5  C   UNL     1      -0.982  14.884  22.857  0.00  0.00    +0.000 C 
ATOM      6  C   UNL     1      -1.252  13.971  21.706  0.00  0.00    +0.000 C 
ATOM      7  C   UNL     1      -0.372  13.660  20.745  0.00  0.00    +0.000 C 
ATOM      8  C   UNL     1      -0.695  12.671  19.658  0.00  0.00    +0.000 C 
ATOM      9  C   UNL     1      -2.195  12.449  19.520  0.00  0.00    +0.000 A 
ATOM     10  C   UNL     1      -3.019  12.836  20.591  0.00  0.00    +0.000 A 
ATOM     11  C   UNL     1      -4.395  12.642  20.548  0.00  0.00    +0.000 A 
ATOM     12  C   UNL     1      -4.978  12.085  19.414  0.00  0.00    +0.000 A 
ATOM     13  C   UNL     1      -4.194  11.705  18.314  0.00  0.00    +0.000 A 
ATOM     14  C   UNL     1      -4.805  11.162  17.172  0.00  0.00    +0.000 A 
ATOM     15  C   UNL     1      -4.047  10.774  16.068  0.00  0.00    +0.000 A 
ATOM     16  C   UNL     1      -2.669  10.920  16.095  0.00  0.00    +0.000 A 
ATOM     17  C   UNL     1      -2.047  11.460  17.222  0.00  0.00    +0.000 A 
ATOM     18  C   UNL     1      -2.785  11.874  18.356  0.00  0.00    +0.000 A 
ATOM     19  O   UNL     1      -2.531  13.429  21.735  0.00  0.00    +0.000 OA
ENDROOT
BRANCH   8  20
ATOM     20  C   UNL     1      -0.127  11.321  19.988  0.00  0.00    +0.000 A 
ATOM     21  C   UNL     1       0.783  10.556  19.287  0.00  0.00    +0.000 A 
ATOM     22  N   UNL     1       0.882   9.377  19.980  0.00  0.00    +0.000 N 
ATOM     23  N   UNL     1       0.088   9.434  21.076  0.00  0.00    +0.000 NA
ATOM     24  N   UNL     1      -0.531  10.610  21.087  0.00  0.00    +0.000 NA
BRANCH  22  25
ATOM     25  C   UNL     1       1.609   8.216  19.616  0.00  0.00    +0.000 A 
ATOM     26  C   UNL     1       1.629   7.104  20.474  0.00  0.00    +0.000 A 
ATOM     27  C   UNL     1       2.430   6.001  20.180  0.00  0.00    +0.000 A 
ATOM     28  C   UNL     1       3.213   6.004  19.020  0.00  0.00    +0.000 A 
ATOM     29  C   UNL     1       3.161   7.085  18.129  0.00  0.00    +0.000 A 
ATOM     30  C   UNL     1       2.354   8.190  18.427  0.00  0.00    +0.000 A 
BRANCH  28  31
ATOM     31  N   UNL     1       4.114   4.875  18.762  0.00  0.00    +0.000 N 
ATOM     32  O   UNL     1       3.629   3.856  18.248  0.00  0.00    +0.000 OA
ATOM     33  O   UNL     1       5.303   5.001  19.089  0.00  0.00    +0.000 OA
ENDBRANCH  28  31
ENDBRANCH  22  25
ENDBRANCH   8  20
TORSDOF 3
ENDMDL
MODEL 4
REMARK VINA RESULT:      -8.1      3.059      9.030
REMARK  Name = 
REMARK  3 active torsions:
REMARK  status: ('A' for Active; 'I' for Inactive)
REMARK    1  A    between atoms: C_8  and  C_9
REMARK    2  A    between atoms: N_11  and  C_12
REMARK    3  A    between atoms: C_15  and  N_16
REMARK                            x       y       z     vdW  Elec       q    Type
REMARK                         _______ _______ _______ _____ _____    ______ ____
ROOT
ATOM      1  O   UNL     1       6.994   6.471  18.204  0.00  0.00    +0.000 OA
ATOM      2  C   UNL     1       6.666   5.875  17.179  0.00  0.00    +0.000 C 
ATOM      3  C   UNL     1       7.563   5.912  15.969  0.00  0.00    +0.000 C 
ATOM      4  C   UNL     1       7.180   5.063  14.769  0.00  0.00    +0.000 C 
ATOM      5  C   UNL     1       5.869   4.289  14.819  0.00  0.00    +0.000 C 
ATOM      6  C   UNL     1       5.069   4.386  16.076  0.00  0.00    +0.000 C 
ATOM      7  C   UNL     1       5.394   5.129  17.142  0.00  0.00    +0.000 C 
ATOM      8  C   UNL     1       4.496   5.233  18.345  0.00  0.00    +0.000 C 
ATOM      9  C   UNL     1       3.481   4.098  18.397  0.00  0.00    +0.000 A 
ATOM     10  C   UNL     1       3.241   3.376  17.214  0.00  0.00    +0.000 A 
ATOM     11  C   UNL     1       2.311   2.343  17.177  0.00  0.00    +0.000 A 
ATOM     12  C   UNL     1       1.626   1.990  18.336  0.00  0.00    +0.000 A 
ATOM     13  C   UNL     1       1.853   2.670  19.542  0.00  0.00    +0.000 A 
ATOM     14  C   UNL     1       1.164   2.285  20.703  0.00  0.00    +0.000 A 
ATOM     15  C   UNL     1       1.369   2.947  21.913  0.00  0.00    +0.000 A 
ATOM     16  C   UNL     1       2.262   4.006  21.974  0.00  0.00    +0.000 A 
ATOM     17  C   UNL     1       2.956   4.399  20.828  0.00  0.00    +0.000 A 
ATOM     18  C   UNL     1       2.780   3.744  19.587  0.00  0.00    +0.000 A 
ATOM     19  O   UNL     1       3.901   3.633  16.032  0.00  0.00    +0.000 OA
ENDROOT
BRANCH   8  20
ATOM     20  C   UNL     1       3.676   6.489  18.284  0.00  0.00    +0.000 A 
ATOM     21  C   UNL     1       2.834   7.035  19.231  0.00  0.00    +0.000 A 
ATOM     22  N   UNL     1       2.268   8.130  18.631  0.00  0.00    +0.000 N 
ATOM     23  N   UNL     1       2.768   8.263  17.379  0.00  0.00    +0.000 NA
ATOM     24  N   UNL     1       3.622   7.269  17.159  0.00  0.00    +0.000 NA
BRANCH  22  25
ATOM     25  C   UNL     1       1.253   8.974  19.147  0.00  0.00    +0.000 A 
ATOM     26  C   UNL     1       0.561   9.846  18.290  0.00  0.00    +0.000 A 
ATOM     27  C   UNL     1      -0.358  10.759  18.805  0.00  0.00    +0.000 A 
ATOM     28  C   UNL     1      -0.595  10.800  20.182  0.00  0.00    +0.000 A 
ATOM     29  C   UNL     1       0.048   9.899  21.043  0.00  0.00    +0.000 A 
ATOM     30  C   UNL     1       0.970   8.983  20.523  0.00  0.00    +0.000 A 
BRANCH  28  31
ATOM     31  N   UNL     1      -1.504  11.819  20.723  0.00  0.00    +0.000 N 
ATOM     32  O   UNL     1      -1.578  11.929  21.956  0.00  0.00    +0.000 OA
ATOM     33  O   UNL     1      -2.153  12.498  19.914  0.00  0.00    +0.000 OA
ENDBRANCH  28  31
ENDBRANCH  22  25
ENDBRANCH   8  20
TORSDOF 3
ENDMDL
MODEL 5
REMARK VINA RESULT:      -8.1      1.624      2.361
REMARK  Name = 
REMARK  3 active torsions:
REMARK  status: ('A' for Active; 'I' for Inactive)
REMARK    1  A    between atoms: C_8  and  C_9
REMARK    2  A    between atoms: N_11  and  C_12
REMARK    3  A    between atoms: C_15  and  N_16
REMARK                            x       y       z     vdW  Elec       q    Type
REMARK                         _______ _______ _______ _____ _____    ______ ____
ROOT
ATOM      1  O   UNL     1       1.082  14.441  20.567  0.00  0.00    +0.000 OA
ATOM      2  C   UNL     1       0.218  14.532  21.439  0.00  0.00    +0.000 C 
ATOM      3  C   UNL     1       0.460  15.401  22.646  0.00  0.00    +0.000 C 
ATOM      4  C   UNL     1      -0.679  15.584  23.635  0.00  0.00    +0.000 C 
ATOM      5  C   UNL     1      -1.971  14.812  23.401  0.00  0.00    +0.000 C 
ATOM      6  C   UNL     1      -2.043  13.959  22.178  0.00  0.00    +0.000 C 
ATOM      7  C   UNL     1      -1.049  13.790  21.296  0.00  0.00    +0.000 C 
ATOM      8  C   UNL     1      -1.173  12.853  20.126  0.00  0.00    +0.000 C 
ATOM      9  C   UNL     1      -2.625  12.514  19.820  0.00  0.00    +0.000 A 
ATOM     10  C   UNL     1      -3.582  12.757  20.821  0.00  0.00    +0.000 A 
ATOM     11  C   UNL     1      -4.925  12.452  20.625  0.00  0.00    +0.000 A 
ATOM     12  C   UNL     1      -5.341  11.925  19.405  0.00  0.00    +0.000 A 
ATOM     13  C   UNL     1      -4.421  11.688  18.373  0.00  0.00    +0.000 A 
ATOM     14  C   UNL     1      -4.866  11.173  17.144  0.00  0.00    +0.000 A 
ATOM     15  C   UNL     1      -3.972  10.926  16.103  0.00  0.00    +0.000 A 
ATOM     16  C   UNL     1      -2.622  11.186  16.281  0.00  0.00    +0.000 A 
ATOM     17  C   UNL     1      -2.165  11.699  17.496  0.00  0.00    +0.000 A 
ATOM     18  C   UNL     1      -3.044  11.972  18.569  0.00  0.00    +0.000 A 
ATOM     19  O   UNL     1      -3.265  13.311  22.042  0.00  0.00    +0.000 OA
ENDROOT
BRANCH   8  20
ATOM     20  C   UNL     1      -0.519  11.536  20.432  0.00  0.00    +0.000 A 
ATOM     21  C   UNL     1       0.389  10.812  19.688  0.00  0.00    +0.000 A 
ATOM     22  N   UNL     1       0.585   9.646  20.382  0.00  0.00    +0.000 N 
ATOM     23  N   UNL     1      -0.151   9.672  21.519  0.00  0.00    +0.000 NA
ATOM     24  N   UNL     1      -0.827  10.815  21.557  0.00  0.00    +0.000 NA
BRANCH  22  25
ATOM     25  C   UNL     1       1.350   8.520  19.987  0.00  0.00    +0.000 A 
ATOM     26  C   UNL     1       1.990   8.510  18.737  0.00  0.00    +0.000 A 
ATOM     27  C   UNL     1       2.651   7.366  18.292  0.00  0.00    +0.000 A 
ATOM     28  C   UNL     1       2.680   6.225  19.100  0.00  0.00    +0.000 A 
ATOM     29  C   UNL     1       2.090   6.238  20.373  0.00  0.00    +0.000 A 
ATOM     30  C   UNL     1       1.429   7.390  20.817  0.00  0.00    +0.000 A 
BRANCH  28  31
ATOM     31  N   UNL     1       3.307   5.000  18.588  0.00  0.00    +0.000 N 
ATOM     32  O   UNL     1       3.739   5.016  17.426  0.00  0.00    +0.000 OA
ATOM     33  O   UNL     1       3.352   4.018  19.343  0.00  0.00    +0.000 OA
ENDBRANCH  28  31
ENDBRANCH  22  25
ENDBRANCH   8  20
TORSDOF 3
ENDMDL
MODEL 6
REMARK VINA RESULT:      -8.0      3.018      4.353
REMARK  Name = 
REMARK  3 active torsions:
REMARK  status: ('A' for Active; 'I' for Inactive)
REMARK    1  A    between atoms: C_8  and  C_9
REMARK    2  A    between atoms: N_11  and  C_12
REMARK    3  A    between atoms: C_15  and  N_16
REMARK                            x       y       z     vdW  Elec       q    Type
REMARK                         _______ _______ _______ _____ _____    ______ ____
ROOT
ATOM      1  O   UNL     1      -0.316  15.495  21.966  0.00  0.00    +0.000 OA
ATOM      2  C   UNL     1      -0.827  15.452  23.085  0.00  0.00    +0.000 C 
ATOM      3  C   UNL     1      -0.238  16.261  24.211  0.00  0.00    +0.000 C 
ATOM      4  C   UNL     1      -0.972  16.276  25.541  0.00  0.00    +0.000 C 
ATOM      5  C   UNL     1      -2.213  15.408  25.692  0.00  0.00    +0.000 C 
ATOM      6  C   UNL     1      -2.651  14.631  24.494  0.00  0.00    +0.000 C 
ATOM      7  C   UNL     1      -2.016  14.609  23.315  0.00  0.00    +0.000 C 
ATOM      8  C   UNL     1      -2.479  13.740  22.177  0.00  0.00    +0.000 C 
ATOM      9  C   UNL     1      -3.923  13.292  22.355  0.00  0.00    +0.000 A 
ATOM     10  C   UNL     1      -4.486  13.383  23.640  0.00  0.00    +0.000 A 
ATOM     11  C   UNL     1      -5.791  12.970  23.885  0.00  0.00    +0.000 A 
ATOM     12  C   UNL     1      -6.570  12.487  22.838  0.00  0.00    +0.000 A 
ATOM     13  C   UNL     1      -6.053  12.400  21.537  0.00  0.00    +0.000 A 
ATOM     14  C   UNL     1      -6.863  11.926  20.492  0.00  0.00    +0.000 A 
ATOM     15  C   UNL     1      -6.371  11.828  19.191  0.00  0.00    +0.000 A 
ATOM     16  C   UNL     1      -5.063  12.197  18.921  0.00  0.00    +0.000 A 
ATOM     17  C   UNL     1      -4.246  12.671  19.949  0.00  0.00    +0.000 A 
ATOM     18  C   UNL     1      -4.714  12.794  21.278  0.00  0.00    +0.000 A 
ATOM     19  O   UNL     1      -3.800  13.885  24.725  0.00  0.00    +0.000 OA
ENDROOT
BRANCH   8  20
ATOM     20  C   UNL     1      -1.678  12.471  22.122  0.00  0.00    +0.000 A 
ATOM     21  C   UNL     1      -0.903  11.965  21.099  0.00  0.00    +0.000 A 
ATOM     22  N   UNL     1      -0.473  10.739  21.535  0.00  0.00    +0.000 N 
ATOM     23  N   UNL     1      -0.942  10.520  22.787  0.00  0.00    +0.000 NA
ATOM     24  N   UNL     1      -1.677  11.566  23.150  0.00  0.00    +0.000 NA
BRANCH  22  25
ATOM     25  C   UNL     1       0.269   9.772  20.812  0.00  0.00    +0.000 A 
ATOM     26  C   UNL     1       0.655   8.574  21.435  0.00  0.00    +0.000 A 
ATOM     27  C   UNL     1       1.479   7.667  20.769  0.00  0.00    +0.000 A 
ATOM     28  C   UNL     1       1.916   7.952  19.472  0.00  0.00    +0.000 A 
ATOM     29  C   UNL     1       1.494   9.119  18.818  0.00  0.00    +0.000 A 
ATOM     30  C   UNL     1       0.665  10.027  19.489  0.00  0.00    +0.000 A 
BRANCH  28  31
ATOM     31  N   UNL     1       2.849   7.030  18.811  0.00  0.00    +0.000 N 
ATOM     32  O   UNL     1       3.003   5.908  19.315  0.00  0.00    +0.000 OA
ATOM     33  O   UNL     1       3.438   7.435  17.799  0.00  0.00    +0.000 OA
ENDBRANCH  28  31
ENDBRANCH  22  25
ENDBRANCH   8  20
TORSDOF 3
ENDMDL
MODEL 7
REMARK VINA RESULT:      -7.9      4.198      7.183
REMARK  Name = 
REMARK  3 active torsions:
REMARK  status: ('A' for Active; 'I' for Inactive)
REMARK    1  A    between atoms: C_8  and  C_9
REMARK    2  A    between atoms: N_11  and  C_12
REMARK    3  A    between atoms: C_15  and  N_16
REMARK                            x       y       z     vdW  Elec       q    Type
REMARK                         _______ _______ _______ _____ _____    ______ ____
ROOT
ATOM      1  O   UNL     1      -2.267  13.998  19.842  0.00  0.00    +0.000 OA
ATOM      2  C   UNL     1      -2.395  13.552  20.982  0.00  0.00    +0.000 C 
ATOM      3  C   UNL     1      -3.435  14.134  21.903  0.00  0.00    +0.000 C 
ATOM      4  C   UNL     1      -3.643  13.472  23.255  0.00  0.00    +0.000 C 
ATOM      5  C   UNL     1      -2.732  12.314  23.641  0.00  0.00    +0.000 C 
ATOM      6  C   UNL     1      -1.721  11.877  22.633  0.00  0.00    +0.000 C 
ATOM      7  C   UNL     1      -1.527  12.449  21.437  0.00  0.00    +0.000 C 
ATOM      8  C   UNL     1      -0.435  11.998  20.506  0.00  0.00    +0.000 C 
ATOM      9  C   UNL     1       0.072  10.606  20.857  0.00  0.00    +0.000 A 
ATOM     10  C   UNL     1      -0.214  10.105  22.139  0.00  0.00    +0.000 A 
ATOM     11  C   UNL     1       0.236   8.853  22.541  0.00  0.00    +0.000 A 
ATOM     12  C   UNL     1       0.957   8.061  21.651  0.00  0.00    +0.000 A 
ATOM     13  C   UNL     1       1.244   8.514  20.355  0.00  0.00    +0.000 A 
ATOM     14  C   UNL     1       1.957   7.690  19.468  0.00  0.00    +0.000 A 
ATOM     15  C   UNL     1       2.257   8.119  18.176  0.00  0.00    +0.000 A 
ATOM     16  C   UNL     1       1.854   9.378  17.757  0.00  0.00    +0.000 A 
ATOM     17  C   UNL     1       1.144  10.207  18.628  0.00  0.00    +0.000 A 
ATOM     18  C   UNL     1       0.812   9.801  19.941  0.00  0.00    +0.000 A 
ATOM     19  O   UNL     1      -0.952  10.805  23.069  0.00  0.00    +0.000 OA
ENDROOT
BRANCH   8  20
ATOM     20  C   UNL     1       0.764  12.894  20.625  0.00  0.00    +0.000 A 
ATOM     21  C   UNL     1       1.706  13.232  19.676  0.00  0.00    +0.000 A 
ATOM     22  N   UNL     1       2.632  13.999  20.334  0.00  0.00    +0.000 N 
ATOM     23  N   UNL     1       2.253  14.149  21.626  0.00  0.00    +0.000 NA
ATOM     24  N   UNL     1       1.120  13.478  21.812  0.00  0.00    +0.000 NA
BRANCH  22  25
ATOM     25  C   UNL     1       3.853  14.510  19.827  0.00  0.00    +0.000 A 
ATOM     26  C   UNL     1       4.828  15.002  20.710  0.00  0.00    +0.000 A 
ATOM     27  C   UNL     1       5.984  15.608  20.218  0.00  0.00    +0.000 A 
ATOM     28  C   UNL     1       6.171  15.720  18.836  0.00  0.00    +0.000 A 
ATOM     29  C   UNL     1       5.231  15.186  17.944  0.00  0.00    +0.000 A 
ATOM     30  C   UNL     1       4.073  14.576  18.442  0.00  0.00    +0.000 A 
BRANCH  28  31
ATOM     31  N   UNL     1       7.351  16.433  18.330  0.00  0.00    +0.000 N 
ATOM     32  O   UNL     1       7.367  17.668  18.435  0.00  0.00    +0.000 OA
ATOM     33  O   UNL     1       8.252  15.758  17.812  0.00  0.00    +0.000 OA
ENDBRANCH  28  31
ENDBRANCH  22  25
ENDBRANCH   8  20
TORSDOF 3
ENDMDL
MODEL 8
REMARK VINA RESULT:      -7.9      4.259      7.335
REMARK  Name = 
REMARK  3 active torsions:
REMARK  status: ('A' for Active; 'I' for Inactive)
REMARK    1  A    between atoms: C_8  and  C_9
REMARK    2  A    between atoms: N_11  and  C_12
REMARK    3  A    between atoms: C_15  and  N_16
REMARK                            x       y       z     vdW  Elec       q    Type
REMARK                         _______ _______ _______ _____ _____    ______ ____
ROOT
ATOM      1  O   UNL     1      -2.515  14.070  19.973  0.00  0.00    +0.000 OA
ATOM      2  C   UNL     1      -2.652  13.574  21.092  0.00  0.00    +0.000 C 
ATOM      3  C   UNL     1      -3.737  14.077  22.007  0.00  0.00    +0.000 C 
ATOM      4  C   UNL     1      -3.950  13.355  23.327  0.00  0.00    +0.000 C 
ATOM      5  C   UNL     1      -3.003  12.221  23.692  0.00  0.00    +0.000 C 
ATOM      6  C   UNL     1      -1.950  11.865  22.694  0.00  0.00    +0.000 C 
ATOM      7  C   UNL     1      -1.751  12.490  21.527  0.00  0.00    +0.000 C 
ATOM      8  C   UNL     1      -0.619  12.120  20.608  0.00  0.00    +0.000 C 
ATOM      9  C   UNL     1      -0.063  10.737  20.918  0.00  0.00    +0.000 A 
ATOM     10  C   UNL     1      -0.360  10.176  22.173  0.00  0.00    +0.000 A 
ATOM     11  C   UNL     1       0.132   8.927  22.538  0.00  0.00    +0.000 A 
ATOM     12  C   UNL     1       0.906   8.201  21.638  0.00  0.00    +0.000 A 
ATOM     13  C   UNL     1       1.206   8.715  20.367  0.00  0.00    +0.000 A 
ATOM     14  C   UNL     1       1.973   7.957  19.468  0.00  0.00    +0.000 A 
ATOM     15  C   UNL     1       2.287   8.447  18.202  0.00  0.00    +0.000 A 
ATOM     16  C   UNL     1       1.843   9.704  17.822  0.00  0.00    +0.000 A 
ATOM     17  C   UNL     1       1.078  10.469  18.704  0.00  0.00    +0.000 A 
ATOM     18  C   UNL     1       0.731   9.999  19.992  0.00  0.00    +0.000 A 
ATOM     19  O   UNL     1      -1.148  10.808  23.109  0.00  0.00    +0.000 OA
ENDROOT
BRANCH   8  20
ATOM     20  C   UNL     1       0.539  13.059  20.792  0.00  0.00    +0.000 A 
ATOM     21  C   UNL     1       1.399  13.587  19.852  0.00  0.00    +0.000 A 
ATOM     22  N   UNL     1       2.326  14.303  20.565  0.00  0.00    +0.000 N 
ATOM     23  N   UNL     1       2.024  14.239  21.884  0.00  0.00    +0.000 NA
ATOM     24  N   UNL     1       0.941  13.482  22.031  0.00  0.00    +0.000 NA
BRANCH  22  25
ATOM     25  C   UNL     1       3.485  14.954  20.072  0.00  0.00    +0.000 A 
ATOM     26  C   UNL     1       3.613  15.213  18.697  0.00  0.00    +0.000 A 
ATOM     27  C   UNL     1       4.795  15.750  18.188  0.00  0.00    +0.000 A 
ATOM     28  C   UNL     1       5.854  16.037  19.055  0.00  0.00    +0.000 A 
ATOM     29  C   UNL     1       5.720  15.832  20.436  0.00  0.00    +0.000 A 
ATOM     30  C   UNL     1       4.532  15.294  20.944  0.00  0.00    +0.000 A 
BRANCH  28  31
ATOM     31  N   UNL     1       7.123  16.525  18.499  0.00  0.00    +0.000 N 
ATOM     32  O   UNL     1       7.858  15.702  17.932  0.00  0.00    +0.000 OA
ATOM     33  O   UNL     1       7.390  17.726  18.643  0.00  0.00    +0.000 OA
ENDBRANCH  28  31
ENDBRANCH  22  25
ENDBRANCH   8  20
TORSDOF 3
ENDMDL
MODEL 9
REMARK VINA RESULT:      -7.8      3.089      4.552
REMARK  Name = 
REMARK  3 active torsions:
REMARK  status: ('A' for Active; 'I' for Inactive)
REMARK    1  A    between atoms: C_8  and  C_9
REMARK    2  A    between atoms: N_11  and  C_12
REMARK    3  A    between atoms: C_15  and  N_16
REMARK                            x       y       z     vdW  Elec       q    Type
REMARK                         _______ _______ _______ _____ _____    ______ ____
ROOT
ATOM      1  O   UNL     1      -0.843  15.691  21.824  0.00  0.00    +0.000 OA
ATOM      2  C   UNL     1      -1.443  15.668  22.899  0.00  0.00    +0.000 C 
ATOM      3  C   UNL     1      -1.005  16.571  24.022  0.00  0.00    +0.000 C 
ATOM      4  C   UNL     1      -1.848  16.601  25.285  0.00  0.00    +0.000 C 
ATOM      5  C   UNL     1      -3.038  15.656  25.383  0.00  0.00    +0.000 C 
ATOM      6  C   UNL     1      -3.321  14.792  24.199  0.00  0.00    +0.000 C 
ATOM      7  C   UNL     1      -2.588  14.756  23.078  0.00  0.00    +0.000 C 
ATOM      8  C   UNL     1      -2.895  13.802  21.956  0.00  0.00    +0.000 C 
ATOM      9  C   UNL     1      -4.316  13.263  22.041  0.00  0.00    +0.000 A 
ATOM     10  C   UNL     1      -4.991  13.378  23.269  0.00  0.00    +0.000 A 
ATOM     11  C   UNL     1      -6.283  12.888  23.431  0.00  0.00    +0.000 A 
ATOM     12  C   UNL     1      -6.937  12.299  22.352  0.00  0.00    +0.000 A 
ATOM     13  C   UNL     1      -6.307  12.185  21.104  0.00  0.00    +0.000 A 
ATOM     14  C   UNL     1      -6.993  11.603  20.025  0.00  0.00    +0.000 A 
ATOM     15  C   UNL     1      -6.388  11.476  18.775  0.00  0.00    +0.000 A 
ATOM     16  C   UNL     1      -5.088  11.921  18.592  0.00  0.00    +0.000 A 
ATOM     17  C   UNL     1      -4.394  12.502  19.655  0.00  0.00    +0.000 A 
ATOM     18  C   UNL     1      -4.980  12.658  20.933  0.00  0.00    +0.000 A 
ATOM     19  O   UNL     1      -4.434  13.980  24.377  0.00  0.00    +0.000 OA
ENDROOT
BRANCH   8  20
ATOM     20  C   UNL     1      -2.011  12.591  22.036  0.00  0.00    +0.000 A 
ATOM     21  C   UNL     1      -1.102  12.105  21.119  0.00  0.00    +0.000 A 
ATOM     22  N   UNL     1      -0.640  10.928  21.649  0.00  0.00    +0.000 N 
ATOM     23  N   UNL     1      -1.221  10.721  22.854  0.00  0.00    +0.000 NA
ATOM     24  N   UNL     1      -2.058  11.724  23.096  0.00  0.00    +0.000 NA
BRANCH  22  25
ATOM     25  C   UNL     1       0.236   9.990  21.045  0.00  0.00    +0.000 A 
ATOM     26  C   UNL     1       0.684  10.194  19.730  0.00  0.00    +0.000 A 
ATOM     27  C   UNL     1       1.454   9.224  19.089  0.00  0.00    +0.000 A 
ATOM     28  C   UNL     1       1.784   8.046  19.765  0.00  0.00    +0.000 A 
ATOM     29  C   UNL     1       1.389   7.853  21.096  0.00  0.00    +0.000 A 
ATOM     30  C   UNL     1       0.617   8.830  21.738  0.00  0.00    +0.000 A 
BRANCH  28  31
ATOM     31  N   UNL     1       2.525   6.996  19.054  0.00  0.00    +0.000 N 
ATOM     32  O   UNL     1       2.878   7.229  17.888  0.00  0.00    +0.000 OA
ATOM     33  O   UNL     1       2.739   5.934  19.656  0.00  0.00    +0.000 OA
ENDBRANCH  28  31
ENDBRANCH  22  25
ENDBRANCH   8  20
TORSDOF 3
ENDMDL
