MODEL 1
REMARK VINA RESULT:      -8.1      0.000      0.000
REMARK  Name = 
REMARK  8 active torsions:
REMARK  status: ('A' for Active; 'I' for Inactive)
REMARK    1  A    between atoms: C_1  and  C_2
REMARK    2  A    between atoms: C_2  and  C_3
REMARK    3  A    between atoms: C_3  and  C_4
REMARK    4  A    between atoms: C_4  and  C_5
REMARK    5  A    between atoms: C_5  and  N_6
REMARK    6  A    between atoms: C_8  and  C_9
REMARK    7  A    between atoms: C_9  and  C_11
REMARK    8  A    between atoms: C_11  and  C_12
REMARK                            x       y       z     vdW  Elec       q    Type
REMARK                         _______ _______ _______ _____ _____    ______ ____
ROOT
ATOM      1  N   UNL     1       5.958   4.400  15.607  0.00  0.00    +0.000 N 
ATOM      2  C   UNL     1       4.865   3.594  15.791  0.00  0.00    +0.000 A 
ATOM      3  C   UNL     1       4.543   3.574  17.139  0.00  0.00    +0.000 A 
ATOM      4  C   UNL     1       5.518   4.390  17.802  0.00  0.00    +0.000 A 
ATOM      5  C   UNL     1       5.745   4.774  19.142  0.00  0.00    +0.000 A 
ATOM      6  C   UNL     1       6.801   5.633  19.470  0.00  0.00    +0.000 A 
ATOM      7  C   UNL     1       7.622   6.135  18.477  0.00  0.00    +0.000 A 
ATOM      8  C   UNL     1       7.416   5.798  17.141  0.00  0.00    +0.000 A 
ATOM      9  C   UNL     1       6.371   4.916  16.821  0.00  0.00    +0.000 A 
ENDROOT
BRANCH   3  10
ATOM     10  C   UNL     1       3.390   2.851  17.689  0.00  0.00    +0.000 C 
ATOM     11  O   UNL     1       3.513   1.692  18.091  0.00  0.00    +0.000 OA
BRANCH  10  12
ATOM     12  C   UNL     1       2.039   3.546  17.761  0.00  0.00    +0.000 C 
BRANCH  12  13
ATOM     13  C   UNL     1       2.014   4.850  18.526  0.00  0.00    +0.000 A 
ATOM     14  C   UNL     1       2.365   6.080  17.952  0.00  0.00    +0.000 A 
ATOM     15  C   UNL     1       2.434   7.239  18.731  0.00  0.00    +0.000 A 
ATOM     16  C   UNL     1       2.163   7.186  20.097  0.00  0.00    +0.000 A 
ATOM     17  C   UNL     1       1.799   5.976  20.681  0.00  0.00    +0.000 A 
ATOM     18  C   UNL     1       1.726   4.826  19.898  0.00  0.00    +0.000 A 
ATOM     19  F   UNL     1       1.387   3.671  20.486  0.00  0.00    +0.000 F 
ENDBRANCH  12  13
ENDBRANCH  10  12
ENDBRANCH   3  10
BRANCH   1  20
ATOM     20  C   UNL     1       6.567   4.677  14.314  0.00  0.00    +0.000 C 
BRANCH  20  21
ATOM     21  C   UNL     1       6.265   3.633  13.234  0.00  0.00    +0.000 C 
BRANCH  21  22
ATOM     22  C   UNL     1       5.045   4.000  12.392  0.00  0.00    +0.000 C 
BRANCH  22  24
ATOM     23  C   UNL     1       3.466   3.256  10.593  0.00  0.00    +0.000 C 
ATOM     24  C   UNL     1       4.677   2.876  11.428  0.00  0.00    +0.000 C 
ENDBRANCH  22  24
ENDBRANCH  21  22
ENDBRANCH  20  21
ENDBRANCH   1  20
TORSDOF 7
ENDMDL
MODEL 2
REMARK VINA RESULT:      -7.7      2.648      5.348
REMARK  Name = 
REMARK  8 active torsions:
REMARK  status: ('A' for Active; 'I' for Inactive)
REMARK    1  A    between atoms: C_1  and  C_2
REMARK    2  A    between atoms: C_2  and  C_3
REMARK    3  A    between atoms: C_3  and  C_4
REMARK    4  A    between atoms: C_4  and  C_5
REMARK    5  A    between atoms: C_5  and  N_6
REMARK    6  A    between atoms: C_8  and  C_9
REMARK    7  A    between atoms: C_9  and  C_11
REMARK    8  A    between atoms: C_11  and  C_12
REMARK                            x       y       z     vdW  Elec       q    Type
REMARK                         _______ _______ _______ _____ _____    ______ ____
ROOT
ATOM      1  N   UNL     1       6.531   6.404  17.544  0.00  0.00    +0.000 N 
ATOM      2  C   UNL     1       5.297   6.497  18.132  0.00  0.00    +0.000 A 
ATOM      3  C   UNL     1       4.380   5.793  17.367  0.00  0.00    +0.000 A 
ATOM      4  C   UNL     1       5.103   5.276  16.242  0.00  0.00    +0.000 A 
ATOM      5  C   UNL     1       4.759   4.489  15.120  0.00  0.00    +0.000 A 
ATOM      6  C   UNL     1       5.733   4.118  14.184  0.00  0.00    +0.000 A 
ATOM      7  C   UNL     1       7.050   4.499  14.362  0.00  0.00    +0.000 A 
ATOM      8  C   UNL     1       7.431   5.255  15.469  0.00  0.00    +0.000 A 
ATOM      9  C   UNL     1       6.446   5.647  16.391  0.00  0.00    +0.000 A 
ENDROOT
BRANCH   3  10
ATOM     10  C   UNL     1       2.967   5.635  17.733  0.00  0.00    +0.000 C 
ATOM     11  O   UNL     1       2.285   6.618  18.031  0.00  0.00    +0.000 OA
BRANCH  10  12
ATOM     12  C   UNL     1       2.348   4.246  17.738  0.00  0.00    +0.000 C 
BRANCH  12  13
ATOM     13  C   UNL     1       2.248   3.580  19.092  0.00  0.00    +0.000 A 
ATOM     14  C   UNL     1       1.081   3.604  19.871  0.00  0.00    +0.000 A 
ATOM     15  C   UNL     1       1.075   3.071  21.164  0.00  0.00    +0.000 A 
ATOM     16  C   UNL     1       2.234   2.515  21.702  0.00  0.00    +0.000 A 
ATOM     17  C   UNL     1       3.396   2.470  20.938  0.00  0.00    +0.000 A 
ATOM     18  C   UNL     1       3.394   2.997  19.648  0.00  0.00    +0.000 A 
ATOM     19  F   UNL     1       4.530   2.955  18.937  0.00  0.00    +0.000 F 
ENDBRANCH  12  13
ENDBRANCH  10  12
ENDBRANCH   3  10
BRANCH   1  20
ATOM     20  C   UNL     1       7.744   7.004  18.080  0.00  0.00    +0.000 C 
BRANCH  20  21
ATOM     21  C   UNL     1       7.957   8.467  17.683  0.00  0.00    +0.000 C 
BRANCH  21  22
ATOM     22  C   UNL     1       8.791   9.235  18.708  0.00  0.00    +0.000 C 
BRANCH  22  24
ATOM     23  C   UNL     1      10.300  11.236  18.772  0.00  0.00    +0.000 C 
ATOM     24  C   UNL     1       8.958  10.697  18.305  0.00  0.00    +0.000 C 
ENDBRANCH  22  24
ENDBRANCH  21  22
ENDBRANCH  20  21
ENDBRANCH   1  20
TORSDOF 7
ENDMDL
MODEL 3
REMARK VINA RESULT:      -7.7      1.811      2.435
REMARK  Name = 
REMARK  8 active torsions:
REMARK  status: ('A' for Active; 'I' for Inactive)
REMARK    1  A    between atoms: C_1  and  C_2
REMARK    2  A    between atoms: C_2  and  C_3
REMARK    3  A    between atoms: C_3  and  C_4
REMARK    4  A    between atoms: C_4  and  C_5
REMARK    5  A    between atoms: C_5  and  N_6
REMARK    6  A    between atoms: C_8  and  C_9
REMARK    7  A    between atoms: C_9  and  C_11
REMARK    8  A    between atoms: C_11  and  C_12
REMARK                            x       y       z     vdW  Elec       q    Type
REMARK                         _______ _______ _______ _____ _____    ______ ____
ROOT
ATOM      1  N   UNL     1       5.711   4.367  15.997  0.00  0.00    +0.000 N 
ATOM      2  C   UNL     1       4.409   4.783  16.094  0.00  0.00    +0.000 A 
ATOM      3  C   UNL     1       4.227   5.412  17.315  0.00  0.00    +0.000 A 
ATOM      4  C   UNL     1       5.485   5.339  18.000  0.00  0.00    +0.000 A 
ATOM      5  C   UNL     1       5.958   5.783  19.255  0.00  0.00    +0.000 A 
ATOM      6  C   UNL     1       7.291   5.575  19.629  0.00  0.00    +0.000 A 
ATOM      7  C   UNL     1       8.168   4.951  18.761  0.00  0.00    +0.000 A 
ATOM      8  C   UNL     1       7.744   4.520  17.505  0.00  0.00    +0.000 A 
ATOM      9  C   UNL     1       6.399   4.708  17.145  0.00  0.00    +0.000 A 
ENDROOT
BRANCH   3  10
ATOM     10  C   UNL     1       2.963   6.031  17.731  0.00  0.00    +0.000 C 
ATOM     11  O   UNL     1       2.885   7.253  17.880  0.00  0.00    +0.000 OA
BRANCH  10  12
ATOM     12  C   UNL     1       1.746   5.153  17.977  0.00  0.00    +0.000 C 
BRANCH  12  13
ATOM     13  C   UNL     1       1.810   4.276  19.207  0.00  0.00    +0.000 A 
ATOM     14  C   UNL     1       1.917   4.790  20.508  0.00  0.00    +0.000 A 
ATOM     15  C   UNL     1       2.086   3.936  21.602  0.00  0.00    +0.000 A 
ATOM     16  C   UNL     1       2.161   2.557  21.414  0.00  0.00    +0.000 A 
ATOM     17  C   UNL     1       2.043   2.029  20.132  0.00  0.00    +0.000 A 
ATOM     18  C   UNL     1       1.868   2.885  19.046  0.00  0.00    +0.000 A 
ATOM     19  F   UNL     1       1.771   2.353  17.820  0.00  0.00    +0.000 F 
ENDBRANCH  12  13
ENDBRANCH  10  12
ENDBRANCH   3  10
BRANCH   1  20
ATOM     20  C   UNL     1       6.272   3.684  14.840  0.00  0.00    +0.000 C 
BRANCH  20  21
ATOM     21  C   UNL     1       5.582   4.013  13.513  0.00  0.00    +0.000 C 
BRANCH  21  22
ATOM     22  C   UNL     1       6.280   3.368  12.317  0.00  0.00    +0.000 C 
BRANCH  22  24
ATOM     23  C   UNL     1       4.018   3.258  11.242  0.00  0.00    +0.000 C 
ATOM     24  C   UNL     1       5.313   2.509  11.507  0.00  0.00    +0.000 C 
ENDBRANCH  22  24
ENDBRANCH  21  22
ENDBRANCH  20  21
ENDBRANCH   1  20
TORSDOF 7
ENDMDL
MODEL 4
REMARK VINA RESULT:      -7.5      2.924      6.786
REMARK  Name = 
REMARK  8 active torsions:
REMARK  status: ('A' for Active; 'I' for Inactive)
REMARK    1  A    between atoms: C_1  and  C_2
REMARK    2  A    between atoms: C_2  and  C_3
REMARK    3  A    between atoms: C_3  and  C_4
REMARK    4  A    between atoms: C_4  and  C_5
REMARK    5  A    between atoms: C_5  and  N_6
REMARK    6  A    between atoms: C_8  and  C_9
REMARK    7  A    between atoms: C_9  and  C_11
REMARK    8  A    between atoms: C_11  and  C_12
REMARK                            x       y       z     vdW  Elec       q    Type
REMARK                         _______ _______ _______ _____ _____    ______ ____
ROOT
ATOM      1  N   UNL     1       4.012   3.706  18.420  0.00  0.00    +0.000 N 
ATOM      2  C   UNL     1       5.248   3.462  17.880  0.00  0.00    +0.000 A 
ATOM      3  C   UNL     1       5.748   4.641  17.352  0.00  0.00    +0.000 A 
ATOM      4  C   UNL     1       4.740   5.640  17.560  0.00  0.00    +0.000 A 
ATOM      5  C   UNL     1       4.632   7.017  17.265  0.00  0.00    +0.000 A 
ATOM      6  C   UNL     1       3.491   7.739  17.637  0.00  0.00    +0.000 A 
ATOM      7  C   UNL     1       2.465   7.114  18.322  0.00  0.00    +0.000 A 
ATOM      8  C   UNL     1       2.546   5.762  18.652  0.00  0.00    +0.000 A 
ATOM      9  C   UNL     1       3.681   5.037  18.253  0.00  0.00    +0.000 A 
ENDROOT
BRANCH   3  10
ATOM     10  C   UNL     1       7.078   4.760  16.741  0.00  0.00    +0.000 C 
ATOM     11  O   UNL     1       8.050   4.194  17.247  0.00  0.00    +0.000 OA
BRANCH  10  12
ATOM     12  C   UNL     1       7.248   5.585  15.475  0.00  0.00    +0.000 C 
BRANCH  12  13
ATOM     13  C   UNL     1       6.809   4.914  14.193  0.00  0.00    +0.000 A 
ATOM     14  C   UNL     1       5.655   4.123  14.100  0.00  0.00    +0.000 A 
ATOM     15  C   UNL     1       5.354   3.433  12.921  0.00  0.00    +0.000 A 
ATOM     16  C   UNL     1       6.206   3.515  11.821  0.00  0.00    +0.000 A 
ATOM     17  C   UNL     1       7.348   4.306  11.892  0.00  0.00    +0.000 A 
ATOM     18  C   UNL     1       7.639   4.996  13.066  0.00  0.00    +0.000 A 
ATOM     19  F   UNL     1       8.752   5.741  13.114  0.00  0.00    +0.000 F 
ENDBRANCH  12  13
ENDBRANCH  10  12
ENDBRANCH   3  10
BRANCH   1  20
ATOM     20  C   UNL     1       3.193   2.702  19.084  0.00  0.00    +0.000 C 
BRANCH  20  21
ATOM     21  C   UNL     1       1.897   2.351  18.347  0.00  0.00    +0.000 C 
BRANCH  21  22
ATOM     22  C   UNL     1       0.711   2.193  19.296  0.00  0.00    +0.000 C 
BRANCH  22  24
ATOM     23  C   UNL     1       1.267   2.742  21.678  0.00  0.00    +0.000 C 
ATOM     24  C   UNL     1       0.711   3.278  20.370  0.00  0.00    +0.000 C 
ENDBRANCH  22  24
ENDBRANCH  21  22
ENDBRANCH  20  21
ENDBRANCH   1  20
TORSDOF 7
ENDMDL
MODEL 5
REMARK VINA RESULT:      -7.5      1.195      1.648
REMARK  Name = 
REMARK  8 active torsions:
REMARK  status: ('A' for Active; 'I' for Inactive)
REMARK    1  A    between atoms: C_1  and  C_2
REMARK    2  A    between atoms: C_2  and  C_3
REMARK    3  A    between atoms: C_3  and  C_4
REMARK    4  A    between atoms: C_4  and  C_5
REMARK    5  A    between atoms: C_5  and  N_6
REMARK    6  A    between atoms: C_8  and  C_9
REMARK    7  A    between atoms: C_9  and  C_11
REMARK    8  A    between atoms: C_11  and  C_12
REMARK                            x       y       z     vdW  Elec       q    Type
REMARK                         _______ _______ _______ _____ _____    ______ ____
ROOT
ATOM      1  N   UNL     1       6.148   4.048  15.625  0.00  0.00    +0.000 N 
ATOM      2  C   UNL     1       4.961   3.376  15.758  0.00  0.00    +0.000 A 
ATOM      3  C   UNL     1       4.509   3.515  17.060  0.00  0.00    +0.000 A 
ATOM      4  C   UNL     1       5.499   4.288  17.753  0.00  0.00    +0.000 A 
ATOM      5  C   UNL     1       5.634   4.771  19.073  0.00  0.00    +0.000 A 
ATOM      6  C   UNL     1       6.742   5.547  19.439  0.00  0.00    +0.000 A 
ATOM      7  C   UNL     1       7.705   5.869  18.502  0.00  0.00    +0.000 A 
ATOM      8  C   UNL     1       7.594   5.430  17.183  0.00  0.00    +0.000 A 
ATOM      9  C   UNL     1       6.495   4.631  16.828  0.00  0.00    +0.000 A 
ENDROOT
BRANCH   3  10
ATOM     10  C   UNL     1       3.235   2.967  17.543  0.00  0.00    +0.000 C 
ATOM     11  O   UNL     1       3.154   1.786  17.886  0.00  0.00    +0.000 OA
BRANCH  10  12
ATOM     12  C   UNL     1       2.015   3.871  17.618  0.00  0.00    +0.000 C 
BRANCH  12  13
ATOM     13  C   UNL     1       2.027   4.896  18.730  0.00  0.00    +0.000 A 
ATOM     14  C   UNL     1       1.563   4.624  20.025  0.00  0.00    +0.000 A 
ATOM     15  C   UNL     1       1.492   5.638  20.986  0.00  0.00    +0.000 A 
ATOM     16  C   UNL     1       1.873   6.939  20.665  0.00  0.00    +0.000 A 
ATOM     17  C   UNL     1       2.349   7.223  19.389  0.00  0.00    +0.000 A 
ATOM     18  C   UNL     1       2.424   6.208  18.438  0.00  0.00    +0.000 A 
ATOM     19  F   UNL     1       2.873   6.509  17.212  0.00  0.00    +0.000 F 
ENDBRANCH  12  13
ENDBRANCH  10  12
ENDBRANCH   3  10
BRANCH   1  20
ATOM     20  C   UNL     1       6.906   4.138  14.385  0.00  0.00    +0.000 C 
BRANCH  20  21
ATOM     21  C   UNL     1       6.048   4.247  13.122  0.00  0.00    +0.000 C 
BRANCH  21  22
ATOM     22  C   UNL     1       6.595   3.406  11.970  0.00  0.00    +0.000 C 
BRANCH  22  24
ATOM     23  C   UNL     1       6.436   1.062  11.095  0.00  0.00    +0.000 C 
ATOM     24  C   UNL     1       5.657   2.252  11.630  0.00  0.00    +0.000 C 
ENDBRANCH  22  24
ENDBRANCH  21  22
ENDBRANCH  20  21
ENDBRANCH   1  20
TORSDOF 7
ENDMDL
MODEL 6
REMARK VINA RESULT:      -7.4      3.012      6.679
REMARK  Name = 
REMARK  8 active torsions:
REMARK  status: ('A' for Active; 'I' for Inactive)
REMARK    1  A    between atoms: C_1  and  C_2
REMARK    2  A    between atoms: C_2  and  C_3
REMARK    3  A    between atoms: C_3  and  C_4
REMARK    4  A    between atoms: C_4  and  C_5
REMARK    5  A    between atoms: C_5  and  N_6
REMARK    6  A    between atoms: C_8  and  C_9
REMARK    7  A    between atoms: C_9  and  C_11
REMARK    8  A    between atoms: C_11  and  C_12
REMARK                            x       y       z     vdW  Elec       q    Type
REMARK                         _______ _______ _______ _____ _____    ______ ____
ROOT
ATOM      1  N   UNL     1       4.343   4.305  18.823  0.00  0.00    +0.000 N 
ATOM      2  C   UNL     1       5.094   4.389  17.679  0.00  0.00    +0.000 A 
ATOM      3  C   UNL     1       4.858   5.614  17.077  0.00  0.00    +0.000 A 
ATOM      4  C   UNL     1       3.889   6.288  17.891  0.00  0.00    +0.000 A 
ATOM      5  C   UNL     1       3.244   7.543  17.831  0.00  0.00    +0.000 A 
ATOM      6  C   UNL     1       2.339   7.929  18.828  0.00  0.00    +0.000 A 
ATOM      7  C   UNL     1       2.084   7.091  19.897  0.00  0.00    +0.000 A 
ATOM      8  C   UNL     1       2.719   5.855  20.003  0.00  0.00    +0.000 A 
ATOM      9  C   UNL     1       3.606   5.462  18.987  0.00  0.00    +0.000 A 
ENDROOT
BRANCH   3  10
ATOM     10  C   UNL     1       5.539   6.065  15.856  0.00  0.00    +0.000 C 
ATOM     11  O   UNL     1       5.141   7.063  15.251  0.00  0.00    +0.000 OA
BRANCH  10  12
ATOM     12  C   UNL     1       6.743   5.291  15.344  0.00  0.00    +0.000 C 
BRANCH  12  13
ATOM     13  C   UNL     1       6.580   4.654  13.982  0.00  0.00    +0.000 A 
ATOM     14  C   UNL     1       5.553   3.747  13.680  0.00  0.00    +0.000 A 
ATOM     15  C   UNL     1       5.512   3.100  12.441  0.00  0.00    +0.000 A 
ATOM     16  C   UNL     1       6.500   3.342  11.488  0.00  0.00    +0.000 A 
ATOM     17  C   UNL     1       7.517   4.250  11.765  0.00  0.00    +0.000 A 
ATOM     18  C   UNL     1       7.549   4.895  12.999  0.00  0.00    +0.000 A 
ATOM     19  F   UNL     1       8.547   5.755  13.248  0.00  0.00    +0.000 F 
ENDBRANCH  12  13
ENDBRANCH  10  12
ENDBRANCH   3  10
BRANCH   1  20
ATOM     20  C   UNL     1       4.351   3.165  19.728  0.00  0.00    +0.000 C 
BRANCH  20  21
ATOM     21  C   UNL     1       3.347   2.065  19.372  0.00  0.00    +0.000 C 
BRANCH  21  22
ATOM     22  C   UNL     1       1.956   2.338  19.942  0.00  0.00    +0.000 C 
BRANCH  22  24
ATOM     23  C   UNL     1       1.151   3.477  17.859  0.00  0.00    +0.000 C 
ATOM     24  C   UNL     1       0.898   2.346  18.842  0.00  0.00    +0.000 C 
ENDBRANCH  22  24
ENDBRANCH  21  22
ENDBRANCH  20  21
ENDBRANCH   1  20
TORSDOF 7
ENDMDL
MODEL 7
REMARK VINA RESULT:      -7.4      2.914      7.082
REMARK  Name = 
REMARK  8 active torsions:
REMARK  status: ('A' for Active; 'I' for Inactive)
REMARK    1  A    between atoms: C_1  and  C_2
REMARK    2  A    between atoms: C_2  and  C_3
REMARK    3  A    between atoms: C_3  and  C_4
REMARK    4  A    between atoms: C_4  and  C_5
REMARK    5  A    between atoms: C_5  and  N_6
REMARK    6  A    between atoms: C_8  and  C_9
REMARK    7  A    between atoms: C_9  and  C_11
REMARK    8  A    between atoms: C_11  and  C_12
REMARK                            x       y       z     vdW  Elec       q    Type
REMARK                         _______ _______ _______ _____ _____    ______ ____
ROOT
ATOM      1  N   UNL     1       3.383   6.535  17.821  0.00  0.00    +0.000 N 
ATOM      2  C   UNL     1       4.708   6.615  17.485  0.00  0.00    +0.000 A 
ATOM      3  C   UNL     1       5.199   5.335  17.283  0.00  0.00    +0.000 A 
ATOM      4  C   UNL     1       4.111   4.437  17.545  0.00  0.00    +0.000 A 
ATOM      5  C   UNL     1       3.955   3.034  17.516  0.00  0.00    +0.000 A 
ATOM      6  C   UNL     1       2.716   2.448  17.805  0.00  0.00    +0.000 A 
ATOM      7  C   UNL     1       1.624   3.242  18.100  0.00  0.00    +0.000 A 
ATOM      8  C   UNL     1       1.733   4.631  18.116  0.00  0.00    +0.000 A 
ATOM      9  C   UNL     1       2.984   5.212  17.851  0.00  0.00    +0.000 A 
ENDROOT
BRANCH   3  10
ATOM     10  C   UNL     1       6.574   5.048  16.856  0.00  0.00    +0.000 C 
ATOM     11  O   UNL     1       7.303   4.326  17.540  0.00  0.00    +0.000 OA
BRANCH  10  12
ATOM     12  C   UNL     1       7.094   5.649  15.560  0.00  0.00    +0.000 C 
BRANCH  12  13
ATOM     13  C   UNL     1       6.700   4.918  14.296  0.00  0.00    +0.000 A 
ATOM     14  C   UNL     1       5.567   4.095  14.210  0.00  0.00    +0.000 A 
ATOM     15  C   UNL     1       5.309   3.353  13.054  0.00  0.00    +0.000 A 
ATOM     16  C   UNL     1       6.182   3.414  11.969  0.00  0.00    +0.000 A 
ATOM     17  C   UNL     1       7.303   4.236  12.032  0.00  0.00    +0.000 A 
ATOM     18  C   UNL     1       7.551   4.978  13.184  0.00  0.00    +0.000 A 
ATOM     19  F   UNL     1       8.645   5.752  13.226  0.00  0.00    +0.000 F 
ENDBRANCH  12  13
ENDBRANCH  10  12
ENDBRANCH   3  10
BRANCH   1  20
ATOM     20  C   UNL     1       2.531   7.686  18.086  0.00  0.00    +0.000 C 
BRANCH  20  21
ATOM     21  C   UNL     1       2.116   7.845  19.551  0.00  0.00    +0.000 C 
BRANCH  21  22
ATOM     22  C   UNL     1       1.123   8.988  19.756  0.00  0.00    +0.000 C 
BRANCH  22  24
ATOM     23  C   UNL     1      -0.428  10.518  18.516  0.00  0.00    +0.000 C 
ATOM     24  C   UNL     1       0.886   9.756  18.459  0.00  0.00    +0.000 C 
ENDBRANCH  22  24
ENDBRANCH  21  22
ENDBRANCH  20  21
ENDBRANCH   1  20
TORSDOF 7
ENDMDL
MODEL 8
REMARK VINA RESULT:      -7.3      1.765      2.427
REMARK  Name = 
REMARK  8 active torsions:
REMARK  status: ('A' for Active; 'I' for Inactive)
REMARK    1  A    between atoms: C_1  and  C_2
REMARK    2  A    between atoms: C_2  and  C_3
REMARK    3  A    between atoms: C_3  and  C_4
REMARK    4  A    between atoms: C_4  and  C_5
REMARK    5  A    between atoms: C_5  and  N_6
REMARK    6  A    between atoms: C_8  and  C_9
REMARK    7  A    between atoms: C_9  and  C_11
REMARK    8  A    between atoms: C_11  and  C_12
REMARK                            x       y       z     vdW  Elec       q    Type
REMARK                         _______ _______ _______ _____ _____    ______ ____
ROOT
ATOM      1  N   UNL     1       5.918   4.873  15.871  0.00  0.00    +0.000 N 
ATOM      2  C   UNL     1       4.645   5.370  15.962  0.00  0.00    +0.000 A 
ATOM      3  C   UNL     1       4.427   5.814  17.256  0.00  0.00    +0.000 A 
ATOM      4  C   UNL     1       5.629   5.538  17.988  0.00  0.00    +0.000 A 
ATOM      5  C   UNL     1       6.048   5.744  19.321  0.00  0.00    +0.000 A 
ATOM      6  C   UNL     1       7.337   5.377  19.729  0.00  0.00    +0.000 A 
ATOM      7  C   UNL     1       8.224   4.828  18.820  0.00  0.00    +0.000 A 
ATOM      8  C   UNL     1       7.854   4.632  17.491  0.00  0.00    +0.000 A 
ATOM      9  C   UNL     1       6.552   4.978  17.094  0.00  0.00    +0.000 A 
ENDROOT
BRANCH   3  10
ATOM     10  C   UNL     1       3.184   6.458  17.697  0.00  0.00    +0.000 C 
ATOM     11  O   UNL     1       3.162   7.665  17.952  0.00  0.00    +0.000 OA
BRANCH  10  12
ATOM     12  C   UNL     1       1.920   5.625  17.837  0.00  0.00    +0.000 C 
BRANCH  12  13
ATOM     13  C   UNL     1       1.975   4.521  18.869  0.00  0.00    +0.000 A 
ATOM     14  C   UNL     1       1.992   3.160  18.531  0.00  0.00    +0.000 A 
ATOM     15  C   UNL     1       1.930   2.177  19.524  0.00  0.00    +0.000 A 
ATOM     16  C   UNL     1       1.839   2.538  20.867  0.00  0.00    +0.000 A 
ATOM     17  C   UNL     1       1.835   3.883  21.221  0.00  0.00    +0.000 A 
ATOM     18  C   UNL     1       1.904   4.858  20.228  0.00  0.00    +0.000 A 
ATOM     19  F   UNL     1       1.884   6.148  20.592  0.00  0.00    +0.000 F 
ENDBRANCH  12  13
ENDBRANCH  10  12
ENDBRANCH   3  10
BRANCH   1  20
ATOM     20  C   UNL     1       6.505   4.336  14.651  0.00  0.00    +0.000 C 
BRANCH  20  21
ATOM     21  C   UNL     1       5.492   3.756  13.660  0.00  0.00    +0.000 C 
BRANCH  21  22
ATOM     22  C   UNL     1       6.126   3.402  12.317  0.00  0.00    +0.000 C 
BRANCH  22  24
ATOM     23  C   UNL     1       3.946   3.210  11.094  0.00  0.00    +0.000 C 
ATOM     24  C   UNL     1       5.220   2.487  11.499  0.00  0.00    +0.000 C 
ENDBRANCH  22  24
ENDBRANCH  21  22
ENDBRANCH  20  21
ENDBRANCH   1  20
TORSDOF 7
ENDMDL
MODEL 9
REMARK VINA RESULT:      -7.3      3.256      5.553
REMARK  Name = 
REMARK  8 active torsions:
REMARK  status: ('A' for Active; 'I' for Inactive)
REMARK    1  A    between atoms: C_1  and  C_2
REMARK    2  A    between atoms: C_2  and  C_3
REMARK    3  A    between atoms: C_3  and  C_4
REMARK    4  A    between atoms: C_4  and  C_5
REMARK    5  A    between atoms: C_5  and  N_6
REMARK    6  A    between atoms: C_8  and  C_9
REMARK    7  A    between atoms: C_9  and  C_11
REMARK    8  A    between atoms: C_11  and  C_12
REMARK                            x       y       z     vdW  Elec       q    Type
REMARK                         _______ _______ _______ _____ _____    ______ ____
ROOT
ATOM      1  N   UNL     1       4.263   4.983  17.113  0.00  0.00    +0.000 N 
ATOM      2  C   UNL     1       3.999   6.297  17.396  0.00  0.00    +0.000 A 
ATOM      3  C   UNL     1       2.874   6.366  18.202  0.00  0.00    +0.000 A 
ATOM      4  C   UNL     1       2.421   5.018  18.384  0.00  0.00    +0.000 A 
ATOM      5  C   UNL     1       1.353   4.417  19.085  0.00  0.00    +0.000 A 
ATOM      6  C   UNL     1       1.195   3.025  19.090  0.00  0.00    +0.000 A 
ATOM      7  C   UNL     1       2.102   2.221  18.425  0.00  0.00    +0.000 A 
ATOM      8  C   UNL     1       3.182   2.776  17.742  0.00  0.00    +0.000 A 
ATOM      9  C   UNL     1       3.321   4.173  17.719  0.00  0.00    +0.000 A 
ENDROOT
BRANCH   3  10
ATOM     10  C   UNL     1       2.337   7.621  18.743  0.00  0.00    +0.000 C 
ATOM     11  O   UNL     1       2.237   7.784  19.961  0.00  0.00    +0.000 OA
BRANCH  10  12
ATOM     12  C   UNL     1       1.904   8.722  17.787  0.00  0.00    +0.000 C 
BRANCH  12  13
ATOM     13  C   UNL     1       1.087   9.836  18.400  0.00  0.00    +0.000 A 
ATOM     14  C   UNL     1      -0.222   9.654  18.871  0.00  0.00    +0.000 A 
ATOM     15  C   UNL     1      -0.975  10.741  19.326  0.00  0.00    +0.000 A 
ATOM     16  C   UNL     1      -0.437  12.027  19.308  0.00  0.00    +0.000 A 
ATOM     17  C   UNL     1       0.864  12.223  18.858  0.00  0.00    +0.000 A 
ATOM     18  C   UNL     1       1.612  11.136  18.412  0.00  0.00    +0.000 A 
ATOM     19  F   UNL     1       2.859  11.352  17.970  0.00  0.00    +0.000 F 
ENDBRANCH  12  13
ENDBRANCH  10  12
ENDBRANCH   3  10
BRANCH   1  20
ATOM     20  C   UNL     1       5.386   4.525  16.307  0.00  0.00    +0.000 C 
BRANCH  20  21
ATOM     21  C   UNL     1       6.679   5.318  16.511  0.00  0.00    +0.000 C 
BRANCH  21  22
ATOM     22  C   UNL     1       7.321   5.047  17.871  0.00  0.00    +0.000 C 
BRANCH  22  24
ATOM     23  C   UNL     1       7.617   7.523  17.609  0.00  0.00    +0.000 C 
ATOM     24  C   UNL     1       7.721   6.346  18.565  0.00  0.00    +0.000 C 
ENDBRANCH  22  24
ENDBRANCH  21  22
ENDBRANCH  20  21
ENDBRANCH   1  20
TORSDOF 7
ENDMDL
