MODEL 1
REMARK VINA RESULT:      -8.7      0.000      0.000
REMARK  Name = 
REMARK  12 active torsions:
REMARK  status: ('A' for Active; 'I' for Inactive)
REMARK    1  A    between atoms: C_1  and  O_2
REMARK    2  A    between atoms: O_2  and  C_3
REMARK    3  A    between atoms: C_6  and  C_7
REMARK    4  A    between atoms: C_7  and  C_8
REMARK    5  A    between atoms: C_7  and  N_9
REMARK    6  A    between atoms: C_10  and  C_12
REMARK    7  A    between atoms: C_12  and  O_13
REMARK    8  A    between atoms: O_13  and  C_14
REMARK    9  A    between atoms: C_16  and  C_17
REMARK   10  A    between atoms: C_19  and  C_20
REMARK   11  A    between atoms: C_24  and  C_25
REMARK   12  A    between atoms: N_27  and  C_28
REMARK                            x       y       z     vdW  Elec       q    Type
REMARK                         _______ _______ _______ _____ _____    ______ ____
ROOT
ATOM      1  C   UNL     1       1.767   6.682  20.305  0.00  0.00    +0.000 A 
ATOM      2  C   UNL     1       2.387   7.371  19.274  0.00  0.00    +0.000 A 
ATOM      3  C   UNL     1       3.371   6.745  18.480  0.00  0.00    +0.000 A 
ATOM      4  C   UNL     1       3.978   7.541  17.361  0.00  0.00    +0.000 C 
ATOM      5  C   UNL     1       3.709   5.412  18.831  0.00  0.00    +0.000 A 
ATOM      6  C   UNL     1       4.593   4.357  18.420  0.00  0.00    +0.000 A 
ATOM      7  N   UNL     1       4.413   3.231  19.129  0.00  0.00    +0.000 NA
ATOM      8  N   UNL     1       3.449   3.558  20.009  0.00  0.00    +0.000 N 
ATOM      9  C   UNL     1       2.980   2.587  20.967  0.00  0.00    +0.000 C 
ATOM     10  C   UNL     1       2.991   4.840  19.885  0.00  0.00    +0.000 A 
ATOM     11  N   UNL     1       2.035   5.409  20.649  0.00  0.00    +0.000 NA
ENDROOT
BRANCH   6  12
ATOM     12  C   UNL     1       5.579   4.395  17.334  0.00  0.00    +0.000 A 
ATOM     13  C   UNL     1       5.338   4.135  15.962  0.00  0.00    +0.000 A 
ATOM     14  C   UNL     1       6.557   4.198  15.332  0.00  0.00    +0.000 A 
ATOM     15  O   UNL     1       7.517   4.597  16.201  0.00  0.00    +0.000 OA
ATOM     16  C   UNL     1       6.910   4.766  17.412  0.00  0.00    +0.000 A 
ATOM     17  C   UNL     1       7.769   5.290  18.495  0.00  0.00    +0.000 C 
ENDBRANCH   6  12
BRANCH   1  18
ATOM     18  O   UNL     1       0.826   7.401  21.022  0.00  0.00    +0.000 OA
BRANCH  18  19
ATOM     19  C   UNL     1       1.357   8.577  21.622  0.00  0.00    +0.000 C 
BRANCH  19  21
ATOM     20  N   UNL     1       0.286  10.589  20.709  0.00  0.00    +0.000 N 
ATOM     21  C   UNL     1       0.259   9.637  21.708  0.00  0.00    +0.000 C 
ATOM     22  O   UNL     1      -0.585   9.632  22.601  0.00  0.00    +0.000 OA
ATOM     23  H   UNL     1       1.024  10.570  20.017  0.00  0.00    +0.000 HD
BRANCH  20  24
ATOM     24  C   UNL     1      -0.675  11.688  20.655  0.00  0.00    +0.000 C 
ATOM     25  C   UNL     1       0.073  13.021  20.754  0.00  0.00    +0.000 C 
BRANCH  24  29
ATOM     26  C   UNL     1      -3.213  11.016  17.180  0.00  0.00    +0.000 A 
ATOM     27  C   UNL     1      -1.907  10.538  17.236  0.00  0.00    +0.000 A 
ATOM     28  C   UNL     1      -1.113  10.773  18.358  0.00  0.00    +0.000 A 
ATOM     29  C   UNL     1      -1.593  11.521  19.448  0.00  0.00    +0.000 A 
ATOM     30  C   UNL     1      -2.903  12.018  19.368  0.00  0.00    +0.000 A 
ATOM     31  C   UNL     1      -3.710  11.767  18.244  0.00  0.00    +0.000 A 
BRANCH  26  33
ATOM     32  C   UNL     1      -3.169   9.963  15.061  0.00  0.00    +0.000 C 
ATOM     33  O   UNL     1      -3.886  10.725  16.026  0.00  0.00    +0.000 OA
ENDBRANCH  26  33
ENDBRANCH  24  29
ENDBRANCH  20  24
ENDBRANCH  19  21
ENDBRANCH  18  19
ENDBRANCH   1  18
TORSDOF 7
ENDMDL
MODEL 2
REMARK VINA RESULT:      -8.7      0.828      1.045
REMARK  Name = 
REMARK  12 active torsions:
REMARK  status: ('A' for Active; 'I' for Inactive)
REMARK    1  A    between atoms: C_1  and  O_2
REMARK    2  A    between atoms: O_2  and  C_3
REMARK    3  A    between atoms: C_6  and  C_7
REMARK    4  A    between atoms: C_7  and  C_8
REMARK    5  A    between atoms: C_7  and  N_9
REMARK    6  A    between atoms: C_10  and  C_12
REMARK    7  A    between atoms: C_12  and  O_13
REMARK    8  A    between atoms: O_13  and  C_14
REMARK    9  A    between atoms: C_16  and  C_17
REMARK   10  A    between atoms: C_19  and  C_20
REMARK   11  A    between atoms: C_24  and  C_25
REMARK   12  A    between atoms: N_27  and  C_28
REMARK                            x       y       z     vdW  Elec       q    Type
REMARK                         _______ _______ _______ _____ _____    ______ ____
ROOT
ATOM      1  C   UNL     1       1.708   6.874  20.321  0.00  0.00    +0.000 A 
ATOM      2  C   UNL     1       2.353   7.496  19.263  0.00  0.00    +0.000 A 
ATOM      3  C   UNL     1       3.315   6.801  18.499  0.00  0.00    +0.000 A 
ATOM      4  C   UNL     1       3.951   7.527  17.349  0.00  0.00    +0.000 C 
ATOM      5  C   UNL     1       3.603   5.473  18.907  0.00  0.00    +0.000 A 
ATOM      6  C   UNL     1       4.449   4.371  18.543  0.00  0.00    +0.000 A 
ATOM      7  N   UNL     1       4.227   3.283  19.300  0.00  0.00    +0.000 NA
ATOM      8  N   UNL     1       3.274   3.682  20.161  0.00  0.00    +0.000 N 
ATOM      9  C   UNL     1       2.770   2.769  21.159  0.00  0.00    +0.000 C 
ATOM     10  C   UNL     1       2.864   4.973  19.983  0.00  0.00    +0.000 A 
ATOM     11  N   UNL     1       1.929   5.608  20.720  0.00  0.00    +0.000 NA
ENDROOT
BRANCH   6  12
ATOM     12  C   UNL     1       5.437   4.326  17.460  0.00  0.00    +0.000 A 
ATOM     13  C   UNL     1       5.214   3.899  16.127  0.00  0.00    +0.000 A 
ATOM     14  C   UNL     1       6.432   3.943  15.493  0.00  0.00    +0.000 A 
ATOM     15  O   UNL     1       7.369   4.483  16.310  0.00  0.00    +0.000 OA
ATOM     16  C   UNL     1       6.750   4.764  17.493  0.00  0.00    +0.000 A 
ATOM     17  C   UNL     1       7.580   5.449  18.507  0.00  0.00    +0.000 C 
ENDBRANCH   6  12
BRANCH   1  18
ATOM     18  O   UNL     1       0.792   7.657  21.004  0.00  0.00    +0.000 OA
BRANCH  18  19
ATOM     19  C   UNL     1       1.403   8.641  21.830  0.00  0.00    +0.000 C 
BRANCH  19  21
ATOM     20  N   UNL     1       0.892  10.434  20.231  0.00  0.00    +0.000 N 
ATOM     21  C   UNL     1       0.773  10.003  21.538  0.00  0.00    +0.000 C 
ATOM     22  O   UNL     1       0.200  10.658  22.405  0.00  0.00    +0.000 OA
ATOM     23  H   UNL     1       1.405   9.873  19.563  0.00  0.00    +0.000 HD
BRANCH  20  24
ATOM     24  C   UNL     1       0.370  11.724  19.786  0.00  0.00    +0.000 C 
ATOM     25  C   UNL     1       1.408  12.410  18.895  0.00  0.00    +0.000 C 
BRANCH  24  29
ATOM     26  C   UNL     1      -3.561  11.004  18.056  0.00  0.00    +0.000 A 
ATOM     27  C   UNL     1      -2.443  10.276  17.660  0.00  0.00    +0.000 A 
ATOM     28  C   UNL     1      -1.194  10.531  18.226  0.00  0.00    +0.000 A 
ATOM     29  C   UNL     1      -1.020  11.545  19.184  0.00  0.00    +0.000 A 
ATOM     30  C   UNL     1      -2.151  12.288  19.556  0.00  0.00    +0.000 A 
ATOM     31  C   UNL     1      -3.414  12.020  18.999  0.00  0.00    +0.000 A 
BRANCH  26  33
ATOM     32  C   UNL     1      -5.925  11.111  18.046  0.00  0.00    +0.000 C 
ATOM     33  O   UNL     1      -4.725  10.663  17.425  0.00  0.00    +0.000 OA
ENDBRANCH  26  33
ENDBRANCH  24  29
ENDBRANCH  20  24
ENDBRANCH  19  21
ENDBRANCH  18  19
ENDBRANCH   1  18
TORSDOF 7
ENDMDL
MODEL 3
REMARK VINA RESULT:      -8.6      1.064      1.429
REMARK  Name = 
REMARK  12 active torsions:
REMARK  status: ('A' for Active; 'I' for Inactive)
REMARK    1  A    between atoms: C_1  and  O_2
REMARK    2  A    between atoms: O_2  and  C_3
REMARK    3  A    between atoms: C_6  and  C_7
REMARK    4  A    between atoms: C_7  and  C_8
REMARK    5  A    between atoms: C_7  and  N_9
REMARK    6  A    between atoms: C_10  and  C_12
REMARK    7  A    between atoms: C_12  and  O_13
REMARK    8  A    between atoms: O_13  and  C_14
REMARK    9  A    between atoms: C_16  and  C_17
REMARK   10  A    between atoms: C_19  and  C_20
REMARK   11  A    between atoms: C_24  and  C_25
REMARK   12  A    between atoms: N_27  and  C_28
REMARK                            x       y       z     vdW  Elec       q    Type
REMARK                         _______ _______ _______ _____ _____    ______ ____
ROOT
ATOM      1  C   UNL     1       1.900   6.164  19.746  0.00  0.00    +0.000 A 
ATOM      2  C   UNL     1       2.695   7.019  18.998  0.00  0.00    +0.000 A 
ATOM      3  C   UNL     1       3.612   6.507  18.055  0.00  0.00    +0.000 A 
ATOM      4  C   UNL     1       4.418   7.492  17.258  0.00  0.00    +0.000 C 
ATOM      5  C   UNL     1       3.697   5.094  17.963  0.00  0.00    +0.000 A 
ATOM      6  C   UNL     1       4.418   4.081  17.244  0.00  0.00    +0.000 A 
ATOM      7  N   UNL     1       4.004   2.841  17.552  0.00  0.00    +0.000 NA
ATOM      8  N   UNL     1       3.051   3.043  18.479  0.00  0.00    +0.000 N 
ATOM      9  C   UNL     1       2.362   1.920  19.068  0.00  0.00    +0.000 C 
ATOM     10  C   UNL     1       2.824   4.359  18.769  0.00  0.00    +0.000 A 
ATOM     11  N   UNL     1       1.927   4.821  19.665  0.00  0.00    +0.000 NA
ENDROOT
BRANCH   6  12
ATOM     12  C   UNL     1       5.468   4.279  16.239  0.00  0.00    +0.000 A 
ATOM     13  C   UNL     1       5.290   4.375  14.836  0.00  0.00    +0.000 A 
ATOM     14  C   UNL     1       6.547   4.468  14.288  0.00  0.00    +0.000 A 
ATOM     15  O   UNL     1       7.482   4.557  15.265  0.00  0.00    +0.000 OA
ATOM     16  C   UNL     1       6.818   4.493  16.456  0.00  0.00    +0.000 A 
ATOM     17  C   UNL     1       7.650   4.664  17.666  0.00  0.00    +0.000 C 
ENDBRANCH   6  12
BRANCH   1  18
ATOM     18  O   UNL     1       1.046   6.779  20.645  0.00  0.00    +0.000 OA
BRANCH  18  19
ATOM     19  C   UNL     1       1.642   7.881  21.320  0.00  0.00    +0.000 C 
BRANCH  19  21
ATOM     20  N   UNL     1       0.969  10.082  20.463  0.00  0.00    +0.000 N 
ATOM     21  C   UNL     1       0.660   9.053  21.330  0.00  0.00    +0.000 C 
ATOM     22  O   UNL     1      -0.331   9.069  22.056  0.00  0.00    +0.000 OA
ATOM     23  H   UNL     1       1.816  10.037  19.913  0.00  0.00    +0.000 HD
BRANCH  20  24
ATOM     24  C   UNL     1       0.152  11.289  20.365  0.00  0.00    +0.000 C 
ATOM     25  C   UNL     1       1.061  12.499  20.131  0.00  0.00    +0.000 C 
BRANCH  24  29
ATOM     26  C   UNL     1      -3.097  10.901  17.491  0.00  0.00    +0.000 A 
ATOM     27  C   UNL     1      -3.212  11.704  18.622  0.00  0.00    +0.000 A 
ATOM     28  C   UNL     1      -2.159  11.806  19.530  0.00  0.00    +0.000 A 
ATOM     29  C   UNL     1      -0.967  11.082  19.350  0.00  0.00    +0.000 A 
ATOM     30  C   UNL     1      -0.874  10.256  18.219  0.00  0.00    +0.000 A 
ATOM     31  C   UNL     1      -1.929  10.166  17.294  0.00  0.00    +0.000 A 
BRANCH  26  33
ATOM     32  C   UNL     1      -5.163  11.901  16.917  0.00  0.00    +0.000 C 
ATOM     33  O   UNL     1      -4.198  10.881  16.682  0.00  0.00    +0.000 OA
ENDBRANCH  26  33
ENDBRANCH  24  29
ENDBRANCH  20  24
ENDBRANCH  19  21
ENDBRANCH  18  19
ENDBRANCH   1  18
TORSDOF 7
ENDMDL
MODEL 4
REMARK VINA RESULT:      -8.1      2.251      2.694
REMARK  Name = 
REMARK  12 active torsions:
REMARK  status: ('A' for Active; 'I' for Inactive)
REMARK    1  A    between atoms: C_1  and  O_2
REMARK    2  A    between atoms: O_2  and  C_3
REMARK    3  A    between atoms: C_6  and  C_7
REMARK    4  A    between atoms: C_7  and  C_8
REMARK    5  A    between atoms: C_7  and  N_9
REMARK    6  A    between atoms: C_10  and  C_12
REMARK    7  A    between atoms: C_12  and  O_13
REMARK    8  A    between atoms: O_13  and  C_14
REMARK    9  A    between atoms: C_16  and  C_17
REMARK   10  A    between atoms: C_19  and  C_20
REMARK   11  A    between atoms: C_24  and  C_25
REMARK   12  A    between atoms: N_27  and  C_28
REMARK                            x       y       z     vdW  Elec       q    Type
REMARK                         _______ _______ _______ _____ _____    ______ ____
ROOT
ATOM      1  C   UNL     1       1.784   6.914  20.322  0.00  0.00    +0.000 A 
ATOM      2  C   UNL     1       2.413   7.534  19.252  0.00  0.00    +0.000 A 
ATOM      3  C   UNL     1       3.346   6.831  18.461  0.00  0.00    +0.000 A 
ATOM      4  C   UNL     1       3.965   7.556  17.301  0.00  0.00    +0.000 C 
ATOM      5  C   UNL     1       3.626   5.497  18.854  0.00  0.00    +0.000 A 
ATOM      6  C   UNL     1       4.448   4.386  18.463  0.00  0.00    +0.000 A 
ATOM      7  N   UNL     1       4.229   3.296  19.218  0.00  0.00    +0.000 NA
ATOM      8  N   UNL     1       3.303   3.702  20.105  0.00  0.00    +0.000 N 
ATOM      9  C   UNL     1       2.811   2.790  21.108  0.00  0.00    +0.000 C 
ATOM     10  C   UNL     1       2.907   4.999  19.944  0.00  0.00    +0.000 A 
ATOM     11  N   UNL     1       1.998   5.642  20.707  0.00  0.00    +0.000 NA
ENDROOT
BRANCH   6  12
ATOM     12  C   UNL     1       5.409   4.335  17.356  0.00  0.00    +0.000 A 
ATOM     13  C   UNL     1       5.138   3.963  16.016  0.00  0.00    +0.000 A 
ATOM     14  C   UNL     1       6.342   3.976  15.355  0.00  0.00    +0.000 A 
ATOM     15  O   UNL     1       7.321   4.446  16.166  0.00  0.00    +0.000 OA
ATOM     16  C   UNL     1       6.740   4.713  17.373  0.00  0.00    +0.000 A 
ATOM     17  C   UNL     1       7.622   5.326  18.389  0.00  0.00    +0.000 C 
ENDBRANCH   6  12
BRANCH   1  18
ATOM     18  O   UNL     1       0.896   7.705  21.031  0.00  0.00    +0.000 OA
BRANCH  18  19
ATOM     19  C   UNL     1       0.673   8.975  20.430  0.00  0.00    +0.000 C 
BRANCH  19  21
ATOM     20  N   UNL     1      -0.323  11.092  21.176  0.00  0.00    +0.000 N 
ATOM     21  C   UNL     1       0.476  10.021  21.526  0.00  0.00    +0.000 C 
ATOM     22  O   UNL     1       0.990   9.909  22.637  0.00  0.00    +0.000 OA
ATOM     23  H   UNL     1      -0.693  11.156  20.237  0.00  0.00    +0.000 HD
BRANCH  20  24
ATOM     24  C   UNL     1      -0.593  12.195  22.095  0.00  0.00    +0.000 C 
ATOM     25  C   UNL     1       0.291  13.389  21.728  0.00  0.00    +0.000 C 
BRANCH  24  29
ATOM     26  C   UNL     1      -4.897  12.862  22.097  0.00  0.00    +0.000 A 
ATOM     27  C   UNL     1      -4.151  12.901  20.923  0.00  0.00    +0.000 A 
ATOM     28  C   UNL     1      -2.772  12.691  20.951  0.00  0.00    +0.000 A 
ATOM     29  C   UNL     1      -2.093  12.464  22.161  0.00  0.00    +0.000 A 
ATOM     30  C   UNL     1      -2.854  12.451  23.340  0.00  0.00    +0.000 A 
ATOM     31  C   UNL     1      -4.246  12.646  23.311  0.00  0.00    +0.000 A 
BRANCH  26  33
ATOM     32  C   UNL     1      -6.961  12.077  21.249  0.00  0.00    +0.000 C 
ATOM     33  O   UNL     1      -6.236  13.088  21.939  0.00  0.00    +0.000 OA
ENDBRANCH  26  33
ENDBRANCH  24  29
ENDBRANCH  20  24
ENDBRANCH  19  21
ENDBRANCH  18  19
ENDBRANCH   1  18
TORSDOF 7
ENDMDL
MODEL 5
REMARK VINA RESULT:      -8.1      2.740     10.472
REMARK  Name = 
REMARK  12 active torsions:
REMARK  status: ('A' for Active; 'I' for Inactive)
REMARK    1  A    between atoms: C_1  and  O_2
REMARK    2  A    between atoms: O_2  and  C_3
REMARK    3  A    between atoms: C_6  and  C_7
REMARK    4  A    between atoms: C_7  and  C_8
REMARK    5  A    between atoms: C_7  and  N_9
REMARK    6  A    between atoms: C_10  and  C_12
REMARK    7  A    between atoms: C_12  and  O_13
REMARK    8  A    between atoms: O_13  and  C_14
REMARK    9  A    between atoms: C_16  and  C_17
REMARK   10  A    between atoms: C_19  and  C_20
REMARK   11  A    between atoms: C_24  and  C_25
REMARK   12  A    between atoms: N_27  and  C_28
REMARK                            x       y       z     vdW  Elec       q    Type
REMARK                         _______ _______ _______ _____ _____    ______ ____
ROOT
ATOM      1  C   UNL     1      -0.901  10.927  18.677  0.00  0.00    +0.000 A 
ATOM      2  C   UNL     1      -1.655  11.629  19.605  0.00  0.00    +0.000 A 
ATOM      3  C   UNL     1      -2.994  11.978  19.327  0.00  0.00    +0.000 A 
ATOM      4  C   UNL     1      -3.761  12.711  20.389  0.00  0.00    +0.000 C 
ATOM      5  C   UNL     1      -3.487  11.613  18.047  0.00  0.00    +0.000 A 
ATOM      6  C   UNL     1      -4.683  11.718  17.259  0.00  0.00    +0.000 A 
ATOM      7  N   UNL     1      -4.573  11.093  16.074  0.00  0.00    +0.000 NA
ATOM      8  N   UNL     1      -3.315  10.617  16.080  0.00  0.00    +0.000 N 
ATOM      9  C   UNL     1      -2.814   9.879  14.946  0.00  0.00    +0.000 C 
ATOM     10  C   UNL     1      -2.617  10.895  17.221  0.00  0.00    +0.000 A 
ATOM     11  N   UNL     1      -1.340  10.534  17.467  0.00  0.00    +0.000 NA
ENDROOT
BRANCH   6  12
ATOM     12  C   UNL     1      -5.942  12.369  17.634  0.00  0.00    +0.000 A 
ATOM     13  C   UNL     1      -6.502  13.532  17.049  0.00  0.00    +0.000 A 
ATOM     14  C   UNL     1      -7.633  13.829  17.771  0.00  0.00    +0.000 A 
ATOM     15  O   UNL     1      -7.874  12.860  18.687  0.00  0.00    +0.000 OA
ATOM     16  C   UNL     1      -6.870  11.943  18.569  0.00  0.00    +0.000 A 
ATOM     17  C   UNL     1      -6.989  10.744  19.426  0.00  0.00    +0.000 C 
ENDBRANCH   6  12
BRANCH   1  18
ATOM     18  O   UNL     1       0.402  10.650  19.056  0.00  0.00    +0.000 OA
BRANCH  18  19
ATOM     19  C   UNL     1       1.060   9.743  18.179  0.00  0.00    +0.000 C 
BRANCH  19  21
ATOM     20  N   UNL     1       2.398   7.685  18.269  0.00  0.00    +0.000 N 
ATOM     21  C   UNL     1       1.727   8.643  19.004  0.00  0.00    +0.000 C 
ATOM     22  O   UNL     1       1.671   8.620  20.231  0.00  0.00    +0.000 OA
ATOM     23  H   UNL     1       2.385   7.729  17.258  0.00  0.00    +0.000 HD
BRANCH  20  24
ATOM     24  C   UNL     1       3.069   6.550  18.897  0.00  0.00    +0.000 C 
ATOM     25  C   UNL     1       2.032   5.682  19.615  0.00  0.00    +0.000 C 
BRANCH  24  29
ATOM     26  C   UNL     1       5.434   4.380  15.953  0.00  0.00    +0.000 A 
ATOM     27  C   UNL     1       4.551   3.727  16.807  0.00  0.00    +0.000 A 
ATOM     28  C   UNL     1       3.810   4.445  17.746  0.00  0.00    +0.000 A 
ATOM     29  C   UNL     1       3.953   5.838  17.879  0.00  0.00    +0.000 A 
ATOM     30  C   UNL     1       4.866   6.480  17.028  0.00  0.00    +0.000 A 
ATOM     31  C   UNL     1       5.601   5.760  16.070  0.00  0.00    +0.000 A 
BRANCH  26  33
ATOM     32  C   UNL     1       6.337   4.100  13.784  0.00  0.00    +0.000 C 
ATOM     33  O   UNL     1       6.104   3.566  15.083  0.00  0.00    +0.000 OA
ENDBRANCH  26  33
ENDBRANCH  24  29
ENDBRANCH  20  24
ENDBRANCH  19  21
ENDBRANCH  18  19
ENDBRANCH   1  18
TORSDOF 7
ENDMDL
MODEL 6
REMARK VINA RESULT:      -8.1      2.106      3.208
REMARK  Name = 
REMARK  12 active torsions:
REMARK  status: ('A' for Active; 'I' for Inactive)
REMARK    1  A    between atoms: C_1  and  O_2
REMARK    2  A    between atoms: O_2  and  C_3
REMARK    3  A    between atoms: C_6  and  C_7
REMARK    4  A    between atoms: C_7  and  C_8
REMARK    5  A    between atoms: C_7  and  N_9
REMARK    6  A    between atoms: C_10  and  C_12
REMARK    7  A    between atoms: C_12  and  O_13
REMARK    8  A    between atoms: O_13  and  C_14
REMARK    9  A    between atoms: C_16  and  C_17
REMARK   10  A    between atoms: C_19  and  C_20
REMARK   11  A    between atoms: C_24  and  C_25
REMARK   12  A    between atoms: N_27  and  C_28
REMARK                            x       y       z     vdW  Elec       q    Type
REMARK                         _______ _______ _______ _____ _____    ______ ____
ROOT
ATOM      1  C   UNL     1       1.510   7.134  20.434  0.00  0.00    +0.000 A 
ATOM      2  C   UNL     1       2.161   7.691  19.343  0.00  0.00    +0.000 A 
ATOM      3  C   UNL     1       3.088   6.933  18.596  0.00  0.00    +0.000 A 
ATOM      4  C   UNL     1       3.731   7.590  17.408  0.00  0.00    +0.000 C 
ATOM      5  C   UNL     1       3.338   5.614  19.055  0.00  0.00    +0.000 A 
ATOM      6  C   UNL     1       4.142   4.470  18.726  0.00  0.00    +0.000 A 
ATOM      7  N   UNL     1       3.895   3.422  19.530  0.00  0.00    +0.000 NA
ATOM      8  N   UNL     1       2.969   3.888  20.387  0.00  0.00    +0.000 N 
ATOM      9  C   UNL     1       2.449   3.035  21.427  0.00  0.00    +0.000 C 
ATOM     10  C   UNL     1       2.599   5.183  20.160  0.00  0.00    +0.000 A 
ATOM     11  N   UNL     1       1.695   5.879  20.882  0.00  0.00    +0.000 NA
ENDROOT
BRANCH   6  12
ATOM     12  C   UNL     1       5.112   4.348  17.632  0.00  0.00    +0.000 A 
ATOM     13  C   UNL     1       4.855   3.879  16.320  0.00  0.00    +0.000 A 
ATOM     14  C   UNL     1       6.064   3.854  15.669  0.00  0.00    +0.000 A 
ATOM     15  O   UNL     1       7.032   4.389  16.452  0.00  0.00    +0.000 OA
ATOM     16  C   UNL     1       6.440   4.738  17.632  0.00  0.00    +0.000 A 
ATOM     17  C   UNL     1       7.309   5.430  18.608  0.00  0.00    +0.000 C 
ENDBRANCH   6  12
BRANCH   1  18
ATOM     18  O   UNL     1       0.631   7.975  21.096  0.00  0.00    +0.000 OA
BRANCH  18  19
ATOM     19  C   UNL     1       1.286   8.975  21.868  0.00  0.00    +0.000 C 
BRANCH  19  21
ATOM     20  N   UNL     1      -0.488  10.390  20.928  0.00  0.00    +0.000 N 
ATOM     21  C   UNL     1       0.802  10.353  21.417  0.00  0.00    +0.000 C 
ATOM     22  O   UNL     1       1.514  11.353  21.492  0.00  0.00    +0.000 OA
ATOM     23  H   UNL     1      -1.021   9.533  20.854  0.00  0.00    +0.000 HD
BRANCH  20  24
ATOM     24  C   UNL     1      -1.098  11.621  20.431  0.00  0.00    +0.000 C 
ATOM     25  C   UNL     1      -1.539  11.417  18.979  0.00  0.00    +0.000 C 
BRANCH  24  29
ATOM     26  C   UNL     1      -4.318  12.931  23.054  0.00  0.00    +0.000 A 
ATOM     27  C   UNL     1      -4.384  13.100  21.675  0.00  0.00    +0.000 A 
ATOM     28  C   UNL     1      -3.336  12.677  20.857  0.00  0.00    +0.000 A 
ATOM     29  C   UNL     1      -2.174  12.099  21.400  0.00  0.00    +0.000 A 
ATOM     30  C   UNL     1      -2.111  11.957  22.795  0.00  0.00    +0.000 A 
ATOM     31  C   UNL     1      -3.174  12.367  23.618  0.00  0.00    +0.000 A 
BRANCH  26  33
ATOM     32  C   UNL     1      -5.699  14.775  23.596  0.00  0.00    +0.000 C 
ATOM     33  O   UNL     1      -5.405  13.390  23.745  0.00  0.00    +0.000 OA
ENDBRANCH  26  33
ENDBRANCH  24  29
ENDBRANCH  20  24
ENDBRANCH  19  21
ENDBRANCH  18  19
ENDBRANCH   1  18
TORSDOF 7
ENDMDL
MODEL 7
REMARK VINA RESULT:      -8.0      2.226      8.533
REMARK  Name = 
REMARK  12 active torsions:
REMARK  status: ('A' for Active; 'I' for Inactive)
REMARK    1  A    between atoms: C_1  and  O_2
REMARK    2  A    between atoms: O_2  and  C_3
REMARK    3  A    between atoms: C_6  and  C_7
REMARK    4  A    between atoms: C_7  and  C_8
REMARK    5  A    between atoms: C_7  and  N_9
REMARK    6  A    between atoms: C_10  and  C_12
REMARK    7  A    between atoms: C_12  and  O_13
REMARK    8  A    between atoms: O_13  and  C_14
REMARK    9  A    between atoms: C_16  and  C_17
REMARK   10  A    between atoms: C_19  and  C_20
REMARK   11  A    between atoms: C_24  and  C_25
REMARK   12  A    between atoms: N_27  and  C_28
REMARK                            x       y       z     vdW  Elec       q    Type
REMARK                         _______ _______ _______ _____ _____    ______ ____
ROOT
ATOM      1  C   UNL     1       1.697   6.543  20.843  0.00  0.00    +0.000 A 
ATOM      2  C   UNL     1       0.849   7.455  21.454  0.00  0.00    +0.000 A 
ATOM      3  C   UNL     1       0.580   8.702  20.852  0.00  0.00    +0.000 A 
ATOM      4  C   UNL     1      -0.372   9.627  21.554  0.00  0.00    +0.000 C 
ATOM      5  C   UNL     1       1.257   8.972  19.634  0.00  0.00    +0.000 A 
ATOM      6  C   UNL     1       1.379  10.013  18.652  0.00  0.00    +0.000 A 
ATOM      7  N   UNL     1       2.164   9.656  17.622  0.00  0.00    +0.000 NA
ATOM      8  N   UNL     1       2.571   8.415  17.945  0.00  0.00    +0.000 N 
ATOM      9  C   UNL     1       3.456   7.690  17.066  0.00  0.00    +0.000 C 
ATOM     10  C   UNL     1       2.070   7.954  19.129  0.00  0.00    +0.000 A 
ATOM     11  N   UNL     1       2.332   6.747  19.675  0.00  0.00    +0.000 NA
ENDROOT
BRANCH   6  12
ATOM     12  C   UNL     1       0.726  11.326  18.661  0.00  0.00    +0.000 A 
ATOM     13  C   UNL     1       1.360  12.586  18.793  0.00  0.00    +0.000 A 
ATOM     14  C   UNL     1       0.359  13.526  18.837  0.00  0.00    +0.000 A 
ATOM     15  O   UNL     1      -0.845  12.942  18.621  0.00  0.00    +0.000 OA
ATOM     16  C   UNL     1      -0.615  11.606  18.463  0.00  0.00    +0.000 A 
ATOM     17  C   UNL     1      -1.797  10.785  18.124  0.00  0.00    +0.000 C 
ENDBRANCH   6  12
BRANCH   1  18
ATOM     18  O   UNL     1       1.893   5.358  21.532  0.00  0.00    +0.000 OA
BRANCH  18  19
ATOM     19  C   UNL     1       1.391   4.219  20.844  0.00  0.00    +0.000 C 
BRANCH  19  21
ATOM     20  N   UNL     1       2.841   3.793  18.908  0.00  0.00    +0.000 N 
ATOM     21  C   UNL     1       2.558   3.457  20.217  0.00  0.00    +0.000 C 
ATOM     22  O   UNL     1       3.196   2.611  20.839  0.00  0.00    +0.000 OA
ATOM     23  H   UNL     1       2.263   4.471  18.428  0.00  0.00    +0.000 HD
BRANCH  20  24
ATOM     24  C   UNL     1       3.907   3.143  18.150  0.00  0.00    +0.000 C 
ATOM     25  C   UNL     1       3.290   2.227  17.090  0.00  0.00    +0.000 C 
BRANCH  24  29
ATOM     26  C   UNL     1       6.860   6.077  16.868  0.00  0.00    +0.000 A 
ATOM     27  C   UNL     1       6.581   5.859  18.213  0.00  0.00    +0.000 A 
ATOM     28  C   UNL     1       5.626   4.918  18.597  0.00  0.00    +0.000 A 
ATOM     29  C   UNL     1       4.898   4.186  17.642  0.00  0.00    +0.000 A 
ATOM     30  C   UNL     1       5.171   4.434  16.288  0.00  0.00    +0.000 A 
ATOM     31  C   UNL     1       6.146   5.369  15.901  0.00  0.00    +0.000 A 
BRANCH  26  33
ATOM     32  C   UNL     1       7.864   8.110  17.543  0.00  0.00    +0.000 C 
ATOM     33  O   UNL     1       7.811   7.027  16.621  0.00  0.00    +0.000 OA
ENDBRANCH  26  33
ENDBRANCH  24  29
ENDBRANCH  20  24
ENDBRANCH  19  21
ENDBRANCH  18  19
ENDBRANCH   1  18
TORSDOF 7
ENDMDL
MODEL 8
REMARK VINA RESULT:      -7.9      2.222      2.947
REMARK  Name = 
REMARK  12 active torsions:
REMARK  status: ('A' for Active; 'I' for Inactive)
REMARK    1  A    between atoms: C_1  and  O_2
REMARK    2  A    between atoms: O_2  and  C_3
REMARK    3  A    between atoms: C_6  and  C_7
REMARK    4  A    between atoms: C_7  and  C_8
REMARK    5  A    between atoms: C_7  and  N_9
REMARK    6  A    between atoms: C_10  and  C_12
REMARK    7  A    between atoms: C_12  and  O_13
REMARK    8  A    between atoms: O_13  and  C_14
REMARK    9  A    between atoms: C_16  and  C_17
REMARK   10  A    between atoms: C_19  and  C_20
REMARK   11  A    between atoms: C_24  and  C_25
REMARK   12  A    between atoms: N_27  and  C_28
REMARK                            x       y       z     vdW  Elec       q    Type
REMARK                         _______ _______ _______ _____ _____    ______ ____
ROOT
ATOM      1  C   UNL     1       1.865   7.542  19.681  0.00  0.00    +0.000 A 
ATOM      2  C   UNL     1       2.597   7.990  18.592  0.00  0.00    +0.000 A 
ATOM      3  C   UNL     1       3.554   7.154  17.977  0.00  0.00    +0.000 A 
ATOM      4  C   UNL     1       4.288   7.693  16.782  0.00  0.00    +0.000 C 
ATOM      5  C   UNL     1       3.745   5.877  18.564  0.00  0.00    +0.000 A 
ATOM      6  C   UNL     1       4.543   4.695  18.390  0.00  0.00    +0.000 A 
ATOM      7  N   UNL     1       4.221   3.726  19.263  0.00  0.00    +0.000 NA
ATOM      8  N   UNL     1       3.251   4.280  20.013  0.00  0.00    +0.000 N 
ATOM      9  C   UNL     1       2.646   3.531  21.087  0.00  0.00    +0.000 C 
ATOM     10  C   UNL     1       2.926   5.557  19.650  0.00  0.00    +0.000 A 
ATOM     11  N   UNL     1       1.993   6.328  20.248  0.00  0.00    +0.000 NA
ENDROOT
BRANCH   6  12
ATOM     12  C   UNL     1       5.578   4.461  17.378  0.00  0.00    +0.000 A 
ATOM     13  C   UNL     1       5.383   3.967  16.065  0.00  0.00    +0.000 A 
ATOM     14  C   UNL     1       6.632   3.827  15.509  0.00  0.00    +0.000 A 
ATOM     15  O   UNL     1       7.578   4.315  16.348  0.00  0.00    +0.000 OA
ATOM     16  C   UNL     1       6.929   4.749  17.468  0.00  0.00    +0.000 A 
ATOM     17  C   UNL     1       7.775   5.407  18.487  0.00  0.00    +0.000 C 
ENDBRANCH   6  12
BRANCH   1  18
ATOM     18  O   UNL     1       0.964   8.452  20.207  0.00  0.00    +0.000 OA
BRANCH  18  19
ATOM     19  C   UNL     1       0.760   8.294  21.607  0.00  0.00    +0.000 C 
BRANCH  19  21
ATOM     20  N   UNL     1       0.213  10.672  21.328  0.00  0.00    +0.000 N 
ATOM     21  C   UNL     1       0.478   9.661  22.230  0.00  0.00    +0.000 C 
ATOM     22  O   UNL     1       0.484   9.839  23.446  0.00  0.00    +0.000 OA
ATOM     23  H   UNL     1       0.255  10.483  20.335  0.00  0.00    +0.000 HD
BRANCH  20  24
ATOM     24  C   UNL     1      -0.051  12.045  21.752  0.00  0.00    +0.000 C 
ATOM     25  C   UNL     1       0.714  13.012  20.845  0.00  0.00    +0.000 C 
BRANCH  24  29
ATOM     26  C   UNL     1      -4.309  12.804  22.264  0.00  0.00    +0.000 A 
ATOM     27  C   UNL     1      -3.483  12.511  23.344  0.00  0.00    +0.000 A 
ATOM     28  C   UNL     1      -2.123  12.265  23.153  0.00  0.00    +0.000 A 
ATOM     29  C   UNL     1      -1.554  12.276  21.867  0.00  0.00    +0.000 A 
ATOM     30  C   UNL     1      -2.404  12.549  20.783  0.00  0.00    +0.000 A 
ATOM     31  C   UNL     1      -3.771  12.814  20.977  0.00  0.00    +0.000 A 
BRANCH  26  33
ATOM     32  C   UNL     1      -5.975  12.816  23.944  0.00  0.00    +0.000 C 
ATOM     33  O   UNL     1      -5.621  13.021  22.581  0.00  0.00    +0.000 OA
ENDBRANCH  26  33
ENDBRANCH  24  29
ENDBRANCH  20  24
ENDBRANCH  19  21
ENDBRANCH  18  19
ENDBRANCH   1  18
TORSDOF 7
ENDMDL
MODEL 9
REMARK VINA RESULT:      -7.9      0.734      1.116
REMARK  Name = 
REMARK  12 active torsions:
REMARK  status: ('A' for Active; 'I' for Inactive)
REMARK    1  A    between atoms: C_1  and  O_2
REMARK    2  A    between atoms: O_2  and  C_3
REMARK    3  A    between atoms: C_6  and  C_7
REMARK    4  A    between atoms: C_7  and  C_8
REMARK    5  A    between atoms: C_7  and  N_9
REMARK    6  A    between atoms: C_10  and  C_12
REMARK    7  A    between atoms: C_12  and  O_13
REMARK    8  A    between atoms: O_13  and  C_14
REMARK    9  A    between atoms: C_16  and  C_17
REMARK   10  A    between atoms: C_19  and  C_20
REMARK   11  A    between atoms: C_24  and  C_25
REMARK   12  A    between atoms: N_27  and  C_28
REMARK                            x       y       z     vdW  Elec       q    Type
REMARK                         _______ _______ _______ _____ _____    ______ ____
ROOT
ATOM      1  C   UNL     1       1.654   6.924  20.312  0.00  0.00    +0.000 A 
ATOM      2  C   UNL     1       2.303   7.538  19.251  0.00  0.00    +0.000 A 
ATOM      3  C   UNL     1       3.277   6.843  18.504  0.00  0.00    +0.000 A 
ATOM      4  C   UNL     1       3.916   7.560  17.349  0.00  0.00    +0.000 C 
ATOM      5  C   UNL     1       3.574   5.523  18.931  0.00  0.00    +0.000 A 
ATOM      6  C   UNL     1       4.433   4.423  18.588  0.00  0.00    +0.000 A 
ATOM      7  N   UNL     1       4.214   3.343  19.356  0.00  0.00    +0.000 NA
ATOM      8  N   UNL     1       3.251   3.744  20.205  0.00  0.00    +0.000 N 
ATOM      9  C   UNL     1       2.747   2.840  21.210  0.00  0.00    +0.000 C 
ATOM     10  C   UNL     1       2.831   5.029  20.007  0.00  0.00    +0.000 A 
ATOM     11  N   UNL     1       1.884   5.665  20.728  0.00  0.00    +0.000 NA
ENDROOT
BRANCH   6  12
ATOM     12  C   UNL     1       5.430   4.375  17.513  0.00  0.00    +0.000 A 
ATOM     13  C   UNL     1       5.216   3.947  16.179  0.00  0.00    +0.000 A 
ATOM     14  C   UNL     1       6.440   3.986  15.555  0.00  0.00    +0.000 A 
ATOM     15  O   UNL     1       7.372   4.522  16.379  0.00  0.00    +0.000 OA
ATOM     16  C   UNL     1       6.744   4.807  17.557  0.00  0.00    +0.000 A 
ATOM     17  C   UNL     1       7.568   5.490  18.578  0.00  0.00    +0.000 C 
ENDBRANCH   6  12
BRANCH   1  18
ATOM     18  O   UNL     1       0.726   7.707  20.977  0.00  0.00    +0.000 OA
BRANCH  18  19
ATOM     19  C   UNL     1       1.307   8.829  21.632  0.00  0.00    +0.000 C 
BRANCH  19  21
ATOM     20  N   UNL     1      -0.562  10.358  21.183  0.00  0.00    +0.000 N 
ATOM     21  C   UNL     1       0.783  10.112  20.988  0.00  0.00    +0.000 C 
ATOM     22  O   UNL     1       1.511  10.868  20.348  0.00  0.00    +0.000 OA
ATOM     23  H   UNL     1      -1.126   9.687  21.688  0.00  0.00    +0.000 HD
BRANCH  20  24
ATOM     24  C   UNL     1      -1.231  11.526  20.615  0.00  0.00    +0.000 C 
ATOM     25  C   UNL     1      -0.267  12.715  20.622  0.00  0.00    +0.000 C 
BRANCH  24  29
ATOM     26  C   UNL     1      -3.070  10.706  16.754  0.00  0.00    +0.000 A 
ATOM     27  C   UNL     1      -3.667  11.552  17.683  0.00  0.00    +0.000 A 
ATOM     28  C   UNL     1      -3.060  11.793  18.916  0.00  0.00    +0.000 A 
ATOM     29  C   UNL     1      -1.850  11.169  19.268  0.00  0.00    +0.000 A 
ATOM     30  C   UNL     1      -1.272  10.299  18.330  0.00  0.00    +0.000 A 
ATOM     31  C   UNL     1      -1.874  10.069  17.081  0.00  0.00    +0.000 A 
BRANCH  26  33
ATOM     32  C   UNL     1      -3.025  10.036  14.485  0.00  0.00    +0.000 C 
ATOM     33  O   UNL     1      -3.765  10.548  15.587  0.00  0.00    +0.000 OA
ENDBRANCH  26  33
ENDBRANCH  24  29
ENDBRANCH  20  24
ENDBRANCH  19  21
ENDBRANCH  18  19
ENDBRANCH   1  18
TORSDOF 7
ENDMDL
