MODEL 1
REMARK VINA RESULT:      -7.5      0.000      0.000
REMARK  Name = 
REMARK  11 active torsions:
REMARK  status: ('A' for Active; 'I' for Inactive)
REMARK    1  A    between atoms: C_1  and  C_2
REMARK    2  A    between atoms: C_2  and  C_3
REMARK    3  A    between atoms: C_7  and  C_8
REMARK    4  A    between atoms: C_8  and  C_9
REMARK    5  A    between atoms: C_10  and  N_11
REMARK    6  A    between atoms: C_12  and  S_13
REMARK    7  A    between atoms: S_13  and  C_14
REMARK    8  A    between atoms: C_14  and  C_15
REMARK    9  A    between atoms: N_20  and  C_21
REMARK   10  A    between atoms: C_21  and  C_22
REMARK   11  A    between atoms: C_29  and  C_30
REMARK                            x       y       z     vdW  Elec       q    Type
REMARK                         _______ _______ _______ _____ _____    ______ ____
ROOT
ATOM      1  N   UNL     1      -0.653  12.346  20.543  0.00  0.00    +0.000 N 
ATOM      2  C   UNL     1       0.143  11.314  21.079  0.00  0.00    +0.000 A 
ATOM      3  N   UNL     1       1.325  11.759  21.413  0.00  0.00    +0.000 NA
ATOM      4  N   UNL     1       1.376  13.078  21.107  0.00  0.00    +0.000 NA
ATOM      5  C   UNL     1       0.234  13.446  20.548  0.00  0.00    +0.000 A 
ENDROOT
BRANCH   1  11
ATOM      6  C   UNL     1      -3.087  12.863  20.891  0.00  0.00    +0.000 A 
ATOM      7  C   UNL     1      -4.417  12.785  20.430  0.00  0.00    +0.000 A 
ATOM      8  C   UNL     1      -4.749  12.133  19.254  0.00  0.00    +0.000 A 
ATOM      9  C   UNL     1      -3.745  11.568  18.478  0.00  0.00    +0.000 A 
ATOM     10  C   UNL     1      -2.384  11.654  18.836  0.00  0.00    +0.000 A 
ATOM     11  C   UNL     1      -2.035  12.309  20.076  0.00  0.00    +0.000 A 
BRANCH   6  13
ATOM     12  C   UNL     1      -2.717  12.719  23.498  0.00  0.00    +0.000 C 
ATOM     13  C   UNL     1      -2.888  13.554  22.233  0.00  0.00    +0.000 C 
ENDBRANCH   6  13
BRANCH  10  14
ATOM     14  C   UNL     1      -1.428  10.934  17.889  0.00  0.00    +0.000 C 
ATOM     15  C   UNL     1      -1.980  10.015  16.802  0.00  0.00    +0.000 C 
ENDBRANCH  10  14
ENDBRANCH   1  11
BRANCH   5  16
ATOM     16  C   UNL     1       0.024  14.821  20.081  0.00  0.00    +0.000 A 
ATOM     17  C   UNL     1      -0.184  15.185  18.750  0.00  0.00    +0.000 A 
ATOM     18  C   UNL     1      -0.552  16.498  18.438  0.00  0.00    +0.000 A 
ATOM     19  C   UNL     1      -0.648  17.424  19.464  0.00  0.00    +0.000 A 
ATOM     20  N   UNL     1      -0.390  17.133  20.754  0.00  0.00    +0.000 NA
ATOM     21  C   UNL     1      -0.054  15.848  21.029  0.00  0.00    +0.000 A 
ENDBRANCH   5  16
BRANCH   2  22
ATOM     22  S   UNL     1      -0.338   9.687  21.407  0.00  0.00    +0.000 S 
BRANCH  22  23
ATOM     23  C   UNL     1       1.153   8.697  21.621  0.00  0.00    +0.000 C 
BRANCH  23  24
ATOM     24  C   UNL     1       1.589   7.661  20.599  0.00  0.00    +0.000 C 
ATOM     25  O   UNL     1       1.936   8.034  19.473  0.00  0.00    +0.000 OA
ATOM     26  N   UNL     1       1.807   6.370  21.036  0.00  0.00    +0.000 N 
ATOM     27  C   UNL     1       2.211   5.280  20.296  0.00  0.00    +0.000 C 
ATOM     28  O   UNL     1       2.190   4.162  20.807  0.00  0.00    +0.000 OA
ATOM     29  N   UNL     1       2.615   5.514  19.014  0.00  0.00    +0.000 N 
ATOM     30  H   UNL     1       1.502   6.113  21.961  0.00  0.00    +0.000 HD
ATOM     31  H   UNL     1       2.731   6.483  18.725  0.00  0.00    +0.000 HD
BRANCH  29  32
ATOM     32  C   UNL     1       3.077   4.447  18.154  0.00  0.00    +0.000 C 
BRANCH  32  33
ATOM     33  C   UNL     1       4.097   4.922  17.178  0.00  0.00    +0.000 A 
ATOM     34  C   UNL     1       4.619   6.156  16.855  0.00  0.00    +0.000 A 
ATOM     35  C   UNL     1       5.490   5.953  15.755  0.00  0.00    +0.000 A 
ATOM     36  C   UNL     1       5.465   4.605  15.487  0.00  0.00    +0.000 A 
ATOM     37  O   UNL     1       4.623   3.971  16.347  0.00  0.00    +0.000 OA
ENDBRANCH  32  33
ENDBRANCH  29  32
ENDBRANCH  23  24
ENDBRANCH  22  23
ENDBRANCH   2  22
TORSDOF 9
ENDMDL
MODEL 2
REMARK VINA RESULT:      -7.4      0.910      2.496
REMARK  Name = 
REMARK  11 active torsions:
REMARK  status: ('A' for Active; 'I' for Inactive)
REMARK    1  A    between atoms: C_1  and  C_2
REMARK    2  A    between atoms: C_2  and  C_3
REMARK    3  A    between atoms: C_7  and  C_8
REMARK    4  A    between atoms: C_8  and  C_9
REMARK    5  A    between atoms: C_10  and  N_11
REMARK    6  A    between atoms: C_12  and  S_13
REMARK    7  A    between atoms: S_13  and  C_14
REMARK    8  A    between atoms: C_14  and  C_15
REMARK    9  A    between atoms: N_20  and  C_21
REMARK   10  A    between atoms: C_21  and  C_22
REMARK   11  A    between atoms: C_29  and  C_30
REMARK                            x       y       z     vdW  Elec       q    Type
REMARK                         _______ _______ _______ _____ _____    ______ ____
ROOT
ATOM      1  N   UNL     1      -0.552  12.155  20.574  0.00  0.00    +0.000 N 
ATOM      2  C   UNL     1       0.217  11.091  21.088  0.00  0.00    +0.000 A 
ATOM      3  N   UNL     1       1.430  11.486  21.375  0.00  0.00    +0.000 NA
ATOM      4  N   UNL     1       1.526  12.800  21.059  0.00  0.00    +0.000 NA
ATOM      5  C   UNL     1       0.382  13.215  20.540  0.00  0.00    +0.000 A 
ENDROOT
BRANCH   1  11
ATOM      6  C   UNL     1      -2.346  11.552  18.922  0.00  0.00    +0.000 A 
ATOM      7  C   UNL     1      -3.699  11.615  18.529  0.00  0.00    +0.000 A 
ATOM      8  C   UNL     1      -4.643  12.315  19.262  0.00  0.00    +0.000 A 
ATOM      9  C   UNL     1      -4.265  12.945  20.440  0.00  0.00    +0.000 A 
ATOM     10  C   UNL     1      -2.946  12.881  20.934  0.00  0.00    +0.000 A 
ATOM     11  C   UNL     1      -1.950  12.176  20.159  0.00  0.00    +0.000 A 
BRANCH   6  13
ATOM     12  C   UNL     1      -1.997   9.993  16.823  0.00  0.00    +0.000 C 
ATOM     13  C   UNL     1      -1.415  10.801  17.979  0.00  0.00    +0.000 C 
ENDBRANCH   6  13
BRANCH  10  14
ATOM     14  C   UNL     1      -2.705  13.674  22.216  0.00  0.00    +0.000 C 
ATOM     15  C   UNL     1      -3.070  15.156  22.276  0.00  0.00    +0.000 C 
ENDBRANCH  10  14
ENDBRANCH   1  11
BRANCH   5  16
ATOM     16  C   UNL     1       0.215  14.596  20.071  0.00  0.00    +0.000 A 
ATOM     17  C   UNL     1      -0.127  14.956  18.767  0.00  0.00    +0.000 A 
ATOM     18  C   UNL     1      -0.435  16.288  18.473  0.00  0.00    +0.000 A 
ATOM     19  C   UNL     1      -0.339  17.232  19.482  0.00  0.00    +0.000 A 
ATOM     20  N   UNL     1       0.053  16.940  20.738  0.00  0.00    +0.000 NA
ATOM     21  C   UNL     1       0.327  15.638  20.999  0.00  0.00    +0.000 A 
ENDBRANCH   5  16
BRANCH   2  22
ATOM     22  S   UNL     1      -0.322   9.489  21.444  0.00  0.00    +0.000 S 
BRANCH  22  23
ATOM     23  C   UNL     1       1.131   8.432  21.592  0.00  0.00    +0.000 C 
BRANCH  23  24
ATOM     24  C   UNL     1       1.724   7.703  20.398  0.00  0.00    +0.000 C 
ATOM     25  O   UNL     1       1.850   8.306  19.326  0.00  0.00    +0.000 OA
ATOM     26  N   UNL     1       2.316   6.476  20.615  0.00  0.00    +0.000 N 
ATOM     27  C   UNL     1       2.921   5.650  19.693  0.00  0.00    +0.000 C 
ATOM     28  O   UNL     1       3.245   4.510  20.024  0.00  0.00    +0.000 OA
ATOM     29  N   UNL     1       3.123   6.157  18.443  0.00  0.00    +0.000 N 
ATOM     30  H   UNL     1       2.180   6.022  21.505  0.00  0.00    +0.000 HD
ATOM     31  H   UNL     1       2.951   7.150  18.302  0.00  0.00    +0.000 HD
BRANCH  29  32
ATOM     32  C   UNL     1       3.766   5.383  17.403  0.00  0.00    +0.000 C 
BRANCH  32  33
ATOM     33  C   UNL     1       5.250   5.497  17.464  0.00  0.00    +0.000 A 
ATOM     34  C   UNL     1       6.128   6.539  17.671  0.00  0.00    +0.000 A 
ATOM     35  C   UNL     1       7.433   6.010  17.504  0.00  0.00    +0.000 A 
ATOM     36  C   UNL     1       7.273   4.673  17.226  0.00  0.00    +0.000 A 
ATOM     37  O   UNL     1       5.952   4.352  17.201  0.00  0.00    +0.000 OA
ENDBRANCH  32  33
ENDBRANCH  29  32
ENDBRANCH  23  24
ENDBRANCH  22  23
ENDBRANCH   2  22
TORSDOF 9
ENDMDL
MODEL 3
REMARK VINA RESULT:      -7.4      4.896      7.325
REMARK  Name = 
REMARK  11 active torsions:
REMARK  status: ('A' for Active; 'I' for Inactive)
REMARK    1  A    between atoms: C_1  and  C_2
REMARK    2  A    between atoms: C_2  and  C_3
REMARK    3  A    between atoms: C_7  and  C_8
REMARK    4  A    between atoms: C_8  and  C_9
REMARK    5  A    between atoms: C_10  and  N_11
REMARK    6  A    between atoms: C_12  and  S_13
REMARK    7  A    between atoms: S_13  and  C_14
REMARK    8  A    between atoms: C_14  and  C_15
REMARK    9  A    between atoms: N_20  and  C_21
REMARK   10  A    between atoms: C_21  and  C_22
REMARK   11  A    between atoms: C_29  and  C_30
REMARK                            x       y       z     vdW  Elec       q    Type
REMARK                         _______ _______ _______ _____ _____    ______ ____
ROOT
ATOM      1  N   UNL     1       0.226  12.274  19.783  0.00  0.00    +0.000 N 
ATOM      2  C   UNL     1       1.031  13.431  19.804  0.00  0.00    +0.000 A 
ATOM      3  N   UNL     1       0.564  14.342  18.992  0.00  0.00    +0.000 NA
ATOM      4  N   UNL     1      -0.542  13.839  18.393  0.00  0.00    +0.000 NA
ATOM      5  C   UNL     1      -0.744  12.598  18.808  0.00  0.00    +0.000 A 
ENDROOT
BRANCH   1  11
ATOM      6  C   UNL     1       0.964   9.878  19.952  0.00  0.00    +0.000 A 
ATOM      7  C   UNL     1       1.045   8.688  20.704  0.00  0.00    +0.000 A 
ATOM      8  C   UNL     1       0.494   8.582  21.970  0.00  0.00    +0.000 A 
ATOM      9  C   UNL     1      -0.125   9.686  22.541  0.00  0.00    +0.000 A 
ATOM     10  C   UNL     1      -0.196  10.930  21.882  0.00  0.00    +0.000 A 
ATOM     11  C   UNL     1       0.352  11.038  20.549  0.00  0.00    +0.000 A 
BRANCH   6  13
ATOM     12  C   UNL     1       1.827   8.469  17.896  0.00  0.00    +0.000 C 
ATOM     13  C   UNL     1       1.558   9.820  18.550  0.00  0.00    +0.000 C 
ENDBRANCH   6  13
BRANCH  10  14
ATOM     14  C   UNL     1      -0.955  12.014  22.642  0.00  0.00    +0.000 C 
ATOM     15  C   UNL     1      -2.440  12.240  22.367  0.00  0.00    +0.000 C 
ENDBRANCH  10  14
ENDBRANCH   1  11
BRANCH   5  16
ATOM     16  C   UNL     1      -1.858  11.794  18.291  0.00  0.00    +0.000 A 
ATOM     17  C   UNL     1      -1.722  10.723  17.406  0.00  0.00    +0.000 A 
ATOM     18  C   UNL     1      -2.827   9.915  17.120  0.00  0.00    +0.000 A 
ATOM     19  C   UNL     1      -4.050  10.235  17.685  0.00  0.00    +0.000 A 
ATOM     20  N   UNL     1      -4.242  11.299  18.490  0.00  0.00    +0.000 NA
ATOM     21  C   UNL     1      -3.149  12.054  18.765  0.00  0.00    +0.000 A 
ENDBRANCH   5  16
BRANCH   2  22
ATOM     22  S   UNL     1       2.390  13.739  20.826  0.00  0.00    +0.000 S 
BRANCH  22  23
ATOM     23  C   UNL     1       3.376  15.041  20.064  0.00  0.00    +0.000 C 
BRANCH  23  24
ATOM     24  C   UNL     1       4.894  14.984  20.020  0.00  0.00    +0.000 C 
ATOM     25  O   UNL     1       5.516  14.682  21.046  0.00  0.00    +0.000 OA
ATOM     26  N   UNL     1       5.511  15.038  18.787  0.00  0.00    +0.000 N 
ATOM     27  C   UNL     1       6.860  14.992  18.509  0.00  0.00    +0.000 C 
ATOM     28  O   UNL     1       7.250  15.226  17.367  0.00  0.00    +0.000 OA
ATOM     29  N   UNL     1       7.697  14.686  19.542  0.00  0.00    +0.000 N 
ATOM     30  H   UNL     1       4.962  15.292  17.981  0.00  0.00    +0.000 HD
ATOM     31  H   UNL     1       7.276  14.372  20.414  0.00  0.00    +0.000 HD
BRANCH  29  32
ATOM     32  C   UNL     1       9.129  14.592  19.359  0.00  0.00    +0.000 C 
BRANCH  32  33
ATOM     33  C   UNL     1       9.558  13.201  19.045  0.00  0.00    +0.000 A 
ATOM     34  C   UNL     1       9.099  12.221  18.191  0.00  0.00    +0.000 A 
ATOM     35  C   UNL     1       9.885  11.067  18.437  0.00  0.00    +0.000 A 
ATOM     36  C   UNL     1      10.789  11.418  19.412  0.00  0.00    +0.000 A 
ATOM     37  O   UNL     1      10.600  12.711  19.786  0.00  0.00    +0.000 OA
ENDBRANCH  32  33
ENDBRANCH  29  32
ENDBRANCH  23  24
ENDBRANCH  22  23
ENDBRANCH   2  22
TORSDOF 9
ENDMDL
MODEL 4
REMARK VINA RESULT:      -7.3      2.334      4.157
REMARK  Name = 
REMARK  11 active torsions:
REMARK  status: ('A' for Active; 'I' for Inactive)
REMARK    1  A    between atoms: C_1  and  C_2
REMARK    2  A    between atoms: C_2  and  C_3
REMARK    3  A    between atoms: C_7  and  C_8
REMARK    4  A    between atoms: C_8  and  C_9
REMARK    5  A    between atoms: C_10  and  N_11
REMARK    6  A    between atoms: C_12  and  S_13
REMARK    7  A    between atoms: S_13  and  C_14
REMARK    8  A    between atoms: C_14  and  C_15
REMARK    9  A    between atoms: N_20  and  C_21
REMARK   10  A    between atoms: C_21  and  C_22
REMARK   11  A    between atoms: C_29  and  C_30
REMARK                            x       y       z     vdW  Elec       q    Type
REMARK                         _______ _______ _______ _____ _____    ______ ____
ROOT
ATOM      1  N   UNL     1       0.074  11.018  20.943  0.00  0.00    +0.000 N 
ATOM      2  C   UNL     1       0.670   9.747  20.813  0.00  0.00    +0.000 A 
ATOM      3  N   UNL     1       0.379   8.986  21.836  0.00  0.00    +0.000 NA
ATOM      4  N   UNL     1      -0.395   9.706  22.683  0.00  0.00    +0.000 NA
ATOM      5  C   UNL     1      -0.557  10.929  22.204  0.00  0.00    +0.000 A 
ENDROOT
BRANCH   1  11
ATOM      6  C   UNL     1      -0.840  12.236  18.946  0.00  0.00    +0.000 A 
ATOM      7  C   UNL     1      -0.768  13.332  18.061  0.00  0.00    +0.000 A 
ATOM      8  C   UNL     1       0.222  14.295  18.164  0.00  0.00    +0.000 A 
ATOM      9  C   UNL     1       1.155  14.209  19.189  0.00  0.00    +0.000 A 
ATOM     10  C   UNL     1       1.118  13.180  20.151  0.00  0.00    +0.000 A 
ATOM     11  C   UNL     1       0.104  12.157  20.032  0.00  0.00    +0.000 A 
BRANCH   6  13
ATOM     12  C   UNL     1      -1.715  10.119  17.640  0.00  0.00    +0.000 C 
ATOM     13  C   UNL     1      -1.944  11.226  18.664  0.00  0.00    +0.000 C 
ENDBRANCH   6  13
BRANCH  10  14
ATOM     14  C   UNL     1       2.250  13.220  21.174  0.00  0.00    +0.000 C 
ATOM     15  C   UNL     1       3.480  14.088  20.915  0.00  0.00    +0.000 C 
ENDBRANCH  10  14
ENDBRANCH   1  11
BRANCH   5  16
ATOM     16  C   UNL     1      -1.326  11.939  22.940  0.00  0.00    +0.000 A 
ATOM     17  C   UNL     1      -0.915  13.257  23.144  0.00  0.00    +0.000 A 
ATOM     18  C   UNL     1      -1.803  14.182  23.702  0.00  0.00    +0.000 A 
ATOM     19  C   UNL     1      -3.060  13.748  24.091  0.00  0.00    +0.000 A 
ATOM     20  N   UNL     1      -3.474  12.471  23.976  0.00  0.00    +0.000 NA
ATOM     21  C   UNL     1      -2.599  11.600  23.414  0.00  0.00    +0.000 A 
ENDBRANCH   5  16
BRANCH   2  22
ATOM     22  S   UNL     1       1.567   9.146  19.464  0.00  0.00    +0.000 S 
BRANCH  22  23
ATOM     23  C   UNL     1       2.011   7.433  19.808  0.00  0.00    +0.000 C 
BRANCH  23  24
ATOM     24  C   UNL     1       3.138   6.728  19.072  0.00  0.00    +0.000 C 
ATOM     25  O   UNL     1       3.568   7.214  18.019  0.00  0.00    +0.000 OA
ATOM     26  N   UNL     1       3.797   5.705  19.721  0.00  0.00    +0.000 N 
ATOM     27  C   UNL     1       4.845   4.939  19.257  0.00  0.00    +0.000 C 
ATOM     28  O   UNL     1       5.202   3.952  19.898  0.00  0.00    +0.000 OA
ATOM     29  N   UNL     1       5.429   5.330  18.088  0.00  0.00    +0.000 N 
ATOM     30  H   UNL     1       3.404   5.339  20.574  0.00  0.00    +0.000 HD
ATOM     31  H   UNL     1       5.160   6.233  17.704  0.00  0.00    +0.000 HD
BRANCH  29  32
ATOM     32  C   UNL     1       6.548   4.611  17.519  0.00  0.00    +0.000 C 
BRANCH  32  33
ATOM     33  C   UNL     1       6.464   4.539  16.033  0.00  0.00    +0.000 A 
ATOM     34  C   UNL     1       5.688   3.824  15.146  0.00  0.00    +0.000 A 
ATOM     35  C   UNL     1       6.171   4.128  13.848  0.00  0.00    +0.000 A 
ATOM     36  C   UNL     1       7.198   5.026  14.020  0.00  0.00    +0.000 A 
ATOM     37  O   UNL     1       7.382   5.283  15.342  0.00  0.00    +0.000 OA
ENDBRANCH  32  33
ENDBRANCH  29  32
ENDBRANCH  23  24
ENDBRANCH  22  23
ENDBRANCH   2  22
TORSDOF 9
ENDMDL
MODEL 5
REMARK VINA RESULT:      -7.3      1.891      3.832
REMARK  Name = 
REMARK  11 active torsions:
REMARK  status: ('A' for Active; 'I' for Inactive)
REMARK    1  A    between atoms: C_1  and  C_2
REMARK    2  A    between atoms: C_2  and  C_3
REMARK    3  A    between atoms: C_7  and  C_8
REMARK    4  A    between atoms: C_8  and  C_9
REMARK    5  A    between atoms: C_10  and  N_11
REMARK    6  A    between atoms: C_12  and  S_13
REMARK    7  A    between atoms: S_13  and  C_14
REMARK    8  A    between atoms: C_14  and  C_15
REMARK    9  A    between atoms: N_20  and  C_21
REMARK   10  A    between atoms: C_21  and  C_22
REMARK   11  A    between atoms: C_29  and  C_30
REMARK                            x       y       z     vdW  Elec       q    Type
REMARK                         _______ _______ _______ _____ _____    ______ ____
ROOT
ATOM      1  N   UNL     1      -0.451  11.623  21.516  0.00  0.00    +0.000 N 
ATOM      2  C   UNL     1       0.184  10.387  21.753  0.00  0.00    +0.000 A 
ATOM      3  N   UNL     1      -0.221   9.861  22.879  0.00  0.00    +0.000 NA
ATOM      4  N   UNL     1      -1.114  10.712  23.439  0.00  0.00    +0.000 NA
ATOM      5  C   UNL     1      -1.238  11.787  22.677  0.00  0.00    +0.000 A 
ENDROOT
BRANCH   1  11
ATOM      6  C   UNL     1      -0.956  12.201  19.123  0.00  0.00    +0.000 A 
ATOM      7  C   UNL     1      -0.793  13.078  18.031  0.00  0.00    +0.000 A 
ATOM      8  C   UNL     1       0.005  14.207  18.110  0.00  0.00    +0.000 A 
ATOM      9  C   UNL     1       0.639  14.515  19.307  0.00  0.00    +0.000 A 
ATOM     10  C   UNL     1       0.482  13.723  20.462  0.00  0.00    +0.000 A 
ATOM     11  C   UNL     1      -0.327  12.528  20.378  0.00  0.00    +0.000 A 
BRANCH   6  13
ATOM     12  C   UNL     1      -1.550  10.112  17.628  0.00  0.00    +0.000 C 
ATOM     13  C   UNL     1      -1.810  10.967  18.863  0.00  0.00    +0.000 C 
ENDBRANCH   6  13
BRANCH  10  14
ATOM     14  C   UNL     1       1.292  14.187  21.670  0.00  0.00    +0.000 C 
ATOM     15  C   UNL     1       1.177  15.630  22.156  0.00  0.00    +0.000 C 
ENDBRANCH  10  14
ENDBRANCH   1  11
BRANCH   5  16
ATOM     16  C   UNL     1      -2.118  12.896  23.063  0.00  0.00    +0.000 A 
ATOM     17  C   UNL     1      -1.714  14.010  23.803  0.00  0.00    +0.000 A 
ATOM     18  C   UNL     1      -2.587  15.091  23.961  0.00  0.00    +0.000 A 
ATOM     19  C   UNL     1      -3.859  15.004  23.421  0.00  0.00    +0.000 A 
ATOM     20  N   UNL     1      -4.314  13.922  22.759  0.00  0.00    +0.000 NA
ATOM     21  C   UNL     1      -3.440  12.897  22.604  0.00  0.00    +0.000 A 
ENDBRANCH   5  16
BRANCH   2  22
ATOM     22  S   UNL     1       1.261   9.545  20.696  0.00  0.00    +0.000 S 
BRANCH  22  23
ATOM     23  C   UNL     1       1.164   7.787  21.086  0.00  0.00    +0.000 C 
BRANCH  23  24
ATOM     24  C   UNL     1       1.955   6.744  20.314  0.00  0.00    +0.000 C 
ATOM     25  O   UNL     1       2.589   7.090  19.310  0.00  0.00    +0.000 OA
ATOM     26  N   UNL     1       2.130   5.504  20.892  0.00  0.00    +0.000 N 
ATOM     27  C   UNL     1       2.813   4.419  20.385  0.00  0.00    +0.000 C 
ATOM     28  O   UNL     1       2.726   3.332  20.952  0.00  0.00    +0.000 OA
ATOM     29  N   UNL     1       3.556   4.624  19.259  0.00  0.00    +0.000 N 
ATOM     30  H   UNL     1       1.587   5.268  21.707  0.00  0.00    +0.000 HD
ATOM     31  H   UNL     1       3.680   5.583  18.943  0.00  0.00    +0.000 HD
BRANCH  29  32
ATOM     32  C   UNL     1       4.328   3.561  18.653  0.00  0.00    +0.000 C 
BRANCH  32  33
ATOM     33  C   UNL     1       5.460   4.089  17.842  0.00  0.00    +0.000 A 
ATOM     34  C   UNL     1       5.623   4.413  16.512  0.00  0.00    +0.000 A 
ATOM     35  C   UNL     1       6.985   4.768  16.345  0.00  0.00    +0.000 A 
ATOM     36  C   UNL     1       7.566   4.661  17.587  0.00  0.00    +0.000 A 
ATOM     37  O   UNL     1       6.648   4.251  18.502  0.00  0.00    +0.000 OA
ENDBRANCH  32  33
ENDBRANCH  29  32
ENDBRANCH  23  24
ENDBRANCH  22  23
ENDBRANCH   2  22
TORSDOF 9
ENDMDL
MODEL 6
REMARK VINA RESULT:      -7.3      1.070      2.636
REMARK  Name = 
REMARK  11 active torsions:
REMARK  status: ('A' for Active; 'I' for Inactive)
REMARK    1  A    between atoms: C_1  and  C_2
REMARK    2  A    between atoms: C_2  and  C_3
REMARK    3  A    between atoms: C_7  and  C_8
REMARK    4  A    between atoms: C_8  and  C_9
REMARK    5  A    between atoms: C_10  and  N_11
REMARK    6  A    between atoms: C_12  and  S_13
REMARK    7  A    between atoms: S_13  and  C_14
REMARK    8  A    between atoms: C_14  and  C_15
REMARK    9  A    between atoms: N_20  and  C_21
REMARK   10  A    between atoms: C_21  and  C_22
REMARK   11  A    between atoms: C_29  and  C_30
REMARK                            x       y       z     vdW  Elec       q    Type
REMARK                         _______ _______ _______ _____ _____    ______ ____
ROOT
ATOM      1  N   UNL     1      -0.789  12.338  20.796  0.00  0.00    +0.000 N 
ATOM      2  C   UNL     1       0.065  11.292  21.202  0.00  0.00    +0.000 A 
ATOM      3  N   UNL     1       1.291  11.720  21.352  0.00  0.00    +0.000 NA
ATOM      4  N   UNL     1       1.313  13.039  21.044  0.00  0.00    +0.000 NA
ATOM      5  C   UNL     1       0.104  13.425  20.668  0.00  0.00    +0.000 A 
ENDROOT
BRANCH   1  11
ATOM      6  C   UNL     1      -2.727  12.019  19.230  0.00  0.00    +0.000 A 
ATOM      7  C   UNL     1      -4.120  12.042  19.010  0.00  0.00    +0.000 A 
ATOM      8  C   UNL     1      -5.013  12.411  20.003  0.00  0.00    +0.000 A 
ATOM      9  C   UNL     1      -4.537  12.734  21.267  0.00  0.00    +0.000 A 
ATOM     10  C   UNL     1      -3.165  12.679  21.586  0.00  0.00    +0.000 A 
ATOM     11  C   UNL     1      -2.226  12.322  20.547  0.00  0.00    +0.000 A 
BRANCH   6  13
ATOM     12  C   UNL     1      -2.531  11.124  16.758  0.00  0.00    +0.000 C 
ATOM     13  C   UNL     1      -1.870  11.658  18.025  0.00  0.00    +0.000 C 
ENDBRANCH   6  13
BRANCH  10  14
ATOM     14  C   UNL     1      -2.823  13.114  23.009  0.00  0.00    +0.000 C 
ATOM     15  C   UNL     1      -3.922  13.195  24.066  0.00  0.00    +0.000 C 
ENDBRANCH  10  14
ENDBRANCH   1  11
BRANCH   5  16
ATOM     16  C   UNL     1      -0.155  14.805  20.241  0.00  0.00    +0.000 A 
ATOM     17  C   UNL     1      -0.766  15.780  21.032  0.00  0.00    +0.000 A 
ATOM     18  C   UNL     1      -0.801  17.107  20.594  0.00  0.00    +0.000 A 
ATOM     19  C   UNL     1      -0.272  17.413  19.351  0.00  0.00    +0.000 A 
ATOM     20  N   UNL     1       0.265  16.493  18.526  0.00  0.00    +0.000 NA
ATOM     21  C   UNL     1       0.303  15.217  18.984  0.00  0.00    +0.000 A 
ENDBRANCH   5  16
BRANCH   2  22
ATOM     22  S   UNL     1      -0.384   9.671  21.597  0.00  0.00    +0.000 S 
BRANCH  22  23
ATOM     23  C   UNL     1       1.123   8.689  21.715  0.00  0.00    +0.000 C 
BRANCH  23  24
ATOM     24  C   UNL     1       1.667   7.898  20.536  0.00  0.00    +0.000 C 
ATOM     25  O   UNL     1       1.844   8.473  19.456  0.00  0.00    +0.000 OA
ATOM     26  N   UNL     1       2.162   6.634  20.776  0.00  0.00    +0.000 N 
ATOM     27  C   UNL     1       2.708   5.749  19.871  0.00  0.00    +0.000 C 
ATOM     28  O   UNL     1       2.943   4.594  20.221  0.00  0.00    +0.000 OA
ATOM     29  N   UNL     1       2.955   6.220  18.614  0.00  0.00    +0.000 N 
ATOM     30  H   UNL     1       1.987   6.206  21.671  0.00  0.00    +0.000 HD
ATOM     31  H   UNL     1       2.860   7.221  18.457  0.00  0.00    +0.000 HD
BRANCH  29  32
ATOM     32  C   UNL     1       3.544   5.384  17.590  0.00  0.00    +0.000 C 
BRANCH  32  33
ATOM     33  C   UNL     1       5.021   5.559  17.512  0.00  0.00    +0.000 A 
ATOM     34  C   UNL     1       5.851   6.482  16.914  0.00  0.00    +0.000 A 
ATOM     35  C   UNL     1       7.179   6.030  17.123  0.00  0.00    +0.000 A 
ATOM     36  C   UNL     1       7.079   4.870  17.855  0.00  0.00    +0.000 A 
ATOM     37  O   UNL     1       5.774   4.577  18.097  0.00  0.00    +0.000 OA
ENDBRANCH  32  33
ENDBRANCH  29  32
ENDBRANCH  23  24
ENDBRANCH  22  23
ENDBRANCH   2  22
TORSDOF 9
ENDMDL
MODEL 7
REMARK VINA RESULT:      -7.3      0.742      1.050
REMARK  Name = 
REMARK  11 active torsions:
REMARK  status: ('A' for Active; 'I' for Inactive)
REMARK    1  A    between atoms: C_1  and  C_2
REMARK    2  A    between atoms: C_2  and  C_3
REMARK    3  A    between atoms: C_7  and  C_8
REMARK    4  A    between atoms: C_8  and  C_9
REMARK    5  A    between atoms: C_10  and  N_11
REMARK    6  A    between atoms: C_12  and  S_13
REMARK    7  A    between atoms: S_13  and  C_14
REMARK    8  A    between atoms: C_14  and  C_15
REMARK    9  A    between atoms: N_20  and  C_21
REMARK   10  A    between atoms: C_21  and  C_22
REMARK   11  A    between atoms: C_29  and  C_30
REMARK                            x       y       z     vdW  Elec       q    Type
REMARK                         _______ _______ _______ _____ _____    ______ ____
ROOT
ATOM      1  N   UNL     1      -0.591  12.520  20.892  0.00  0.00    +0.000 N 
ATOM      2  C   UNL     1       0.263  11.454  21.243  0.00  0.00    +0.000 A 
ATOM      3  N   UNL     1       1.503  11.859  21.334  0.00  0.00    +0.000 NA
ATOM      4  N   UNL     1       1.533  13.180  21.041  0.00  0.00    +0.000 NA
ATOM      5  C   UNL     1       0.314  13.593  20.731  0.00  0.00    +0.000 A 
ENDROOT
BRANCH   1  11
ATOM      6  C   UNL     1      -2.900  12.808  21.839  0.00  0.00    +0.000 A 
ATOM      7  C   UNL     1      -4.297  12.781  21.648  0.00  0.00    +0.000 A 
ATOM      8  C   UNL     1      -4.865  12.432  20.434  0.00  0.00    +0.000 A 
ATOM      9  C   UNL     1      -4.043  12.135  19.355  0.00  0.00    +0.000 A 
ATOM     10  C   UNL     1      -2.638  12.196  19.445  0.00  0.00    +0.000 A 
ATOM     11  C   UNL     1      -2.040  12.532  20.717  0.00  0.00    +0.000 A 
BRANCH   6  13
ATOM     12  C   UNL     1      -2.295  14.604  23.673  0.00  0.00    +0.000 C 
ATOM     13  C   UNL     1      -2.428  13.145  23.247  0.00  0.00    +0.000 C 
ENDBRANCH   6  13
BRANCH  10  14
ATOM     14  C   UNL     1      -1.898  11.789  18.173  0.00  0.00    +0.000 C 
ATOM     15  C   UNL     1      -1.996  10.354  17.660  0.00  0.00    +0.000 C 
ENDBRANCH  10  14
ENDBRANCH   1  11
BRANCH   5  16
ATOM     16  C   UNL     1       0.058  14.982  20.334  0.00  0.00    +0.000 A 
ATOM     17  C   UNL     1       0.108  16.077  21.198  0.00  0.00    +0.000 A 
ATOM     18  C   UNL     1       0.026  17.374  20.681  0.00  0.00    +0.000 A 
ATOM     19  C   UNL     1      -0.160  17.536  19.318  0.00  0.00    +0.000 A 
ATOM     20  N   UNL     1      -0.282  16.508  18.456  0.00  0.00    +0.000 NA
ATOM     21  C   UNL     1      -0.179  15.262  18.983  0.00  0.00    +0.000 A 
ENDBRANCH   5  16
BRANCH   2  22
ATOM     22  S   UNL     1      -0.194   9.836  21.641  0.00  0.00    +0.000 S 
BRANCH  22  23
ATOM     23  C   UNL     1       1.299   8.827  21.671  0.00  0.00    +0.000 C 
BRANCH  23  24
ATOM     24  C   UNL     1       1.612   7.815  20.581  0.00  0.00    +0.000 C 
ATOM     25  O   UNL     1       1.805   8.214  19.426  0.00  0.00    +0.000 OA
ATOM     26  N   UNL     1       1.902   6.521  20.959  0.00  0.00    +0.000 N 
ATOM     27  C   UNL     1       2.221   5.451  20.152  0.00  0.00    +0.000 C 
ATOM     28  O   UNL     1       2.281   4.323  20.639  0.00  0.00    +0.000 OA
ATOM     29  N   UNL     1       2.452   5.714  18.833  0.00  0.00    +0.000 N 
ATOM     30  H   UNL     1       1.723   6.242  21.911  0.00  0.00    +0.000 HD
ATOM     31  H   UNL     1       2.517   6.690  18.551  0.00  0.00    +0.000 HD
BRANCH  29  32
ATOM     32  C   UNL     1       2.813   4.670  17.900  0.00  0.00    +0.000 C 
BRANCH  32  33
ATOM     33  C   UNL     1       4.054   5.003  17.147  0.00  0.00    +0.000 A 
ATOM     34  C   UNL     1       4.665   6.180  16.770  0.00  0.00    +0.000 A 
ATOM     35  C   UNL     1       5.779   5.822  15.970  0.00  0.00    +0.000 A 
ATOM     36  C   UNL     1       5.793   4.447  15.924  0.00  0.00    +0.000 A 
ATOM     37  O   UNL     1       4.751   3.942  16.636  0.00  0.00    +0.000 OA
ENDBRANCH  32  33
ENDBRANCH  29  32
ENDBRANCH  23  24
ENDBRANCH  22  23
ENDBRANCH   2  22
TORSDOF 9
ENDMDL
MODEL 8
REMARK VINA RESULT:      -7.3      5.221      7.599
REMARK  Name = 
REMARK  11 active torsions:
REMARK  status: ('A' for Active; 'I' for Inactive)
REMARK    1  A    between atoms: C_1  and  C_2
REMARK    2  A    between atoms: C_2  and  C_3
REMARK    3  A    between atoms: C_7  and  C_8
REMARK    4  A    between atoms: C_8  and  C_9
REMARK    5  A    between atoms: C_10  and  N_11
REMARK    6  A    between atoms: C_12  and  S_13
REMARK    7  A    between atoms: S_13  and  C_14
REMARK    8  A    between atoms: C_14  and  C_15
REMARK    9  A    between atoms: N_20  and  C_21
REMARK   10  A    between atoms: C_21  and  C_22
REMARK   11  A    between atoms: C_29  and  C_30
REMARK                            x       y       z     vdW  Elec       q    Type
REMARK                         _______ _______ _______ _____ _____    ______ ____
ROOT
ATOM      1  N   UNL     1       0.218  12.361  19.756  0.00  0.00    +0.000 N 
ATOM      2  C   UNL     1       1.134  13.430  19.683  0.00  0.00    +0.000 A 
ATOM      3  N   UNL     1       0.670  14.394  18.932  0.00  0.00    +0.000 NA
ATOM      4  N   UNL     1      -0.543  14.013  18.467  0.00  0.00    +0.000 NA
ATOM      5  C   UNL     1      -0.821  12.794  18.901  0.00  0.00    +0.000 A 
ENDROOT
BRANCH   1  11
ATOM      6  C   UNL     1       0.835   9.929  19.867  0.00  0.00    +0.000 A 
ATOM      7  C   UNL     1       0.879   8.725  20.600  0.00  0.00    +0.000 A 
ATOM      8  C   UNL     1       0.368   8.629  21.884  0.00  0.00    +0.000 A 
ATOM      9  C   UNL     1      -0.172   9.755  22.491  0.00  0.00    +0.000 A 
ATOM     10  C   UNL     1      -0.200  11.010  21.850  0.00  0.00    +0.000 A 
ATOM     11  C   UNL     1       0.306  11.110  20.500  0.00  0.00    +0.000 A 
BRANCH   6  13
ATOM     12  C   UNL     1       2.251   8.685  18.022  0.00  0.00    +0.000 C 
ATOM     13  C   UNL     1       1.376   9.861  18.445  0.00  0.00    +0.000 C 
ENDBRANCH   6  13
BRANCH  10  14
ATOM     14  C   UNL     1      -0.874  12.121  22.652  0.00  0.00    +0.000 C 
ATOM     15  C   UNL     1      -2.355  12.011  23.009  0.00  0.00    +0.000 C 
ENDBRANCH  10  14
ENDBRANCH   1  11
BRANCH   5  16
ATOM     16  C   UNL     1      -2.064  12.114  18.519  0.00  0.00    +0.000 A 
ATOM     17  C   UNL     1      -3.250  12.156  19.253  0.00  0.00    +0.000 A 
ATOM     18  C   UNL     1      -4.423  11.624  18.708  0.00  0.00    +0.000 A 
ATOM     19  C   UNL     1      -4.363  11.014  17.465  0.00  0.00    +0.000 A 
ATOM     20  N   UNL     1      -3.226  10.891  16.752  0.00  0.00    +0.000 NA
ATOM     21  C   UNL     1      -2.108  11.434  17.297  0.00  0.00    +0.000 A 
ENDBRANCH   5  16
BRANCH   2  22
ATOM     22  S   UNL     1       2.627  13.587  20.539  0.00  0.00    +0.000 S 
BRANCH  22  23
ATOM     23  C   UNL     1       3.582  14.901  19.758  0.00  0.00    +0.000 C 
BRANCH  23  24
ATOM     24  C   UNL     1       5.082  15.037  19.956  0.00  0.00    +0.000 C 
ATOM     25  O   UNL     1       5.555  14.900  21.091  0.00  0.00    +0.000 OA
ATOM     26  N   UNL     1       5.885  15.072  18.835  0.00  0.00    +0.000 N 
ATOM     27  C   UNL     1       7.258  15.178  18.775  0.00  0.00    +0.000 C 
ATOM     28  O   UNL     1       7.802  15.370  17.690  0.00  0.00    +0.000 OA
ATOM     29  N   UNL     1       7.941  15.066  19.951  0.00  0.00    +0.000 N 
ATOM     30  H   UNL     1       5.452  15.189  17.932  0.00  0.00    +0.000 HD
ATOM     31  H   UNL     1       7.420  14.771  20.774  0.00  0.00    +0.000 HD
BRANCH  29  32
ATOM     32  C   UNL     1       9.385  15.144  20.003  0.00  0.00    +0.000 C 
BRANCH  32  33
ATOM     33  C   UNL     1      10.006  13.802  20.182  0.00  0.00    +0.000 A 
ATOM     34  C   UNL     1      11.252  13.274  19.917  0.00  0.00    +0.000 A 
ATOM     35  C   UNL     1      11.180  11.891  20.221  0.00  0.00    +0.000 A 
ATOM     36  C   UNL     1       9.902  11.663  20.674  0.00  0.00    +0.000 A 
ATOM     37  O   UNL     1       9.183  12.816  20.655  0.00  0.00    +0.000 OA
ENDBRANCH  32  33
ENDBRANCH  29  32
ENDBRANCH  23  24
ENDBRANCH  22  23
ENDBRANCH   2  22
TORSDOF 9
ENDMDL
MODEL 9
REMARK VINA RESULT:      -7.2      1.224      1.467
REMARK  Name = 
REMARK  11 active torsions:
REMARK  status: ('A' for Active; 'I' for Inactive)
REMARK    1  A    between atoms: C_1  and  C_2
REMARK    2  A    between atoms: C_2  and  C_3
REMARK    3  A    between atoms: C_7  and  C_8
REMARK    4  A    between atoms: C_8  and  C_9
REMARK    5  A    between atoms: C_10  and  N_11
REMARK    6  A    between atoms: C_12  and  S_13
REMARK    7  A    between atoms: S_13  and  C_14
REMARK    8  A    between atoms: C_14  and  C_15
REMARK    9  A    between atoms: N_20  and  C_21
REMARK   10  A    between atoms: C_21  and  C_22
REMARK   11  A    between atoms: C_29  and  C_30
REMARK                            x       y       z     vdW  Elec       q    Type
REMARK                         _______ _______ _______ _____ _____    ______ ____
ROOT
ATOM      1  N   UNL     1      -0.245  12.157  19.839  0.00  0.00    +0.000 N 
ATOM      2  C   UNL     1       0.448  10.931  19.895  0.00  0.00    +0.000 A 
ATOM      3  N   UNL     1       1.682  11.071  19.488  0.00  0.00    +0.000 NA
ATOM      4  N   UNL     1       1.860  12.367  19.136  0.00  0.00    +0.000 NA
ATOM      5  C   UNL     1       0.723  13.027  19.290  0.00  0.00    +0.000 A 
ENDROOT
BRANCH   1  11
ATOM      6  C   UNL     1      -1.896  12.988  21.541  0.00  0.00    +0.000 A 
ATOM      7  C   UNL     1      -3.235  13.250  21.899  0.00  0.00    +0.000 A 
ATOM      8  C   UNL     1      -4.291  12.960  21.051  0.00  0.00    +0.000 A 
ATOM      9  C   UNL     1      -4.034  12.430  19.794  0.00  0.00    +0.000 A 
ATOM     10  C   UNL     1      -2.722  12.194  19.335  0.00  0.00    +0.000 A 
ATOM     11  C   UNL     1      -1.617  12.468  20.226  0.00  0.00    +0.000 A 
BRANCH   6  13
ATOM     12  C   UNL     1      -0.297  14.714  22.731  0.00  0.00    +0.000 C 
ATOM     13  C   UNL     1      -0.851  13.299  22.603  0.00  0.00    +0.000 C 
ENDBRANCH   6  13
BRANCH  10  14
ATOM     14  C   UNL     1      -2.635  11.564  17.947  0.00  0.00    +0.000 C 
ATOM     15  C   UNL     1      -2.775  10.052  17.786  0.00  0.00    +0.000 C 
ENDBRANCH  10  14
ENDBRANCH   1  11
BRANCH   5  16
ATOM     16  C   UNL     1       0.616  14.450  18.946  0.00  0.00    +0.000 A 
ATOM     17  C   UNL     1      -0.578  15.173  18.919  0.00  0.00    +0.000 A 
ATOM     18  C   UNL     1      -0.544  16.561  18.755  0.00  0.00    +0.000 A 
ATOM     19  C   UNL     1       0.681  17.180  18.567  0.00  0.00    +0.000 A 
ATOM     20  N   UNL     1       1.851  16.514  18.518  0.00  0.00    +0.000 NA
ATOM     21  C   UNL     1       1.790  15.171  18.699  0.00  0.00    +0.000 A 
ENDBRANCH   5  16
BRANCH   2  22
ATOM     22  S   UNL     1      -0.134   9.429  20.522  0.00  0.00    +0.000 S 
BRANCH  22  23
ATOM     23  C   UNL     1       1.288   8.467  21.072  0.00  0.00    +0.000 C 
BRANCH  23  24
ATOM     24  C   UNL     1       1.914   7.385  20.207  0.00  0.00    +0.000 C 
ATOM     25  O   UNL     1       2.396   7.693  19.111  0.00  0.00    +0.000 OA
ATOM     26  N   UNL     1       2.133   6.147  20.774  0.00  0.00    +0.000 N 
ATOM     27  C   UNL     1       2.692   5.031  20.188  0.00  0.00    +0.000 C 
ATOM     28  O   UNL     1       2.655   3.955  20.782  0.00  0.00    +0.000 OA
ATOM     29  N   UNL     1       3.258   5.193  18.958  0.00  0.00    +0.000 N 
ATOM     30  H   UNL     1       1.715   5.941  21.667  0.00  0.00    +0.000 HD
ATOM     31  H   UNL     1       3.365   6.143  18.608  0.00  0.00    +0.000 HD
BRANCH  29  32
ATOM     32  C   UNL     1       3.890   4.095  18.260  0.00  0.00    +0.000 C 
BRANCH  32  33
ATOM     33  C   UNL     1       4.650   4.559  17.066  0.00  0.00    +0.000 A 
ATOM     34  C   UNL     1       4.882   5.790  16.491  0.00  0.00    +0.000 A 
ATOM     35  C   UNL     1       5.605   5.550  15.295  0.00  0.00    +0.000 A 
ATOM     36  C   UNL     1       5.789   4.189  15.224  0.00  0.00    +0.000 A 
ATOM     37  O   UNL     1       5.214   3.580  16.294  0.00  0.00    +0.000 OA
ENDBRANCH  32  33
ENDBRANCH  29  32
ENDBRANCH  23  24
ENDBRANCH  22  23
ENDBRANCH   2  22
TORSDOF 9
ENDMDL
