MODEL 1
REMARK VINA RESULT:      -7.2      0.000      0.000
REMARK  Name = 
REMARK  9 active torsions:
REMARK  status: ('A' for Active; 'I' for Inactive)
REMARK    1  A    between atoms: C_1  and  C_2
REMARK    2  A    between atoms: C_4  and  C_5
REMARK    3  A    between atoms: C_17  and  C_18
REMARK    4  A    between atoms: C_19  and  N_20
REMARK    5  A    between atoms: C_21  and  C_23
REMARK    6  A    between atoms: C_23  and  C_24
REMARK    7  A    between atoms: C_24  and  N_25
REMARK    8  A    between atoms: N_25  and  C_26
REMARK    9  A    between atoms: N_25  and  C_27
REMARK                            x       y       z     vdW  Elec       q    Type
REMARK                         _______ _______ _______ _____ _____    ______ ____
ROOT
ATOM      1  C   UNL     1       7.197   5.600  18.091  0.00  0.00    +0.000 C 
ATOM      2  C   UNL     1       5.718   5.493  18.164  0.00  0.00    +0.000 A 
ATOM      3  N   UNL     1       5.005   6.159  19.130  0.00  0.00    +0.000 N 
ATOM      4  C   UNL     1       3.664   5.919  18.978  0.00  0.00    +0.000 A 
ATOM      5  C   UNL     1       3.503   5.030  17.928  0.00  0.00    +0.000 A 
ATOM      6  C   UNL     1       2.211   4.597  17.330  0.00  0.00    +0.000 C 
ATOM      7  C   UNL     1       4.813   4.748  17.433  0.00  0.00    +0.000 A 
ATOM      8  H   UNL     1       5.410   6.777  19.820  0.00  0.00    +0.000 HD
ENDROOT
BRANCH   4   9
ATOM      9  C   UNL     1       2.761   6.594  19.828  0.00  0.00    +0.000 C 
ATOM     10  C   UNL     1       2.174   7.751  19.486  0.00  0.00    +0.000 C 
ATOM     11  C   UNL     1       2.354   8.547  18.211  0.00  0.00    +0.000 C 
ATOM     12  O   UNL     1       3.116   8.360  17.289  0.00  0.00    +0.000 OA
ATOM     13  N   UNL     1       1.461   9.604  18.325  0.00  0.00    +0.000 N 
ATOM     14  C   UNL     1       0.774   9.570  19.531  0.00  0.00    +0.000 A 
ATOM     15  C   UNL     1      -0.167  10.481  19.966  0.00  0.00    +0.000 A 
ATOM     16  C   UNL     1      -0.724  10.266  21.227  0.00  0.00    +0.000 A 
ATOM     17  C   UNL     1      -0.326   9.162  21.998  0.00  0.00    +0.000 A 
ATOM     18  F   UNL     1      -0.873   8.988  23.208  0.00  0.00    +0.000 F 
ATOM     19  C   UNL     1       0.625   8.248  21.544  0.00  0.00    +0.000 A 
ATOM     20  C   UNL     1       1.173   8.464  20.293  0.00  0.00    +0.000 A 
ATOM     21  H   UNL     1       1.366  10.302  17.604  0.00  0.00    +0.000 HD
ENDBRANCH   4   9
BRANCH   7  22
ATOM     22  N   UNL     1       5.178   3.977  16.351  0.00  0.00    +0.000 N 
ATOM     23  C   UNL     1       5.678   4.451  15.160  0.00  0.00    +0.000 C 
ATOM     24  O   UNL     1       5.671   5.627  14.798  0.00  0.00    +0.000 OA
ATOM     25  H   UNL     1       5.039   2.974  16.443  0.00  0.00    +0.000 HD
BRANCH  23  26
ATOM     26  C   UNL     1       6.118   3.363  14.195  0.00  0.00    +0.000 C 
BRANCH  26  27
ATOM     27  C   UNL     1       5.857   3.681  12.721  0.00  0.00    +0.000 C 
BRANCH  27  28
ATOM     28  N   UNL     1       5.058   2.663  12.004  0.00  0.00    +0.000 NA
ATOM     29  C   UNL     1       4.067   3.246  11.098  0.00  0.00    +0.000 C 
ATOM     30  C   UNL     1       5.951   1.769  11.259  0.00  0.00    +0.000 C 
ENDBRANCH  27  28
ENDBRANCH  26  27
ENDBRANCH  23  26
ENDBRANCH   7  22
TORSDOF 5
ENDMDL
MODEL 2
REMARK VINA RESULT:      -7.1      4.598      9.947
REMARK  Name = 
REMARK  9 active torsions:
REMARK  status: ('A' for Active; 'I' for Inactive)
REMARK    1  A    between atoms: C_1  and  C_2
REMARK    2  A    between atoms: C_4  and  C_5
REMARK    3  A    between atoms: C_17  and  C_18
REMARK    4  A    between atoms: C_19  and  N_20
REMARK    5  A    between atoms: C_21  and  C_23
REMARK    6  A    between atoms: C_23  and  C_24
REMARK    7  A    between atoms: C_24  and  N_25
REMARK    8  A    between atoms: N_25  and  C_26
REMARK    9  A    between atoms: N_25  and  C_27
REMARK                            x       y       z     vdW  Elec       q    Type
REMARK                         _______ _______ _______ _____ _____    ______ ____
ROOT
ATOM      1  C   UNL     1       0.616  13.744  21.380  0.00  0.00    +0.000 C 
ATOM      2  C   UNL     1       0.265  12.621  20.475  0.00  0.00    +0.000 A 
ATOM      3  N   UNL     1       1.233  11.799  19.954  0.00  0.00    +0.000 N 
ATOM      4  C   UNL     1       0.660  10.832  19.169  0.00  0.00    +0.000 A 
ATOM      5  C   UNL     1      -0.704  11.065  19.128  0.00  0.00    +0.000 A 
ATOM      6  C   UNL     1      -1.730  10.185  18.502  0.00  0.00    +0.000 C 
ATOM      7  C   UNL     1      -0.942  12.215  19.940  0.00  0.00    +0.000 A 
ATOM      8  H   UNL     1       2.220  11.867  20.163  0.00  0.00    +0.000 HD
ENDROOT
BRANCH   4   9
ATOM      9  C   UNL     1       1.495   9.835  18.618  0.00  0.00    +0.000 C 
ATOM     10  C   UNL     1       1.779   8.693  19.262  0.00  0.00    +0.000 C 
ATOM     11  C   UNL     1       1.320   8.260  20.637  0.00  0.00    +0.000 C 
ATOM     12  O   UNL     1       0.687   8.875  21.467  0.00  0.00    +0.000 OA
ATOM     13  N   UNL     1       1.820   6.973  20.789  0.00  0.00    +0.000 N 
ATOM     14  C   UNL     1       2.556   6.574  19.681  0.00  0.00    +0.000 A 
ATOM     15  C   UNL     1       3.204   5.366  19.517  0.00  0.00    +0.000 A 
ATOM     16  C   UNL     1       3.906   5.178  18.326  0.00  0.00    +0.000 A 
ATOM     17  C   UNL     1       3.937   6.191  17.355  0.00  0.00    +0.000 A 
ATOM     18  F   UNL     1       4.626   5.983  16.225  0.00  0.00    +0.000 F 
ATOM     19  C   UNL     1       3.275   7.406  17.534  0.00  0.00    +0.000 A 
ATOM     20  C   UNL     1       2.578   7.587  18.714  0.00  0.00    +0.000 A 
ATOM     21  H   UNL     1       1.660   6.433  21.625  0.00  0.00    +0.000 HD
ENDBRANCH   4   9
BRANCH   7  22
ATOM     22  N   UNL     1      -2.144  12.800  20.274  0.00  0.00    +0.000 N 
ATOM     23  C   UNL     1      -2.747  12.747  21.510  0.00  0.00    +0.000 C 
ATOM     24  O   UNL     1      -2.425  11.999  22.432  0.00  0.00    +0.000 OA
ATOM     25  H   UNL     1      -2.631  13.292  19.528  0.00  0.00    +0.000 HD
BRANCH  23  26
ATOM     26  C   UNL     1      -4.003  13.595  21.624  0.00  0.00    +0.000 C 
BRANCH  26  27
ATOM     27  C   UNL     1      -4.924  13.531  20.403  0.00  0.00    +0.000 C 
BRANCH  27  28
ATOM     28  N   UNL     1      -5.413  12.175  20.074  0.00  0.00    +0.000 NA
ATOM     29  C   UNL     1      -6.806  11.956  20.468  0.00  0.00    +0.000 C 
ATOM     30  C   UNL     1      -5.257  11.928  18.636  0.00  0.00    +0.000 C 
ENDBRANCH  27  28
ENDBRANCH  26  27
ENDBRANCH  23  26
ENDBRANCH   7  22
TORSDOF 5
ENDMDL
MODEL 3
REMARK VINA RESULT:      -7.0      1.156      1.763
REMARK  Name = 
REMARK  9 active torsions:
REMARK  status: ('A' for Active; 'I' for Inactive)
REMARK    1  A    between atoms: C_1  and  C_2
REMARK    2  A    between atoms: C_4  and  C_5
REMARK    3  A    between atoms: C_17  and  C_18
REMARK    4  A    between atoms: C_19  and  N_20
REMARK    5  A    between atoms: C_21  and  C_23
REMARK    6  A    between atoms: C_23  and  C_24
REMARK    7  A    between atoms: C_24  and  N_25
REMARK    8  A    between atoms: N_25  and  C_26
REMARK    9  A    between atoms: N_25  and  C_27
REMARK                            x       y       z     vdW  Elec       q    Type
REMARK                         _______ _______ _______ _____ _____    ______ ____
ROOT
ATOM      1  C   UNL     1       2.550   2.701  17.045  0.00  0.00    +0.000 C 
ATOM      2  C   UNL     1       3.041   3.989  17.596  0.00  0.00    +0.000 A 
ATOM      3  N   UNL     1       2.293   4.707  18.497  0.00  0.00    +0.000 N 
ATOM      4  C   UNL     1       2.965   5.842  18.870  0.00  0.00    +0.000 A 
ATOM      5  C   UNL     1       4.148   5.897  18.153  0.00  0.00    +0.000 A 
ATOM      6  C   UNL     1       5.245   6.887  18.336  0.00  0.00    +0.000 C 
ATOM      7  C   UNL     1       4.176   4.729  17.331  0.00  0.00    +0.000 A 
ATOM      8  H   UNL     1       1.401   4.412  18.869  0.00  0.00    +0.000 HD
ENDROOT
BRANCH   4   9
ATOM      9  C   UNL     1       2.391   6.665  19.864  0.00  0.00    +0.000 C 
ATOM     10  C   UNL     1       1.900   7.885  19.598  0.00  0.00    +0.000 C 
ATOM     11  C   UNL     1       1.876   8.611  18.271  0.00  0.00    +0.000 C 
ATOM     12  O   UNL     1       2.363   8.290  17.209  0.00  0.00    +0.000 OA
ATOM     13  N   UNL     1       1.186   9.790  18.524  0.00  0.00    +0.000 N 
ATOM     14  C   UNL     1       0.809   9.888  19.857  0.00  0.00    +0.000 A 
ATOM     15  C   UNL     1       0.131  10.938  20.443  0.00  0.00    +0.000 A 
ATOM     16  C   UNL     1      -0.132  10.840  21.809  0.00  0.00    +0.000 A 
ATOM     17  C   UNL     1       0.287   9.712  22.533  0.00  0.00    +0.000 A 
ATOM     18  F   UNL     1       0.026   9.652  23.845  0.00  0.00    +0.000 F 
ATOM     19  C   UNL     1       0.969   8.658  21.926  0.00  0.00    +0.000 A 
ATOM     20  C   UNL     1       1.226   8.757  20.571  0.00  0.00    +0.000 A 
ATOM     21  H   UNL     1       1.016  10.474  17.804  0.00  0.00    +0.000 HD
ENDBRANCH   4   9
BRANCH   7  22
ATOM     22  N   UNL     1       5.176   4.292  16.489  0.00  0.00    +0.000 N 
ATOM     23  C   UNL     1       5.708   5.003  15.438  0.00  0.00    +0.000 C 
ATOM     24  O   UNL     1       5.235   6.032  14.957  0.00  0.00    +0.000 OA
ATOM     25  H   UNL     1       5.526   3.351  16.652  0.00  0.00    +0.000 HD
BRANCH  23  26
ATOM     26  C   UNL     1       6.890   4.324  14.765  0.00  0.00    +0.000 C 
BRANCH  26  27
ATOM     27  C   UNL     1       6.836   4.331  13.235  0.00  0.00    +0.000 C 
BRANCH  27  28
ATOM     28  N   UNL     1       6.089   3.201  12.642  0.00  0.00    +0.000 NA
ATOM     29  C   UNL     1       4.779   3.591  12.118  0.00  0.00    +0.000 C 
ATOM     30  C   UNL     1       6.889   2.585  11.577  0.00  0.00    +0.000 C 
ENDBRANCH  27  28
ENDBRANCH  26  27
ENDBRANCH  23  26
ENDBRANCH   7  22
TORSDOF 5
ENDMDL
MODEL 4
REMARK VINA RESULT:      -7.0      3.452      9.025
REMARK  Name = 
REMARK  9 active torsions:
REMARK  status: ('A' for Active; 'I' for Inactive)
REMARK    1  A    between atoms: C_1  and  C_2
REMARK    2  A    between atoms: C_4  and  C_5
REMARK    3  A    between atoms: C_17  and  C_18
REMARK    4  A    between atoms: C_19  and  N_20
REMARK    5  A    between atoms: C_21  and  C_23
REMARK    6  A    between atoms: C_23  and  C_24
REMARK    7  A    between atoms: C_24  and  N_25
REMARK    8  A    between atoms: N_25  and  C_26
REMARK    9  A    between atoms: N_25  and  C_27
REMARK                            x       y       z     vdW  Elec       q    Type
REMARK                         _______ _______ _______ _____ _____    ______ ____
ROOT
ATOM      1  C   UNL     1       2.604   3.869  21.059  0.00  0.00    +0.000 C 
ATOM      2  C   UNL     1       2.934   4.699  19.872  0.00  0.00    +0.000 A 
ATOM      3  N   UNL     1       3.371   4.125  18.704  0.00  0.00    +0.000 N 
ATOM      4  C   UNL     1       3.589   5.092  17.756  0.00  0.00    +0.000 A 
ATOM      5  C   UNL     1       3.346   6.325  18.336  0.00  0.00    +0.000 A 
ATOM      6  C   UNL     1       3.330   7.640  17.637  0.00  0.00    +0.000 C 
ATOM      7  C   UNL     1       2.953   6.067  19.685  0.00  0.00    +0.000 A 
ATOM      8  H   UNL     1       3.468   3.131  18.552  0.00  0.00    +0.000 HD
ENDROOT
BRANCH   4   9
ATOM      9  C   UNL     1       3.957   4.683  16.455  0.00  0.00    +0.000 C 
ATOM     10  C   UNL     1       5.157   4.962  15.923  0.00  0.00    +0.000 C 
ATOM     11  C   UNL     1       6.295   5.742  16.544  0.00  0.00    +0.000 C 
ATOM     12  O   UNL     1       6.331   6.344  17.595  0.00  0.00    +0.000 OA
ATOM     13  N   UNL     1       7.326   5.664  15.618  0.00  0.00    +0.000 N 
ATOM     14  C   UNL     1       6.948   4.953  14.487  0.00  0.00    +0.000 A 
ATOM     15  C   UNL     1       7.726   4.708  13.373  0.00  0.00    +0.000 A 
ATOM     16  C   UNL     1       7.139   3.983  12.335  0.00  0.00    +0.000 A 
ATOM     17  C   UNL     1       5.813   3.535  12.446  0.00  0.00    +0.000 A 
ATOM     18  F   UNL     1       5.275   2.848  11.429  0.00  0.00    +0.000 F 
ATOM     19  C   UNL     1       5.040   3.788  13.580  0.00  0.00    +0.000 A 
ATOM     20  C   UNL     1       5.626   4.504  14.607  0.00  0.00    +0.000 A 
ATOM     21  H   UNL     1       8.221   6.100  15.777  0.00  0.00    +0.000 HD
ENDBRANCH   4   9
BRANCH   7  22
ATOM     22  N   UNL     1       2.539   6.962  20.648  0.00  0.00    +0.000 N 
ATOM     23  C   UNL     1       1.581   7.934  20.481  0.00  0.00    +0.000 C 
ATOM     24  O   UNL     1       1.109   8.298  19.404  0.00  0.00    +0.000 OA
ATOM     25  H   UNL     1       3.007   6.903  21.550  0.00  0.00    +0.000 HD
BRANCH  23  26
ATOM     26  C   UNL     1       1.234   8.689  21.754  0.00  0.00    +0.000 C 
BRANCH  26  27
ATOM     27  C   UNL     1      -0.179   9.277  21.776  0.00  0.00    +0.000 C 
BRANCH  27  28
ATOM     28  N   UNL     1      -0.237  10.743  21.592  0.00  0.00    +0.000 NA
ATOM     29  C   UNL     1      -0.934  11.140  20.367  0.00  0.00    +0.000 C 
ATOM     30  C   UNL     1      -0.882  11.362  22.756  0.00  0.00    +0.000 C 
ENDBRANCH  27  28
ENDBRANCH  26  27
ENDBRANCH  23  26
ENDBRANCH   7  22
TORSDOF 5
ENDMDL
MODEL 5
REMARK VINA RESULT:      -7.0      4.565      9.919
REMARK  Name = 
REMARK  9 active torsions:
REMARK  status: ('A' for Active; 'I' for Inactive)
REMARK    1  A    between atoms: C_1  and  C_2
REMARK    2  A    between atoms: C_4  and  C_5
REMARK    3  A    between atoms: C_17  and  C_18
REMARK    4  A    between atoms: C_19  and  N_20
REMARK    5  A    between atoms: C_21  and  C_23
REMARK    6  A    between atoms: C_23  and  C_24
REMARK    7  A    between atoms: C_24  and  N_25
REMARK    8  A    between atoms: N_25  and  C_26
REMARK    9  A    between atoms: N_25  and  C_27
REMARK                            x       y       z     vdW  Elec       q    Type
REMARK                         _______ _______ _______ _____ _____    ______ ____
ROOT
ATOM      1  C   UNL     1      -2.950  11.455  17.757  0.00  0.00    +0.000 C 
ATOM      2  C   UNL     1      -1.500  11.435  18.076  0.00  0.00    +0.000 A 
ATOM      3  N   UNL     1      -0.727  10.334  17.801  0.00  0.00    +0.000 N 
ATOM      4  C   UNL     1       0.573  10.566  18.167  0.00  0.00    +0.000 A 
ATOM      5  C   UNL     1       0.639  11.821  18.749  0.00  0.00    +0.000 A 
ATOM      6  C   UNL     1       1.876  12.534  19.171  0.00  0.00    +0.000 C 
ATOM      7  C   UNL     1      -0.685  12.355  18.707  0.00  0.00    +0.000 A 
ATOM      8  H   UNL     1      -1.061   9.496  17.346  0.00  0.00    +0.000 HD
ENDROOT
BRANCH   4   9
ATOM      9  C   UNL     1       1.538   9.577  17.876  0.00  0.00    +0.000 C 
ATOM     10  C   UNL     1       1.847   8.593  18.735  0.00  0.00    +0.000 C 
ATOM     11  C   UNL     1       1.286   8.354  20.120  0.00  0.00    +0.000 C 
ATOM     12  O   UNL     1       0.523   9.036  20.769  0.00  0.00    +0.000 OA
ATOM     13  N   UNL     1       1.871   7.167  20.539  0.00  0.00    +0.000 N 
ATOM     14  C   UNL     1       2.747   6.662  19.588  0.00  0.00    +0.000 A 
ATOM     15  C   UNL     1       3.505   5.513  19.697  0.00  0.00    +0.000 A 
ATOM     16  C   UNL     1       4.339   5.197  18.624  0.00  0.00    +0.000 A 
ATOM     17  C   UNL     1       4.387   6.031  17.495  0.00  0.00    +0.000 A 
ATOM     18  F   UNL     1       5.204   5.705  16.485  0.00  0.00    +0.000 F 
ATOM     19  C   UNL     1       3.613   7.188  17.398  0.00  0.00    +0.000 A 
ATOM     20  C   UNL     1       2.786   7.495  18.463  0.00  0.00    +0.000 A 
ATOM     21  H   UNL     1       1.671   6.762  21.440  0.00  0.00    +0.000 HD
ENDBRANCH   4   9
BRANCH   7  22
ATOM     22  N   UNL     1      -1.125  13.601  19.098  0.00  0.00    +0.000 N 
ATOM     23  C   UNL     1      -1.358  14.000  20.394  0.00  0.00    +0.000 C 
ATOM     24  O   UNL     1      -1.423  13.256  21.372  0.00  0.00    +0.000 OA
ATOM     25  H   UNL     1      -1.313  14.268  18.354  0.00  0.00    +0.000 HD
BRANCH  23  26
ATOM     26  C   UNL     1      -1.711  15.472  20.536  0.00  0.00    +0.000 C 
BRANCH  26  27
ATOM     27  C   UNL     1      -0.503  16.400  20.689  0.00  0.00    +0.000 C 
BRANCH  27  28
ATOM     28  N   UNL     1       0.656  16.044  19.843  0.00  0.00    +0.000 NA
ATOM     29  C   UNL     1       0.659  16.738  18.554  0.00  0.00    +0.000 C 
ATOM     30  C   UNL     1       1.901  16.328  20.566  0.00  0.00    +0.000 C 
ENDBRANCH  27  28
ENDBRANCH  26  27
ENDBRANCH  23  26
ENDBRANCH   7  22
TORSDOF 5
ENDMDL
MODEL 6
REMARK VINA RESULT:      -6.9      4.558     10.275
REMARK  Name = 
REMARK  9 active torsions:
REMARK  status: ('A' for Active; 'I' for Inactive)
REMARK    1  A    between atoms: C_1  and  C_2
REMARK    2  A    between atoms: C_4  and  C_5
REMARK    3  A    between atoms: C_17  and  C_18
REMARK    4  A    between atoms: C_19  and  N_20
REMARK    5  A    between atoms: C_21  and  C_23
REMARK    6  A    between atoms: C_23  and  C_24
REMARK    7  A    between atoms: C_24  and  N_25
REMARK    8  A    between atoms: N_25  and  C_26
REMARK    9  A    between atoms: N_25  and  C_27
REMARK                            x       y       z     vdW  Elec       q    Type
REMARK                         _______ _______ _______ _____ _____    ______ ____
ROOT
ATOM      1  C   UNL     1      -0.492  12.459  22.463  0.00  0.00    +0.000 C 
ATOM      2  C   UNL     1      -0.563  11.746  21.162  0.00  0.00    +0.000 A 
ATOM      3  N   UNL     1       0.533  11.100  20.646  0.00  0.00    +0.000 N 
ATOM      4  C   UNL     1       0.213  10.505  19.453  0.00  0.00    +0.000 A 
ATOM      5  C   UNL     1      -1.103  10.820  19.156  0.00  0.00    +0.000 A 
ATOM      6  C   UNL     1      -1.904  10.278  18.024  0.00  0.00    +0.000 C 
ATOM      7  C   UNL     1      -1.579  11.626  20.234  0.00  0.00    +0.000 A 
ATOM      8  H   UNL     1       1.430  11.030  21.107  0.00  0.00    +0.000 HD
ENDROOT
BRANCH   4   9
ATOM      9  C   UNL     1       1.192   9.713  18.814  0.00  0.00    +0.000 C 
ATOM     10  C   UNL     1       1.652   8.568  19.341  0.00  0.00    +0.000 C 
ATOM     11  C   UNL     1       1.269   7.926  20.656  0.00  0.00    +0.000 C 
ATOM     12  O   UNL     1       0.548   8.345  21.536  0.00  0.00    +0.000 OA
ATOM     13  N   UNL     1       1.964   6.725  20.681  0.00  0.00    +0.000 N 
ATOM     14  C   UNL     1       2.753   6.564  19.549  0.00  0.00    +0.000 A 
ATOM     15  C   UNL     1       3.581   5.496  19.271  0.00  0.00    +0.000 A 
ATOM     16  C   UNL     1       4.303   5.546  18.078  0.00  0.00    +0.000 A 
ATOM     17  C   UNL     1       4.174   6.648  17.217  0.00  0.00    +0.000 A 
ATOM     18  F   UNL     1       4.886   6.670  16.083  0.00  0.00    +0.000 F 
ATOM     19  C   UNL     1       3.330   7.720  17.511  0.00  0.00    +0.000 A 
ATOM     20  C   UNL     1       2.615   7.665  18.693  0.00  0.00    +0.000 A 
ATOM     21  H   UNL     1       1.892   6.081  21.453  0.00  0.00    +0.000 HD
ENDBRANCH   4   9
BRANCH   7  22
ATOM     22  N   UNL     1      -2.844  12.131  20.439  0.00  0.00    +0.000 N 
ATOM     23  C   UNL     1      -3.194  13.461  20.400  0.00  0.00    +0.000 C 
ATOM     24  O   UNL     1      -2.409  14.408  20.396  0.00  0.00    +0.000 OA
ATOM     25  H   UNL     1      -3.571  11.454  20.661  0.00  0.00    +0.000 HD
BRANCH  23  26
ATOM     26  C   UNL     1      -4.687  13.714  20.533  0.00  0.00    +0.000 C 
BRANCH  26  27
ATOM     27  C   UNL     1      -5.353  12.976  21.697  0.00  0.00    +0.000 C 
BRANCH  27  28
ATOM     28  N   UNL     1      -6.243  11.867  21.293  0.00  0.00    +0.000 NA
ATOM     29  C   UNL     1      -7.578  11.958  21.887  0.00  0.00    +0.000 C 
ATOM     30  C   UNL     1      -6.350  11.828  19.830  0.00  0.00    +0.000 C 
ENDBRANCH  27  28
ENDBRANCH  26  27
ENDBRANCH  23  26
ENDBRANCH   7  22
TORSDOF 5
ENDMDL
MODEL 7
REMARK VINA RESULT:      -6.9      4.581      9.639
REMARK  Name = 
REMARK  9 active torsions:
REMARK  status: ('A' for Active; 'I' for Inactive)
REMARK    1  A    between atoms: C_1  and  C_2
REMARK    2  A    between atoms: C_4  and  C_5
REMARK    3  A    between atoms: C_17  and  C_18
REMARK    4  A    between atoms: C_19  and  N_20
REMARK    5  A    between atoms: C_21  and  C_23
REMARK    6  A    between atoms: C_23  and  C_24
REMARK    7  A    between atoms: C_24  and  N_25
REMARK    8  A    between atoms: N_25  and  C_26
REMARK    9  A    between atoms: N_25  and  C_27
REMARK                            x       y       z     vdW  Elec       q    Type
REMARK                         _______ _______ _______ _____ _____    ______ ____
ROOT
ATOM      1  C   UNL     1      -2.301  11.879  19.467  0.00  0.00    +0.000 C 
ATOM      2  C   UNL     1      -0.872  11.717  19.098  0.00  0.00    +0.000 A 
ATOM      3  N   UNL     1      -0.332  10.474  18.877  0.00  0.00    +0.000 N 
ATOM      4  C   UNL     1       0.991  10.588  18.533  0.00  0.00    +0.000 A 
ATOM      5  C   UNL     1       1.336  11.928  18.589  0.00  0.00    +0.000 A 
ATOM      6  C   UNL     1       2.633  12.523  18.167  0.00  0.00    +0.000 C 
ATOM      7  C   UNL     1       0.154  12.634  18.971  0.00  0.00    +0.000 A 
ATOM      8  H   UNL     1      -0.850   9.607  18.912  0.00  0.00    +0.000 HD
ENDROOT
BRANCH   4   9
ATOM      9  C   UNL     1       1.694   9.416  18.177  0.00  0.00    +0.000 C 
ATOM     10  C   UNL     1       1.908   8.412  19.041  0.00  0.00    +0.000 C 
ATOM     11  C   UNL     1       1.494   8.327  20.494  0.00  0.00    +0.000 C 
ATOM     12  O   UNL     1       0.972   9.165  21.195  0.00  0.00    +0.000 OA
ATOM     13  N   UNL     1       1.880   7.056  20.898  0.00  0.00    +0.000 N 
ATOM     14  C   UNL     1       2.509   6.359  19.875  0.00  0.00    +0.000 A 
ATOM     15  C   UNL     1       3.030   5.083  19.950  0.00  0.00    +0.000 A 
ATOM     16  C   UNL     1       3.640   4.578  18.801  0.00  0.00    +0.000 A 
ATOM     17  C   UNL     1       3.707   5.355  17.634  0.00  0.00    +0.000 A 
ATOM     18  F   UNL     1       4.306   4.845  16.551  0.00  0.00    +0.000 F 
ATOM     19  C   UNL     1       3.173   6.643  17.573  0.00  0.00    +0.000 A 
ATOM     20  C   UNL     1       2.568   7.139  18.713  0.00  0.00    +0.000 A 
ATOM     21  H   UNL     1       1.721   6.723  21.837  0.00  0.00    +0.000 HD
ENDBRANCH   4   9
BRANCH   7  22
ATOM     22  N   UNL     1      -0.036  13.993  19.095  0.00  0.00    +0.000 N 
ATOM     23  C   UNL     1       0.009  14.706  20.270  0.00  0.00    +0.000 C 
ATOM     24  O   UNL     1       0.006  14.222  21.402  0.00  0.00    +0.000 OA
ATOM     25  H   UNL     1      -0.251  14.499  18.239  0.00  0.00    +0.000 HD
BRANCH  23  26
ATOM     26  C   UNL     1      -0.107  16.210  20.088  0.00  0.00    +0.000 C 
BRANCH  26  27
ATOM     27  C   UNL     1       1.219  16.915  19.789  0.00  0.00    +0.000 C 
BRANCH  27  28
ATOM     28  N   UNL     1       2.278  16.031  19.259  0.00  0.00    +0.000 NA
ATOM     29  C   UNL     1       2.753  16.436  17.934  0.00  0.00    +0.000 C 
ATOM     30  C   UNL     1       3.403  15.988  20.200  0.00  0.00    +0.000 C 
ENDBRANCH  27  28
ENDBRANCH  26  27
ENDBRANCH  23  26
ENDBRANCH   7  22
TORSDOF 5
ENDMDL
MODEL 8
REMARK VINA RESULT:      -6.8      4.702      9.551
REMARK  Name = 
REMARK  9 active torsions:
REMARK  status: ('A' for Active; 'I' for Inactive)
REMARK    1  A    between atoms: C_1  and  C_2
REMARK    2  A    between atoms: C_4  and  C_5
REMARK    3  A    between atoms: C_17  and  C_18
REMARK    4  A    between atoms: C_19  and  N_20
REMARK    5  A    between atoms: C_21  and  C_23
REMARK    6  A    between atoms: C_23  and  C_24
REMARK    7  A    between atoms: C_24  and  N_25
REMARK    8  A    between atoms: N_25  and  C_26
REMARK    9  A    between atoms: N_25  and  C_27
REMARK                            x       y       z     vdW  Elec       q    Type
REMARK                         _______ _______ _______ _____ _____    ______ ____
ROOT
ATOM      1  C   UNL     1       2.474  13.672  18.520  0.00  0.00    +0.000 C 
ATOM      2  C   UNL     1       1.669  12.425  18.505  0.00  0.00    +0.000 A 
ATOM      3  N   UNL     1       2.235  11.218  18.176  0.00  0.00    +0.000 N 
ATOM      4  C   UNL     1       1.298  10.220  18.252  0.00  0.00    +0.000 A 
ATOM      5  C   UNL     1       0.082  10.796  18.581  0.00  0.00    +0.000 A 
ATOM      6  C   UNL     1      -1.179  10.072  18.897  0.00  0.00    +0.000 C 
ATOM      7  C   UNL     1       0.323  12.197  18.716  0.00  0.00    +0.000 A 
ATOM      8  H   UNL     1       3.212  11.081  17.959  0.00  0.00    +0.000 HD
ENDROOT
BRANCH   4   9
ATOM      9  C   UNL     1       1.717   8.889  18.035  0.00  0.00    +0.000 C 
ATOM     10  C   UNL     1       1.866   8.006  19.035  0.00  0.00    +0.000 C 
ATOM     11  C   UNL     1       1.656   8.231  20.516  0.00  0.00    +0.000 C 
ATOM     12  O   UNL     1       1.402   9.255  21.111  0.00  0.00    +0.000 OA
ATOM     13  N   UNL     1       1.857   6.985  21.095  0.00  0.00    +0.000 N 
ATOM     14  C   UNL     1       2.195   6.026  20.150  0.00  0.00    +0.000 A 
ATOM     15  C   UNL     1       2.480   4.697  20.392  0.00  0.00    +0.000 A 
ATOM     16  C   UNL     1       2.816   3.909  19.291  0.00  0.00    +0.000 A 
ATOM     17  C   UNL     1       2.855   4.468  18.004  0.00  0.00    +0.000 A 
ATOM     18  F   UNL     1       3.189   3.687  16.969  0.00  0.00    +0.000 F 
ATOM     19  C   UNL     1       2.562   5.813  17.774  0.00  0.00    +0.000 A 
ATOM     20  C   UNL     1       2.227   6.591  18.868  0.00  0.00    +0.000 A 
ATOM     21  H   UNL     1       1.776   6.839  22.090  0.00  0.00    +0.000 HD
ENDBRANCH   4   9
BRANCH   7  22
ATOM     22  N   UNL     1      -0.553  13.189  19.102  0.00  0.00    +0.000 N 
ATOM     23  C   UNL     1      -0.595  13.785  20.340  0.00  0.00    +0.000 C 
ATOM     24  O   UNL     1      -0.017  13.383  21.349  0.00  0.00    +0.000 OA
ATOM     25  H   UNL     1      -1.239  13.481  18.409  0.00  0.00    +0.000 HD
BRANCH  23  26
ATOM     26  C   UNL     1      -1.578  14.941  20.440  0.00  0.00    +0.000 C 
BRANCH  26  27
ATOM     27  C   UNL     1      -2.889  14.597  21.151  0.00  0.00    +0.000 C 
BRANCH  27  28
ATOM     28  N   UNL     1      -3.286  13.176  21.053  0.00  0.00    +0.000 NA
ATOM     29  C   UNL     1      -3.561  12.567  22.355  0.00  0.00    +0.000 C 
ATOM     30  C   UNL     1      -4.463  13.050  20.186  0.00  0.00    +0.000 C 
ENDBRANCH  27  28
ENDBRANCH  26  27
ENDBRANCH  23  26
ENDBRANCH   7  22
TORSDOF 5
ENDMDL
MODEL 9
REMARK VINA RESULT:      -6.8      4.617      9.816
REMARK  Name = 
REMARK  9 active torsions:
REMARK  status: ('A' for Active; 'I' for Inactive)
REMARK    1  A    between atoms: C_1  and  C_2
REMARK    2  A    between atoms: C_4  and  C_5
REMARK    3  A    between atoms: C_17  and  C_18
REMARK    4  A    between atoms: C_19  and  N_20
REMARK    5  A    between atoms: C_21  and  C_23
REMARK    6  A    between atoms: C_23  and  C_24
REMARK    7  A    between atoms: C_24  and  N_25
REMARK    8  A    between atoms: N_25  and  C_26
REMARK    9  A    between atoms: N_25  and  C_27
REMARK                            x       y       z     vdW  Elec       q    Type
REMARK                         _______ _______ _______ _____ _____    ______ ____
ROOT
ATOM      1  C   UNL     1       1.611  13.915  19.449  0.00  0.00    +0.000 C 
ATOM      2  C   UNL     1       1.004  12.621  19.049  0.00  0.00    +0.000 A 
ATOM      3  N   UNL     1       1.786  11.549  18.694  0.00  0.00    +0.000 N 
ATOM      4  C   UNL     1       0.997  10.471  18.387  0.00  0.00    +0.000 A 
ATOM      5  C   UNL     1      -0.327  10.864  18.485  0.00  0.00    +0.000 A 
ATOM      6  C   UNL     1      -1.520   9.982  18.367  0.00  0.00    +0.000 C 
ATOM      7  C   UNL     1      -0.312  12.236  18.883  0.00  0.00    +0.000 A 
ATOM      8  H   UNL     1       2.796  11.544  18.709  0.00  0.00    +0.000 HD
ENDROOT
BRANCH   4   9
ATOM      9  C   UNL     1       1.628   9.244  18.085  0.00  0.00    +0.000 C 
ATOM     10  C   UNL     1       1.857   8.302  19.012  0.00  0.00    +0.000 C 
ATOM     11  C   UNL     1       1.536   8.351  20.490  0.00  0.00    +0.000 C 
ATOM     12  O   UNL     1       1.095   9.265  21.152  0.00  0.00    +0.000 OA
ATOM     13  N   UNL     1       1.896   7.099  20.973  0.00  0.00    +0.000 N 
ATOM     14  C   UNL     1       2.428   6.296  19.973  0.00  0.00    +0.000 A 
ATOM     15  C   UNL     1       2.901   5.007  20.119  0.00  0.00    +0.000 A 
ATOM     16  C   UNL     1       3.413   4.386  18.980  0.00  0.00    +0.000 A 
ATOM     17  C   UNL     1       3.435   5.065  17.751  0.00  0.00    +0.000 A 
ATOM     18  F   UNL     1       3.940   4.444  16.678  0.00  0.00    +0.000 F 
ATOM     19  C   UNL     1       2.951   6.367  17.618  0.00  0.00    +0.000 A 
ATOM     20  C   UNL     1       2.442   6.979  18.749  0.00  0.00    +0.000 A 
ATOM     21  H   UNL     1       1.785   6.849  21.943  0.00  0.00    +0.000 HD
ENDBRANCH   4   9
BRANCH   7  22
ATOM     22  N   UNL     1      -1.377  13.058  19.181  0.00  0.00    +0.000 N 
ATOM     23  C   UNL     1      -2.007  13.144  20.401  0.00  0.00    +0.000 C 
ATOM     24  O   UNL     1      -1.866  12.357  21.337  0.00  0.00    +0.000 OA
ATOM     25  H   UNL     1      -1.734  13.630  18.420  0.00  0.00    +0.000 HD
BRANCH  23  26
ATOM     26  C   UNL     1      -3.065  14.232  20.478  0.00  0.00    +0.000 C 
BRANCH  26  27
ATOM     27  C   UNL     1      -4.354  13.811  21.188  0.00  0.00    +0.000 C 
BRANCH  27  28
ATOM     28  N   UNL     1      -5.091  12.715  20.525  0.00  0.00    +0.000 NA
ATOM     29  C   UNL     1      -6.238  12.242  21.302  0.00  0.00    +0.000 C 
ATOM     30  C   UNL     1      -5.536  13.151  19.196  0.00  0.00    +0.000 C 
ENDBRANCH  27  28
ENDBRANCH  26  27
ENDBRANCH  23  26
ENDBRANCH   7  22
TORSDOF 5
ENDMDL
